379-79-3
ChemmineR-0915142007XD

100113  0  0  1  0  0  0  0  0  1 V2000
   19.9960   -3.6405    0.0000 C   0  0  0  0  0  0  0  0  0  0  0  0
   20.9597   -4.2829    0.0000 N   0  0  0  0  0  0  0  0  0  0  0  0
   18.8450   -4.2026    0.0000 O   0  0  0  0  0  0  0  0  0  0  0  0
   18.8450   -5.4875    0.0000 C   0  0  0  0  0  0  0  0  0  0  0  0
   16.4358  -10.8680    0.0000 C   0  0  0  0  0  0  0  0  0  0  0  0
   19.8086   -6.1032    0.0000 C   0  0  0  0  0  0  0  0  0  0  0  0
   22.1107   -2.4359    0.0000 C   0  0  0  0  0  0  0  0  0  0  0  0
   22.1107   -3.7208    0.0000 C   0  0  0  0  0  0  0  0  0  0  0  0
   21.1203   -1.7667    0.0000 N   0  0  0  0  0  0  0  0  0  0  0  0
   16.4358  -13.4645    0.0000 C   0  0  0  0  0  0  0  0  0  0  0  0
   19.9960   -2.4092    0.0000 C   0  0  0  0  0  0  0  0  0  0  0  0
   17.6136  -11.5372    0.0000 C   0  0  0  0  0  0  0  0  0  0  0  0
   16.4358   -9.5028    0.0000 C   0  0  0  0  0  0  0  0  0  0  0  0
   15.3115  -11.5372    0.0000 C   0  0  0  0  0  0  0  0  0  0  0  0
   17.5869   -8.8068    0.0000 C   0  0  0  0  0  0  0  0  0  0  0  0
   18.6844   -6.9598    0.0000 N   0  0  0  0  0  0  0  0  0  0  0  0
   18.7647  -10.8412    0.0000 N   0  0  0  0  0  0  0  0  0  0  0  0
   15.3115  -12.8221    0.0000 C   0  0  0  0  0  0  0  0  0  0  0  0
   17.5601   -7.5219    0.0000 C   0  0  0  0  0  0  0  0  0  0  0  0
   17.6136  -12.8221    0.0000 C   0  0  0  0  0  0  0  0  0  0  0  0
   16.1414  -14.7762    0.0000 C   0  0  0  0  0  0  0  0  0  0  0  0
   14.5085  -14.7762    0.0000 N   0  0  0  0  0  0  0  0  0  0  0  0
   18.7647   -9.4760    0.0000 C   0  0  0  0  0  0  0  0  0  0  0  0
   14.2140  -13.4645    0.0000 C   0  0  0  0  0  0  0  0  0  0  0  0
   23.2082   -4.4168    0.0000 C   0  0  0  0  0  0  0  0  0  0  0  0
   23.0744   -1.8470    0.0000 O   0  0  0  0  0  0  0  0  0  0  0  0
   19.1127   -3.1319    0.0000 O   0  0  0  0  0  0  0  0  0  0  0  0
   19.8086   -7.1739    0.0000 O   0  0  0  0  0  0  0  0  0  0  0  0
   16.3555   -6.7724    0.0000 O   0  0  0  0  0  0  0  0  0  0  0  0
   21.1203   -0.6157    0.0000 C   0  0  0  0  0  0  0  0  0  0  0  0
   17.6404   -4.7648    0.0000 C   0  0  0  0  0  0  0  0  0  0  0  0
   14.1873  -10.8680    0.0000 C   0  0  0  0  0  0  0  0  0  0  0  0
   20.1299  -11.4569    0.0000 C   0  0  0  0  0  0  0  0  0  0  0  0
   24.4396   -3.8547    0.0000 C   0  0  0  0  0  0  0  0  0  0  0  0
   19.0056   -1.7399    0.0000 C   0  0  0  0  0  0  0  0  0  0  0  0
   20.1299    0.0000    0.0000 C   0  0  0  0  0  0  0  0  0  0  0  0
   13.0362  -11.5104    0.0000 C   0  0  0  0  0  0  0  0  0  0  0  0
   13.0362  -12.7953    0.0000 C   0  0  0  0  0  0  0  0  0  0  0  0
   25.5906   -4.5506    0.0000 C   0  0  0  0  0  0  0  0  0  0  0  0
   24.4396   -2.5162    0.0000 C   0  0  0  0  0  0  0  0  0  0  0  0
   26.7684   -3.8547    0.0000 C   0  0  0  0  0  0  0  0  0  0  0  0
   25.5906   -1.8738    0.0000 C   0  0  0  0  0  0  0  0  0  0  0  0
   26.7684   -2.5162    0.0000 C   0  0  0  0  0  0  0  0  0  0  0  0
   18.8450  -12.2599    0.0000 H   0  0  0  0  0  0  0  0  0  0  0  0
   20.9597   -2.9981    0.0000 H   0  0  0  0  0  0  0  0  0  0  0  0
    6.9598   -3.6673    0.0000 C   0  0  0  0  0  0  0  0  0  0  0  0
    7.9235   -4.3097    0.0000 N   0  0  0  0  0  0  0  0  0  0  0  0
    5.8087   -4.2294    0.0000 O   0  0  0  0  0  0  0  0  0  0  0  0
    5.8087   -5.4875    0.0000 C   0  0  0  0  0  0  0  0  0  0  0  0
    3.3996  -10.8947    0.0000 C   0  0  0  0  0  0  0  0  0  0  0  0
    6.7724   -6.1300    0.0000 C   0  0  0  0  0  0  0  0  0  0  0  0
    9.0745   -2.4627    0.0000 C   0  0  0  0  0  0  0  0  0  0  0  0
    9.0745   -3.7476    0.0000 C   0  0  0  0  0  0  0  0  0  0  0  0
    8.0841   -1.7935    0.0000 N   0  0  0  0  0  0  0  0  0  0  0  0
    3.3996  -13.4913    0.0000 C   0  0  0  0  0  0  0  0  0  0  0  0
    6.9598   -2.4092    0.0000 C   0  0  0  0  0  0  0  0  0  0  0  0
    4.5774  -11.5640    0.0000 C   0  0  0  0  0  0  0  0  0  0  0  0
    3.3996   -9.5296    0.0000 C   0  0  0  0  0  0  0  0  0  0  0  0
    2.2753  -11.5640    0.0000 C   0  0  0  0  0  0  0  0  0  0  0  0
    4.5506   -8.8068    0.0000 C   0  0  0  0  0  0  0  0  0  0  0  0
    5.6481   -6.9866    0.0000 N   0  0  0  0  0  0  0  0  0  0  0  0
    5.7284  -10.8412    0.0000 N   0  0  0  0  0  0  0  0  0  0  0  0
    2.2753  -12.8221    0.0000 C   0  0  0  0  0  0  0  0  0  0  0  0
    4.5239   -7.5487    0.0000 C   0  0  0  0  0  0  0  0  0  0  0  0
    4.5774  -12.8221    0.0000 C   0  0  0  0  0  0  0  0  0  0  0  0
    3.1051  -14.8029    0.0000 C   0  0  0  0  0  0  0  0  0  0  0  0
    1.4723  -14.8029    0.0000 N   0  0  0  0  0  0  0  0  0  0  0  0
    5.7284   -9.5028    0.0000 C   0  0  0  0  0  0  0  0  0  0  0  0
    1.1778  -13.4913    0.0000 C   0  0  0  0  0  0  0  0  0  0  0  0
   10.1720   -4.4436    0.0000 C   0  0  0  0  0  0  0  0  0  0  0  0
   10.0382   -1.8738    0.0000 O   0  0  0  0  0  0  0  0  0  0  0  0
    6.0764   -3.1587    0.0000 O   0  0  0  0  0  0  0  0  0  0  0  0
    6.7724   -7.1739    0.0000 O   0  0  0  0  0  0  0  0  0  0  0  0
    3.3193   -6.7724    0.0000 O   0  0  0  0  0  0  0  0  0  0  0  0
    8.0841   -0.6424    0.0000 C   0  0  0  0  0  0  0  0  0  0  0  0
    4.6042   -4.7648    0.0000 C   0  0  0  0  0  0  0  0  0  0  0  0
    1.1510  -10.8947    0.0000 C   0  0  0  0  0  0  0  0  0  0  0  0
    7.0936  -11.4837    0.0000 C   0  0  0  0  0  0  0  0  0  0  0  0
   11.4033   -3.8814    0.0000 C   0  0  0  0  0  0  0  0  0  0  0  0
    5.9694   -1.7667    0.0000 C   0  0  0  0  0  0  0  0  0  0  0  0
    7.0936    0.0000    0.0000 C   0  0  0  0  0  0  0  0  0  0  0  0
    0.0000  -11.5104    0.0000 C   0  0  0  0  0  0  0  0  0  0  0  0
    0.0000  -12.8221    0.0000 C   0  0  0  0  0  0  0  0  0  0  0  0
   12.5544   -4.5506    0.0000 C   0  0  0  0  0  0  0  0  0  0  0  0
   11.4033   -2.5430    0.0000 C   0  0  0  0  0  0  0  0  0  0  0  0
   13.7322   -3.8814    0.0000 C   0  0  0  0  0  0  0  0  0  0  0  0
   12.5544   -1.8738    0.0000 C   0  0  0  0  0  0  0  0  0  0  0  0
   13.7322   -2.5430    0.0000 C   0  0  0  0  0  0  0  0  0  0  0  0
    5.8087  -12.2599    0.0000 H   0  0  0  0  0  0  0  0  0  0  0  0
    7.9235   -3.0248    0.0000 H   0  0  0  0  0  0  0  0  0  0  0  0
   12.3938   -7.8431    0.0000 C   0  0  0  0  0  0  0  0  0  0  0  0
   11.2427   -7.1739    0.0000 C   0  0  0  0  0  0  0  0  0  0  0  0
   13.5181   -7.1739    0.0000 C   0  0  0  0  0  0  0  0  0  0  0  0
   12.3938   -9.1548    0.0000 O   0  0  0  0  0  0  0  0  0  0  0  0
   10.1185   -7.8431    0.0000 C   0  0  0  0  0  0  0  0  0  0  0  0
   11.2427   -5.8623    0.0000 O   0  0  0  0  0  0  0  0  0  0  0  0
   14.6423   -7.8431    0.0000 O   0  0  0  0  0  0  0  0  0  0  0  0
   13.5181   -5.8623    0.0000 O   0  0  0  0  0  0  0  0  0  0  0  0
   10.1185   -9.1548    0.0000 O   0  0  0  0  0  0  0  0  0  0  0  0
    8.9942   -7.1739    0.0000 O   0  0  0  0  0  0  0  0  0  0  0  0
  1  2  1  0  0  0  0
  1  3  1  0  0  0  0
  1 11  1  0  0  0  0
  1 27  1  6  0  0  0
  2  6  1  0  0  0  0
  2  8  1  0  0  0  0
  3  4  1  0  0  0  0
  4 16  1  6  0  0  0
  4 31  1  1  0  0  0
  4  6  1  0  0  0  0
  5 13  2  0  0  0  0
  5 14  1  0  0  0  0
  5 12  1  0  0  0  0
  6 28  2  0  0  0  0
  7  9  1  0  0  0  0
  7 26  2  0  0  0  0
  7  8  1  0  0  0  0
  8 25  1  6  0  0  0
  9 11  1  0  0  0  0
  9 30  1  0  0  0  0
 10 20  1  0  0  0  0
 10 21  2  0  0  0  0
 10 18  1  0  0  0  0
 11 35  1  0  0  0  0
 11 45  1  1  0  0  0
 12 17  1  0  0  0  0
 12 20  1  0  0  0  0
 12 44  1  1  0  0  0
 13 15  1  0  0  0  0
 14 18  2  0  0  0  0
 14 32  1  0  0  0  0
 15 19  1  1  0  0  0
 15 23  1  0  0  0  0
 16 19  1  0  0  0  0
 17 23  1  0  0  0  0
 17 33  1  0  0  0  0
 18 24  1  0  0  0  0
 19 29  2  0  0  0  0
 21 22  1  0  0  0  0
 22 24  1  0  0  0  0
 24 38  2  0  0  0  0
 25 34  1  0  0  0  0
 30 36  1  0  0  0  0
 32 37  2  0  0  0  0
 34 39  1  0  0  0  0
 34 40  2  0  0  0  0
 35 36  1  0  0  0  0
 37 38  1  0  0  0  0
 39 41  2  0  0  0  0
 40 42  1  0  0  0  0
 41 43  1  0  0  0  0
 42 43  2  0  0  0  0
 46 47  1  0  0  0  0
 46 48  1  0  0  0  0
 46 56  1  0  0  0  0
 46 72  1  6  0  0  0
 47 51  1  0  0  0  0
 47 53  1  0  0  0  0
 48 49  1  0  0  0  0
 49 61  1  6  0  0  0
 49 76  1  1  0  0  0
 49 51  1  0  0  0  0
 50 58  2  0  0  0  0
 50 59  1  0  0  0  0
 50 57  1  0  0  0  0
 51 73  2  0  0  0  0
 52 54  1  0  0  0  0
 52 71  2  0  0  0  0
 52 53  1  0  0  0  0
 53 70  1  6  0  0  0
 54 56  1  0  0  0  0
 54 75  1  0  0  0  0
 55 65  1  0  0  0  0
 55 66  2  0  0  0  0
 55 63  1  0  0  0  0
 56 80  1  0  0  0  0
 56 90  1  1  0  0  0
 57 62  1  0  0  0  0
 57 65  1  0  0  0  0
 57 89  1  1  0  0  0
 58 60  1  0  0  0  0
 59 63  2  0  0  0  0
 59 77  1  0  0  0  0
 60 64  1  1  0  0  0
 60 68  1  0  0  0  0
 61 64  1  0  0  0  0
 62 68  1  0  0  0  0
 62 78  1  0  0  0  0
 63 69  1  0  0  0  0
 64 74  2  0  0  0  0
 66 67  1  0  0  0  0
 67 69  1  0  0  0  0
 69 83  2  0  0  0  0
 70 79  1  0  0  0  0
 75 81  1  0  0  0  0
 77 82  2  0  0  0  0
 79 84  1  0  0  0  0
 79 85  2  0  0  0  0
 80 81  1  0  0  0  0
 82 83  1  0  0  0  0
 84 86  2  0  0  0  0
 85 87  1  0  0  0  0
 86 88  1  0  0  0  0
 87 88  2  0  0  0  0
 91 92  1  0  0  0  0
 91 93  1  0  0  0  0
 91 94  1  6  0  0  0
 92 95  1  0  0  0  0
 92 96  1  6  0  0  0
 93 97  1  0  0  0  0
 93 98  2  0  0  0  0
 95 99  2  0  0  0  0
 95100  1  0  0  0  0
M  END
> <ID>
4107

> <Formula>
C70H76N10O16

> <FW>
1313.4098 (581.6615+581.6615+150.0868)

> <DSSTox_CID>
5253

> <DSSTox_RID>
77717

> <DSSTox_GSID>
25253

> <DSSTox_FileID_Sort>
2400

> <TS_ChemName>
Ergotamine D-tartrate

> <TS_ChemName_Synonyms>
Ergotamine tartrate

> <TS_CASRN>
379-79-3

> <CASRN_ChemName_Relationship>
primary

> <TS_Description>
single chemical compound

> <ChemNote>
stereochem; parent [113-15-5]

> <STRUCTURE_Shown>
tested chemical

> <STRUCTURE_Formula>
C70H76N10O16

> <STRUCTURE_MW>
1313.4098

> <STRUCTURE_ChemType>
defined organic

> <STRUCTURE_DefinedOrganicForm>
complex

> <STRUCTURE_IUPAC>
(2R,3R)-2,3-dihydroxybutanedioic acid - (5'alpha)-5'-benzyl-12'-hydroxy-2'-methyl-3',6',18-trioxoergotaman (1:2)

> <STRUCTURE_SMILES>
O=C(O)[C@H](O)[C@@H](O)C(=O)O.CN2C[C@@H](C=C1c3cccc4ncc(C[C@H]12)c34)C(=O)N[C@]5(C)O[C@]8(O)N(C5=O)[C@@H](Cc6ccccc6)C(=O)N7CCC[C@H]78.CN2C[C@@H](C=C1c3cccc4ncc(C[C@H]12)c34)C(=O)N[C@]8(C)O[C@]7(O)N([C@@H](Cc5ccccc5)C(=O)N6CCC[C@H]67)C8=O

> <STRUCTURE_SMILES_Desalt>
CN2C[C@@H](C=C1c3cccc4ncc(C[C@H]12)c34)C(=O)N[C@]8(C)O[C@]7(O)N([C@@H](Cc5ccccc5)C(=O)N6CCC[C@H]67)C8=O

> <Substance_modify_yyyymmdd>
20080429

$$$$
