3790-78-1
ChemmineR-0915142007XD

 16 15  0  0  0  0  0  0  0  0  1 V2000
    8.0821   -0.6752    0.0000 C   0  0  0  0  0  0  0  0  0  0  0  0
    8.0924   -2.0257    0.0000 C   0  0  0  0  0  0  0  0  0  0  0  0
    6.9601   -2.7009    0.0000 C   0  0  0  0  0  0  0  0  0  0  0  0
    6.9290   -4.0306    0.0000 C   0  0  0  0  0  0  0  0  0  0  0  0
    5.7551   -4.6539    0.0000 C   0  0  0  0  0  0  0  0  0  0  0  0
    4.6020   -3.9787    0.0000 C   0  0  0  0  0  0  0  0  0  0  0  0
    3.4489   -4.6332    0.0000 C   0  0  0  0  0  0  0  0  0  0  0  0
    2.2958   -3.9683    0.0000 C   0  0  0  0  0  0  0  0  0  0  0  0
    1.1427   -4.6228    0.0000 C   0  0  0  0  0  0  0  0  0  0  0  0
    0.0000   -3.9475    0.0000 C   0  0  0  0  0  0  0  0  0  0  0  0
    5.7551   -5.9836    0.0000 C   0  0  0  0  0  0  0  0  0  0  0  0
    1.1219   -5.9525    0.0000 C   0  0  0  0  0  0  0  0  0  0  0  0
    9.2144    0.0000    0.0000 C   0  0  0  0  0  0  0  0  0  0  0  0
    6.9290   -0.0312    0.0000 C   0  0  0  0  0  0  0  0  0  0  0  0
    6.9393   -1.3712    0.0000 O   0  0  0  0  0  0  0  0  0  0  0  0
   10.3882   -0.6441    0.0000 C   0  0  0  0  0  0  0  0  0  0  0  0
  1  2  1  0  0  0  0
  1 13  1  0  0  0  0
  1 14  1  0  0  0  0
  1 15  1  0  0  0  0
  2  3  1  0  0  0  0
  3  4  1  0  0  0  0
  4  5  2  0  0  0  0
  5  6  1  0  0  0  0
  5 11  1  0  0  0  0
  6  7  1  0  0  0  0
  7  8  1  0  0  0  0
  8  9  2  0  0  0  0
  9 10  1  0  0  0  0
  9 12  1  0  0  0  0
 13 16  2  0  0  0  0
M  END
> <ID>
12382

> <Formula>
C15H26O

> <FW>
222.3663

> <DSSTox_CID>
27239

> <DSSTox_RID>
82202

> <DSSTox_GSID>
47239

> <DSSTox_FileID_Sort>
6883

> <TS_ChemName>
cis-Nerolidol

> <TS_ChemName_Synonyms>


> <TS_CASRN>
3790-78-1

> <CASRN_ChemName_Relationship>
primary

> <TS_Description>
single chemical compound

> <ChemNote>
mixture of (3R,S)- isomers; stereochem

> <STRUCTURE_Shown>
tested chemical

> <STRUCTURE_Formula>
C15H26O

> <STRUCTURE_MW>
222.3663

> <STRUCTURE_ChemType>
defined organic

> <STRUCTURE_DefinedOrganicForm>
parent

> <STRUCTURE_IUPAC>
(6Z)-3,7,11-trimethyldodeca-1,6,10-trien-3-ol

> <STRUCTURE_SMILES>
C/C(C)=C\CCC(/C)=C\CCC(C)(O)C=C

> <STRUCTURE_SMILES_Desalt>
C/C(C)=C\CCC(/C)=C\CCC(C)(O)C=C

> <Substance_modify_yyyymmdd>
20120530

$$$$
