37971-78-1
ChemmineR-0915142007XD

 12 11  0  0  0  0  0  0  0  0  2 V2000
    5.1287   -4.9697    0.0000 C   0  0  0  0  0  0  0  0  0  0  0  0
    0.4770   -3.8158    0.0000 C   0  0  0  0  0  0  0  0  0  0  0  0
    3.7850   -4.9697    0.0000 C   0  0  0  0  0  0  0  0  0  0  0  0
    3.1337   -3.8158    0.0000 C   0  0  0  0  0  0  0  0  0  0  0  0
    1.1488    0.0000    0.0000 C   0  0  0  0  0  0  0  0  0  0  0  0
    0.0000   -0.6719    0.0000 C   0  0  0  0  0  0  0  0  0  0  0  0
    2.3028   -0.6719    0.0000 C   0  0  0  0  0  0  0  0  0  0  0  0
    1.8053   -3.8158    0.0000 C   0  0  0  0  0  0  0  0  0  0  0  0
    0.0000   -1.9951    0.0000 C   0  0  0  0  0  0  0  0  0  0  0  0
    2.3028   -1.9951    0.0000 C   0  0  0  0  0  0  0  0  0  0  0  0
    1.1488   -2.6669    0.0000 N   0  3  0  0  0  0  0  0  0  0  0  0
    1.4207   -5.0159    0.0000 I   0  5  0  0  0  0  0  0  0  0  0  0
  1  3  1  0  0  0  0
  2 11  1  0  0  0  0
  3  4  1  0  0  0  0
  4  8  1  0  0  0  0
  5  6  1  0  0  0  0
  5  7  1  0  0  0  0
  6  9  1  0  0  0  0
  7 10  1  0  0  0  0
  8 11  1  0  0  0  0
  9 11  1  0  0  0  0
 10 11  1  0  0  0  0
M  END
> <ID>
14152

> <Formula>
C10H22IN

> <FW>
283.1929 (156.2878+126.9050)

> <DSSTox_CID>
29145

> <DSSTox_RID>
83364

> <DSSTox_GSID>
49289

> <DSSTox_FileID_Sort>
8039

> <TS_ChemName>
1-Butyl-1-methylpiperidinium iodide

> <TS_ChemName_Synonyms>


> <TS_CASRN>
37971-78-1

> <CASRN_ChemName_Relationship>
primary

> <TS_Description>
single chemical compound

> <ChemNote>


> <STRUCTURE_Shown>
tested chemical

> <STRUCTURE_Formula>
C10H22IN

> <STRUCTURE_MW>
283.1929

> <STRUCTURE_ChemType>
defined organic

> <STRUCTURE_DefinedOrganicForm>
salt

> <STRUCTURE_IUPAC>
1-butyl-1-methylpiperidinium iodide

> <STRUCTURE_SMILES>
[I-].C[N+]1(CCCC)CCCCC1

> <STRUCTURE_SMILES_Desalt>
C[N+]1(CCCC)CCCCC1

> <Substance_modify_yyyymmdd>
20111204

$$$$
