38029-10-6
ChemmineR-0915142007XD

 18 17  0  0  0  0  0  0  0  0  1 V2000
    6.8951   -1.9315    0.0000 N    0  0  0  0  0  0  0  0  0  0  0  0
    8.0374   -2.5961    0.0000 C    0  0  0  0  0  0  0  0  0  0  0  0
    5.7840   -2.5961    0.0000 C    0  0  0  0  0  0  0  0  0  0  0  0
    4.6002   -1.9003    0.0000 C    0  0  0  0  0  0  0  0  0  0  0  0
    8.0374   -3.9252    0.0000 C    0  0  0  0  0  0  0  0  0  0  0  0
    2.2741   -1.9003    0.0000 N    0  0  0  0  0  0  0  0  0  0  0  0
    3.4372   -2.5857    0.0000 C    0  0  0  0  0  0  0  0  0  0  0  0
    5.7840   -3.9252    0.0000 C    0  0  0  0  0  0  0  0  0  0  0  0
    1.1630   -2.5649    0.0000 C    0  0  0  0  0  0  0  0  0  0  0  0
    6.8951   -4.5691    0.0000 C    0  0  0  0  0  0  0  0  0  0  0  0
    4.6210   -0.5815    0.0000 O    0  0  0  0  0  0  0  0  0  0  0  0
    9.2004   -4.6002    0.0000 O    0  0  0  0  0  0  0  0  0  0  0  0
    9.2004   -1.9003    0.0000 C    0  0  0  0  0  0  0  0  0  0  0  0
   10.3842   -2.5441    0.0000 O    0  0  0  0  0  0  0  0  0  0  0  0
    0.4881   -1.4226    0.0000 C    0  0  0  0  0  0  0  0  0  0  0  0
    0.0000   -3.2295    0.0000 C    0  0  0  0  0  0  0  0  0  0  0  0
    1.8276   -3.7279    0.0000 C    0  0  0  0  0  0  0  0  0  0  0  0
    9.2835    0.0000    0.0000 Cl   0  0  0  0  0  0  0  0  0  0  0  0
  1  2  1  0  0  0  0
  1  3  2  0  0  0  0
  2  5  2  0  0  0  0
  2 13  1  0  0  0  0
  3  4  1  0  0  0  0
  3  8  1  0  0  0  0
  4  7  1  0  0  0  0
  4 11  1  0  0  0  0
  5 12  1  0  0  0  0
  5 10  1  0  0  0  0
  6  7  1  0  0  0  0
  6  9  1  0  0  0  0
  8 10  2  0  0  0  0
  9 15  1  0  0  0  0
  9 16  1  0  0  0  0
  9 17  1  0  0  0  0
 13 14  1  0  0  0  0
M  END
> <ID>
10754

> <Formula>
C12H21ClN2O3

> <FW>
276.7597 (240.2988+36.4609)

> <DSSTox_CID>
25120

> <DSSTox_RID>
80686

> <DSSTox_GSID>
45120

> <DSSTox_FileID_Sort>
5368

> <TS_ChemName>
Pirbuterol hydrochloride

> <TS_ChemName_Synonyms>


> <TS_CASRN>
38029-10-6

> <CASRN_ChemName_Relationship>
primary

> <TS_Description>
single chemical compound

> <ChemNote>
parent [38677-81-5]

> <STRUCTURE_Shown>
tested chemical

> <STRUCTURE_Formula>
C12H21ClN2O3

> <STRUCTURE_MW>
276.7597

> <STRUCTURE_ChemType>
defined organic

> <STRUCTURE_DefinedOrganicForm>
complex

> <STRUCTURE_IUPAC>
6-[2-(tert-butylamino)-1-hydroxyethyl]-2-(hydroxymethyl)pyridin-3-ol hydrochloride (1:1)

> <STRUCTURE_SMILES>
Cl.Oc1ccc(nc1CO)C(O)CNC(C)(C)C

> <STRUCTURE_SMILES_Desalt>
Oc1ccc(nc1CO)C(O)CNC(C)(C)C

> <Substance_modify_yyyymmdd>
20100107

$$$$
