380315-80-0
ChemmineR-0915142007XD

 26 27  0  0  0  0  0  0  0  0  1 V2000
   14.9732   -3.8240    0.0000 C   0  0  0  0  0  0  0  0  0  0  0  0
   14.9732   -5.1471    0.0000 C   0  0  0  0  0  0  0  0  0  0  0  0
   16.1350   -5.8247    0.0000 O   0  0  0  0  0  0  0  0  0  0  0  0
   13.8438   -5.8247    0.0000 N   0  0  0  0  0  0  0  0  0  0  0  0
   12.6821   -5.1471    0.0000 C   0  0  0  0  0  0  0  0  0  0  0  0
   12.6659   -3.8401    0.0000 C   0  0  0  0  0  0  0  0  0  0  0  0
   11.5042   -3.1625    0.0000 C   0  0  0  0  0  0  0  0  0  0  0  0
   10.3748   -3.8401    0.0000 C   0  0  0  0  0  0  0  0  0  0  0  0
    9.2131   -3.1625    0.0000 N   0  0  0  0  0  0  0  0  0  0  0  0
    8.0675   -3.8240    0.0000 C   0  0  0  0  0  0  0  0  0  0  0  0
    8.0675   -5.1471    0.0000 S   0  0  0  0  0  0  0  0  0  0  0  0
    6.9219   -3.1625    0.0000 N   0  0  0  0  0  0  0  0  0  0  0  0
    5.7602   -3.8240    0.0000 C   0  0  0  0  0  0  0  0  0  0  0  0
    5.7602   -5.1471    0.0000 O   0  0  0  0  0  0  0  0  0  0  0  0
    4.6146   -3.1625    0.0000 C   0  0  0  0  0  0  0  0  0  0  0  0
    4.6146   -1.8233    0.0000 C   0  0  0  0  0  0  0  0  0  0  0  0
    3.4529   -1.1456    0.0000 C   0  0  0  0  0  0  0  0  0  0  0  0
    2.2912   -1.8233    0.0000 C   0  0  0  0  0  0  0  0  0  0  0  0
    2.2912   -3.1625    0.0000 C   0  0  0  0  0  0  0  0  0  0  0  0
    3.4529   -3.8240    0.0000 C   0  0  0  0  0  0  0  0  0  0  0  0
    1.1456   -1.1456    0.0000 C   0  0  0  0  0  0  0  0  0  0  0  0
    0.4840   -2.3073    0.0000 C   0  0  0  0  0  0  0  0  0  0  0  0
    1.8071    0.0000    0.0000 C   0  0  0  0  0  0  0  0  0  0  0  0
    0.0000   -0.5002    0.0000 C   0  0  0  0  0  0  0  0  0  0  0  0
   10.3748   -5.1471    0.0000 C   0  0  0  0  0  0  0  0  0  0  0  0
   11.5204   -5.8086    0.0000 C   0  0  0  0  0  0  0  0  0  0  0  0
  1  2  1  0  0  0  0
  2  3  2  0  0  0  0
  2  4  1  0  0  0  0
  4  5  1  0  0  0  0
  5  6  2  0  0  0  0
  5 26  1  0  0  0  0
  6  7  1  0  0  0  0
  7  8  2  0  0  0  0
  8  9  1  0  0  0  0
  8 25  1  0  0  0  0
  9 10  1  0  0  0  0
 10 11  2  0  0  0  0
 10 12  1  0  0  0  0
 12 13  1  0  0  0  0
 13 14  2  0  0  0  0
 13 15  1  0  0  0  0
 15 16  2  0  0  0  0
 15 20  1  0  0  0  0
 16 17  1  0  0  0  0
 17 18  2  0  0  0  0
 18 19  1  0  0  0  0
 18 21  1  0  0  0  0
 19 20  2  0  0  0  0
 21 22  1  0  0  0  0
 21 23  1  0  0  0  0
 21 24  1  0  0  0  0
 25 26  2  0  0  0  0
M  END
> <ID>
12079

> <Formula>
C20H23N3O2S

> <FW>
369.4805

> <DSSTox_CID>
26920

> <DSSTox_RID>
82016

> <DSSTox_GSID>
46920

> <DSSTox_FileID_Sort>
6697

> <TS_ChemName>
Tenovin-1

> <TS_ChemName_Synonyms>


> <TS_CASRN>
380315-80-0

> <CASRN_ChemName_Relationship>
primary

> <TS_Description>
single chemical compound

> <ChemNote>


> <STRUCTURE_Shown>
tested chemical

> <STRUCTURE_Formula>
C20H23N3O2S

> <STRUCTURE_MW>
369.4805

> <STRUCTURE_ChemType>
defined organic

> <STRUCTURE_DefinedOrganicForm>
parent

> <STRUCTURE_IUPAC>
N-{[4-(acetylamino)phenyl]carbamothioyl}-4-tert-butylbenzamide

> <STRUCTURE_SMILES>
S=C(Nc1ccc(cc1)NC(C)=O)NC(=O)c2ccc(cc2)C(C)(C)C

> <STRUCTURE_SMILES_Desalt>
S=C(Nc1ccc(cc1)NC(C)=O)NC(=O)c2ccc(cc2)C(C)(C)C

> <Substance_modify_yyyymmdd>
20110725

$$$$
