3804-89-5
ChemmineR-0915142007XD

 16 15  0  0  0  0  0  0  0  0  2 V2000
    8.0483   -2.7198    0.0000 S    0  0  0  0  0  0  0  0  0  0  0  0
    6.9058   -2.0424    0.0000 C    0  0  0  0  0  0  0  0  0  0  0  0
    3.4478   -2.6592    0.0000 C    0  0  0  0  0  0  0  0  0  0  0  0
    8.7460   -1.5672    0.0000 O    0  0  0  0  0  0  0  0  0  0  0  0
    7.3709   -3.8624    0.0000 O    0  0  0  0  0  0  0  0  0  0  0  0
    5.7430   -2.6895    0.0000 N    0  0  0  0  0  0  0  0  0  0  0  0
    4.6005   -2.0121    0.0000 N    0  0  0  0  0  0  0  0  0  0  0  0
    3.4276   -3.9938    0.0000 O    0  0  0  0  0  0  0  0  0  0  0  0
    0.0000   -0.6572    0.0000 N    0  0  0  0  0  0  0  0  0  0  0  0
    9.2111   -3.3973    0.0000 O    0  5  0  0  0  0  0  0  0  0  0  0
    2.3053   -1.9817    0.0000 C    0  0  0  0  0  0  0  0  0  0  0  0
    1.1628    0.0000    0.0000 C    0  0  0  0  0  0  0  0  0  0  0  0
    0.0000   -1.9817    0.0000 C    0  0  0  0  0  0  0  0  0  0  0  0
    2.3053   -0.6572    0.0000 C    0  0  0  0  0  0  0  0  0  0  0  0
    1.1628   -2.6390    0.0000 C    0  0  0  0  0  0  0  0  0  0  0  0
   10.1110   -2.2042    0.0000 Na   0  3  0  0  0  0  0  0  0  0  0  0
  1  2  1  0  0  0  0
  1  4  2  0  0  0  0
  1  5  2  0  0  0  0
  1 10  1  0  0  0  0
  2  6  1  0  0  0  0
  3  7  1  0  0  0  0
  3  8  2  0  0  0  0
  3 11  1  0  0  0  0
  6  7  1  0  0  0  0
  9 13  2  0  0  0  0
  9 12  1  0  0  0  0
 11 14  1  0  0  0  0
 11 15  2  0  0  0  0
 12 14  2  0  0  0  0
 13 15  1  0  0  0  0
M  END
> <ID>
12051

> <Formula>
C7H8N3NaO4S

> <FW>
253.2109 (230.2217+22.9892)

> <DSSTox_CID>
26885

> <DSSTox_RID>
81988

> <DSSTox_GSID>
46885

> <DSSTox_FileID_Sort>
6669

> <TS_ChemName>
Isoniazid sodium methanesulfonate

> <TS_ChemName_Synonyms>


> <TS_CASRN>
3804-89-5

> <CASRN_ChemName_Relationship>
primary

> <TS_Description>
single chemical compound

> <ChemNote>
parent [13447-95-5]

> <STRUCTURE_Shown>
tested chemical

> <STRUCTURE_Formula>
C7H8N3NaO4S

> <STRUCTURE_MW>
253.2109

> <STRUCTURE_ChemType>
defined organic

> <STRUCTURE_DefinedOrganicForm>
salt

> <STRUCTURE_IUPAC>
sodium [2-(pyridin-4-ylcarbonyl)hydrazinyl]methanesulfonate

> <STRUCTURE_SMILES>
[Na+].O=C(NNCS([O-])(=O)=O)c1ccncc1

> <STRUCTURE_SMILES_Desalt>
O=C(NNCS(=O)(=O)O)c1ccncc1

> <Substance_modify_yyyymmdd>
20110727

$$$$
