38051-02-4
ChemmineR-0915142007XD

 38 39  0  0  0  0  0  0  0  0  2 V2000
    9.9787   -1.1514    0.0000 N    0  3  0  0  0  0  0  0  0  0  0  0
   10.6343    0.0000    0.0000 C    0  0  0  0  0  0  0  0  0  0  0  0
   10.6343   -2.2868    0.0000 C    0  0  0  0  0  0  0  0  0  0  0  0
   11.9616   -2.2868    0.0000 C    0  0  0  0  0  0  0  0  0  0  0  0
   11.9616    0.0000    0.0000 C    0  0  0  0  0  0  0  0  0  0  0  0
   12.6492   -1.1514    0.0000 C    0  0  0  0  0  0  0  0  0  0  0  0
    8.6514   -1.1514    0.0000 C    0  0  0  0  0  0  0  0  0  0  0  0
    7.9797   -2.2868    0.0000 C    0  0  0  0  0  0  0  0  0  0  0  0
    6.6524   -2.2868    0.0000 N    0  0  0  0  0  0  0  0  0  0  0  0
    5.9968   -3.4382    0.0000 S    0  0  0  0  0  0  0  0  0  0  0  0
    4.8454   -2.7825    0.0000 O    0  0  0  0  0  0  0  0  0  0  0  0
    7.1482   -4.1258    0.0000 O    0  0  0  0  0  0  0  0  0  0  0  0
    5.3252   -6.9083    0.0000 C    0  0  0  0  0  0  0  0  0  0  0  0
    3.9979   -6.9083    0.0000 C    0  0  0  0  0  0  0  0  0  0  0  0
    3.3262   -5.7569    0.0000 C    0  0  0  0  0  0  0  0  0  0  0  0
    3.9979   -4.6055    0.0000 C    0  0  0  0  0  0  0  0  0  0  0  0
    5.3252   -4.6055    0.0000 C    0  0  0  0  0  0  0  0  0  0  0  0
    5.9968   -5.7569    0.0000 C    0  0  0  0  0  0  0  0  0  0  0  0
    1.9989   -5.7569    0.0000 N    0  0  0  0  0  0  0  0  0  0  0  0
    1.3273   -4.6055    0.0000 C    0  0  0  0  0  0  0  0  0  0  0  0
    0.0000   -4.6055    0.0000 C    0  0  0  0  0  0  0  0  0  0  0  0
    1.3273   -6.9083    0.0000 C    0  0  0  0  0  0  0  0  0  0  0  0
    1.9989   -8.0597    0.0000 C    0  0  0  0  0  0  0  0  0  0  0  0
    8.6674   -5.7569    0.0000 N    0  0  0  0  0  0  0  0  0  0  0  0
    7.3241   -5.7569    0.0000 N    0  0  0  0  0  0  0  0  0  0  0  0
   11.9936   -4.6055    0.0000 C    0  0  0  0  0  0  0  0  0  0  0  0
   12.6652   -5.7569    0.0000 C    0  0  0  0  0  0  0  0  0  0  0  0
   11.9936   -6.9083    0.0000 C    0  0  0  0  0  0  0  0  0  0  0  0
   10.6663   -6.9083    0.0000 C    0  0  0  0  0  0  0  0  0  0  0  0
    9.9947   -5.7569    0.0000 C    0  0  0  0  0  0  0  0  0  0  0  0
   10.6663   -4.6055    0.0000 C    0  0  0  0  0  0  0  0  0  0  0  0
   13.9925   -5.7569    0.0000 S    0  0  0  0  0  0  0  0  0  0  0  0
   13.9925   -7.0842    0.0000 O    0  0  0  0  0  0  0  0  0  0  0  0
   13.9925   -4.4296    0.0000 O    0  0  0  0  0  0  0  0  0  0  0  0
   15.3198   -5.7569    0.0000 N    0  0  0  0  0  0  0  0  0  0  0  0
   15.9914   -6.9083    0.0000 C    0  0  0  0  0  0  0  0  0  0  0  0
   15.9914   -4.6055    0.0000 C    0  0  0  0  0  0  0  0  0  0  0  0
    8.1237   -0.2719    0.0000 Cl   0  5  0  0  0  0  0  0  0  0  0  0
  1  2  2  0  0  0  0
  1  3  1  0  0  0  0
  1  7  1  0  0  0  0
  2  5  1  0  0  0  0
  3  4  2  0  0  0  0
  4  6  1  0  0  0  0
  5  6  2  0  0  0  0
  7  8  1  0  0  0  0
  8  9  1  0  0  0  0
  9 10  1  0  0  0  0
 10 11  2  0  0  0  0
 10 12  2  0  0  0  0
 10 17  1  0  0  0  0
 13 18  2  0  0  0  0
 13 14  1  0  0  0  0
 14 15  2  0  0  0  0
 15 16  1  0  0  0  0
 15 19  1  0  0  0  0
 16 17  2  0  0  0  0
 17 18  1  0  0  0  0
 18 25  1  0  0  0  0
 19 20  1  0  0  0  0
 19 22  1  0  0  0  0
 20 21  1  0  0  0  0
 22 23  1  0  0  0  0
 24 30  1  0  0  0  0
 24 25  2  0  0  0  0
 26 31  2  0  0  0  0
 26 27  1  0  0  0  0
 27 28  2  0  0  0  0
 27 32  1  0  0  0  0
 28 29  1  0  0  0  0
 29 30  2  0  0  0  0
 30 31  1  0  0  0  0
 32 33  2  0  0  0  0
 32 34  2  0  0  0  0
 32 35  1  0  0  0  0
 35 36  1  0  0  0  0
 35 37  1  0  0  0  0
M  END
> <ID>
13608

> <Formula>
C25H33ClN6O4S2

> <FW>
581.1503 (545.6968+35.4535)

> <DSSTox_CID>
28537

> <DSSTox_RID>
82809

> <DSSTox_GSID>
48611

> <DSSTox_FileID_Sort>
7486

> <TS_ChemName>
1-[2-({[5-Diethylamino)-2-{[4-(dimethylsulfamoyl)phenyl]diazenyl}phenyl]sulfonyl}amino)ethyl]pyridinium chloride

> <TS_ChemName_Synonyms>
ORANGE OIL

> <TS_CASRN>
38051-02-4

> <CASRN_ChemName_Relationship>
primary

> <TS_Description>
single chemical compound

> <ChemNote>
ammonium; parent [742001-51-0]

> <STRUCTURE_Shown>
tested chemical

> <STRUCTURE_Formula>
C25H33ClN6O4S2

> <STRUCTURE_MW>
581.1503

> <STRUCTURE_ChemType>
defined organic

> <STRUCTURE_DefinedOrganicForm>
salt

> <STRUCTURE_IUPAC>
1-[2-({[5-(diethylamino)-2-{[4-(dimethylsulfamoyl)phenyl]diazenyl}phenyl]sulfonyl}amino)ethyl]pyridinium chloride

> <STRUCTURE_SMILES>
[Cl-].CN(C)S(=O)(=O)c1ccc(cc1)/N=N/c2ccc(cc2S(=O)(=O)NCC[n+]3ccccc3)N(CC)CC

> <STRUCTURE_SMILES_Desalt>
CN(C)S(=O)(=O)c1ccc(cc1)/N=N/c2ccc(cc2S(=O)(=O)NCC[n+]3ccccc3)N(CC)CC

> <Substance_modify_yyyymmdd>
20111015

$$$$
