38083-17-9
ChemmineR-0915142007XD

 20 21  0  0  0  0  0  0  0  0  1 V2000
    5.7692   -1.9967    0.0000 C    0  0  0  0  0  0  0  0  0  0  0  0
    5.7692   -3.3217    0.0000 N    0  0  0  0  0  0  0  0  0  0  0  0
    4.6007   -1.3250    0.0000 O    0  0  0  0  0  0  0  0  0  0  0  0
    6.9010   -1.3250    0.0000 C    0  0  0  0  0  0  0  0  0  0  0  0
    6.8182   -4.0854    0.0000 C    0  0  0  0  0  0  0  0  0  0  0  0
    4.6835   -4.0854    0.0000 C    0  0  0  0  0  0  0  0  0  0  0  0
    3.4689   -1.9967    0.0000 C    0  0  0  0  0  0  0  0  0  0  0  0
    8.0696   -1.9967    0.0000 C    0  0  0  0  0  0  0  0  0  0  0  0
    6.9010    0.0000    0.0000 O    0  0  0  0  0  0  0  0  0  0  0  0
    6.4225   -5.3644    0.0000 C    0  0  0  0  0  0  0  0  0  0  0  0
    5.0975   -5.3644    0.0000 N    0  0  0  0  0  0  0  0  0  0  0  0
    3.4689   -3.3217    0.0000 C    0  0  0  0  0  0  0  0  0  0  0  0
    2.3003   -1.3250    0.0000 C    0  0  0  0  0  0  0  0  0  0  0  0
    8.7229   -0.8281    0.0000 C    0  0  0  0  0  0  0  0  0  0  0  0
    9.2013   -2.6500    0.0000 C    0  0  0  0  0  0  0  0  0  0  0  0
    7.3979   -3.1469    0.0000 C    0  0  0  0  0  0  0  0  0  0  0  0
    2.3003   -3.9934    0.0000 C    0  0  0  0  0  0  0  0  0  0  0  0
    1.1502   -1.9967    0.0000 C    0  0  0  0  0  0  0  0  0  0  0  0
    1.1502   -3.3217    0.0000 C    0  0  0  0  0  0  0  0  0  0  0  0
    0.0000   -3.9934    0.0000 Cl   0  0  0  0  0  0  0  0  0  0  0  0
  1  2  1  0  0  0  0
  1  3  1  0  0  0  0
  1  4  1  0  0  0  0
  2  5  1  0  0  0  0
  2  6  1  0  0  0  0
  3  7  1  0  0  0  0
  4  8  1  0  0  0  0
  4  9  2  0  0  0  0
  5 10  2  0  0  0  0
  6 11  2  0  0  0  0
  7 12  1  0  0  0  0
  7 13  2  0  0  0  0
  8 14  1  0  0  0  0
  8 15  1  0  0  0  0
  8 16  1  0  0  0  0
 10 11  1  0  0  0  0
 12 17  2  0  0  0  0
 13 18  1  0  0  0  0
 17 19  1  0  0  0  0
 18 19  2  0  0  0  0
 19 20  1  0  0  0  0
M  END
> <ID>
11781

> <Formula>
C15H17ClN2O2

> <FW>
292.7607

> <DSSTox_CID>
26555

> <DSSTox_RID>
81715

> <DSSTox_GSID>
46555

> <DSSTox_FileID_Sort>
6396

> <TS_ChemName>
Climbazole

> <TS_ChemName_Synonyms>


> <TS_CASRN>
38083-17-9

> <CASRN_ChemName_Relationship>
primary

> <TS_Description>
single chemical compound

> <ChemNote>
tautomers

> <STRUCTURE_Shown>
tested chemical

> <STRUCTURE_Formula>
C15H17ClN2O2

> <STRUCTURE_MW>
292.7607

> <STRUCTURE_ChemType>
defined organic

> <STRUCTURE_DefinedOrganicForm>
parent

> <STRUCTURE_IUPAC>
1-(4-chlorophenoxy)-1-(1H-imidazol-1-yl)-3,3-dimethylbutan-2-one

> <STRUCTURE_SMILES>
CC(C)(C)C(=O)C(Oc1ccc(Cl)cc1)n2ccnc2

> <STRUCTURE_SMILES_Desalt>
CC(C)(C)C(=O)C(Oc1ccc(Cl)cc1)n2ccnc2

> <Substance_modify_yyyymmdd>
20110811

$$$$
