38090-53-8
ChemmineR-0915142007XD

  7  6  0  0  0  0  0  0  0  0  1 V2000
    0.0000   -1.3314    0.0000 N   0  0  0  0  0  0  0  0  0  0  0  0
    1.1527   -1.9942    0.0000 C   0  0  0  0  0  0  0  0  0  0  0  0
    2.3055   -1.3314    0.0000 C   0  0  0  0  0  0  0  0  0  0  0  0
    3.4582   -1.9942    0.0000 C   0  0  0  0  0  0  0  0  0  0  0  0
    4.6110   -1.3314    0.0000 C   0  0  0  0  0  0  0  0  0  0  0  0
    5.7637   -1.9942    0.0000 O   0  0  0  0  0  0  0  0  0  0  0  0
    4.6110    0.0000    0.0000 O   0  0  0  0  0  0  0  0  0  0  0  0
  1  2  1  0  0  0  0
  2  3  1  0  0  0  0
  3  4  2  0  0  0  0
  4  5  1  0  0  0  0
  5  6  1  0  0  0  0
  5  7  2  0  0  0  0
M  END
> <ID>
11094

> <Formula>
C4H7NO2

> <FW>
101.1039

> <DSSTox_CID>
25648

> <DSSTox_RID>
81026

> <DSSTox_GSID>
45648

> <DSSTox_FileID_Sort>
5707

> <TS_ChemName>
(E)-4-amino-2-butenoic acid

> <TS_ChemName_Synonyms>


> <TS_CASRN>
38090-53-8

> <CASRN_ChemName_Relationship>
primary

> <TS_Description>
single chemical compound

> <ChemNote>
stereochem

> <STRUCTURE_Shown>
tested chemical

> <STRUCTURE_Formula>
C4H7NO2

> <STRUCTURE_MW>
101.1039

> <STRUCTURE_ChemType>
defined organic

> <STRUCTURE_DefinedOrganicForm>
parent

> <STRUCTURE_IUPAC>
(2E)-4-aminobut-2-enoic acid

> <STRUCTURE_SMILES>
NC\C=C\C(=O)O

> <STRUCTURE_SMILES_Desalt>
NC\C=C\C(=O)O

> <Substance_modify_yyyymmdd>
20100107

$$$$
