38099-82-0
ChemmineR-0915142007XD

 23 20  0  0  1  0  0  0  0  0  2 V2000
    5.0774   -2.7309    0.0000 C    0  0  0  0  0  0  0  0  0  0  0  0
    6.1512   -1.9488    0.0000 O    0  0  0  0  0  0  0  0  0  0  0  0
    5.4883   -3.9903    0.0000 C    0  0  0  0  0  0  0  0  0  0  0  0
    7.2250   -2.7309    0.0000 C    0  0  0  0  0  0  0  0  0  0  0  0
    6.8140   -3.9903    0.0000 C    0  0  0  0  0  0  0  0  0  0  0  0
    7.5962   -5.0774    0.0000 O    0  0  0  0  0  0  0  0  0  0  0  0
    4.6929   -5.0774    0.0000 O    0  0  0  0  0  0  0  0  0  0  0  0
    3.8180   -2.3332    0.0000 C    0  0  0  0  0  0  0  0  0  0  0  0
    2.8237   -3.2082    0.0000 O    0  0  0  0  0  0  0  0  0  0  0  0
    8.1264   -1.7366    0.0000 C    0  0  0  0  0  0  0  0  0  0  0  0
    8.5242   -3.0623    0.0000 O    0  0  0  0  0  0  0  0  0  0  0  0
    9.4124   -2.0150    0.0000 O    0  0  0  0  0  0  0  0  0  0  0  0
    1.5511   -2.7839    0.0000 P    0  0  0  0  0  0  0  0  0  0  0  0
    0.2917   -2.3862    0.0000 O    0  0  0  0  0  0  0  0  0  0  0  0
    1.1268   -4.0566    0.0000 O    0  0  0  0  0  0  0  0  0  0  0  0
    1.9620   -1.5378    0.0000 O    0  5  0  0  0  0  0  0  0  0  0  0
   10.3006   -1.0208    0.0000 P    0  0  0  0  0  0  0  0  0  0  0  0
   11.1888   -0.0398    0.0000 O    0  0  0  0  0  0  0  0  0  0  0  0
    9.3196   -0.1458    0.0000 O    0  5  0  0  0  0  0  0  0  0  0  0
   11.2948   -1.9355    0.0000 O    0  5  0  0  0  0  0  0  0  0  0  0
    0.0000   -1.0075    0.0000 Na   0  3  0  0  0  0  0  0  0  0  0  0
    7.5299    0.0000    0.0000 Na   0  3  0  0  0  0  0  0  0  0  0  0
   13.2569   -2.0416    0.0000 Na   0  3  0  0  0  0  0  0  0  0  0  0
  1  2  1  0  0  0  0
  1  3  1  0  0  0  0
  1  8  1  1  0  0  0
  2  4  1  0  0  0  0
  3  5  1  0  0  0  0
  3  7  1  6  0  0  0
  4  5  1  0  0  0  0
  4 10  1  6  0  0  0
  4 11  1  1  0  0  0
  5  6  1  1  0  0  0
  8  9  1  0  0  0  0
  9 13  1  0  0  0  0
 10 12  1  0  0  0  0
 12 17  1  0  0  0  0
 13 14  2  0  0  0  0
 13 15  1  0  0  0  0
 13 16  1  0  0  0  0
 17 18  2  0  0  0  0
 17 19  1  0  0  0  0
 17 20  1  0  0  0  0
M  END
> <ID>
11821

> <Formula>
C6H11Na3O12P2

> <FW>
406.0612 (337.0935+22.9892+22.9892+22.9892)

> <DSSTox_CID>
26601

> <DSSTox_RID>
81756

> <DSSTox_GSID>
46601

> <DSSTox_FileID_Sort>
6437

> <TS_ChemName>
D-Fructose 1,6-bisphosphate trisodium

> <TS_ChemName_Synonyms>


> <TS_CASRN>
38099-82-0

> <CASRN_ChemName_Relationship>
primary

> <TS_Description>
single chemical compound

> <ChemNote>
stereochem; parent [488-69-7]

> <STRUCTURE_Shown>
tested chemical

> <STRUCTURE_Formula>
C6H11Na3O12P2

> <STRUCTURE_MW>
406.0612

> <STRUCTURE_ChemType>
defined organic

> <STRUCTURE_DefinedOrganicForm>
salt

> <STRUCTURE_IUPAC>
trisodium 6-O-(hydroxyphosphinato)-1-O-phosphonato-beta-D-fructofuranose

> <STRUCTURE_SMILES>
[Na+].[Na+].[Na+].O[C@]1(COP([O-])([O-])=O)O[C@H](COP([O-])(=O)O)[C@@H](O)[C@@H]1O

> <STRUCTURE_SMILES_Desalt>
O[C@]1(COP(=O)(O)O)O[C@H](COP(=O)(O)O)[C@@H](O)[C@@H]1O

> <Substance_modify_yyyymmdd>
20110809

$$$$
