3810-80-8
ChemmineR-0915142007XD

 35 37  0  0  0  0  0  0  0  0  1 V2000
    7.6024   -7.3901    0.0000 Cl   0  0  0  0  0  0  0  0  0  0  0  0
   13.2676   -5.5724    0.0000 C    0  0  0  0  0  0  0  0  0  0  0  0
   13.0421   -6.8992    0.0000 C    0  0  0  0  0  0  0  0  0  0  0  0
   11.7949   -7.3370    0.0000 C    0  0  0  0  0  0  0  0  0  0  0  0
   10.7866   -6.4879    0.0000 C    0  0  0  0  0  0  0  0  0  0  0  0
   10.9989   -5.1744    0.0000 C    0  0  0  0  0  0  0  0  0  0  0  0
    9.9773   -4.3120    0.0000 C    0  0  0  0  0  0  0  0  0  0  0  0
   10.9989   -3.4629    0.0000 C    0  0  0  0  0  0  0  0  0  0  0  0
   12.2460   -3.9272    0.0000 O    0  0  0  0  0  0  0  0  0  0  0  0
   10.7866   -2.1626    0.0000 O    0  0  0  0  0  0  0  0  0  0  0  0
   11.7949   -1.3135    0.0000 C    0  0  0  0  0  0  0  0  0  0  0  0
   11.5561    0.0000    0.0000 C    0  0  0  0  0  0  0  0  0  0  0  0
    9.3271   -5.4663    0.0000 C    0  0  0  0  0  0  0  0  0  0  0  0
    7.9871   -5.4663    0.0000 C    0  0  0  0  0  0  0  0  0  0  0  0
    7.3370   -4.3120    0.0000 N    0  0  0  0  0  0  0  0  0  0  0  0
    5.9837   -4.3120    0.0000 C    0  0  0  0  0  0  0  0  0  0  0  0
    5.3203   -3.1577    0.0000 C    0  0  0  0  0  0  0  0  0  0  0  0
    3.9936   -3.1577    0.0000 C    0  0  0  0  0  0  0  0  0  0  0  0
    3.9936   -1.8442    0.0000 C    0  0  0  0  0  0  0  0  0  0  0  0
    3.9936   -0.5042    0.0000 N    0  0  0  0  0  0  0  0  0  0  0  0
    3.9936   -4.4977    0.0000 C    0  0  0  0  0  0  0  0  0  0  0  0
    5.1478   -5.1611    0.0000 C    0  0  0  0  0  0  0  0  0  0  0  0
    5.1478   -6.4879    0.0000 C    0  0  0  0  0  0  0  0  0  0  0  0
    3.9936   -7.1513    0.0000 C    0  0  0  0  0  0  0  0  0  0  0  0
    2.8393   -6.4879    0.0000 C    0  0  0  0  0  0  0  0  0  0  0  0
    2.8393   -5.1611    0.0000 C    0  0  0  0  0  0  0  0  0  0  0  0
    2.6668   -3.1577    0.0000 C    0  0  0  0  0  0  0  0  0  0  0  0
    1.9901   -4.3120    0.0000 C    0  0  0  0  0  0  0  0  0  0  0  0
    0.6634   -4.3120    0.0000 C    0  0  0  0  0  0  0  0  0  0  0  0
    0.0000   -3.1577    0.0000 C    0  0  0  0  0  0  0  0  0  0  0  0
    0.6634   -2.0167    0.0000 C    0  0  0  0  0  0  0  0  0  0  0  0
    1.9901   -2.0167    0.0000 C    0  0  0  0  0  0  0  0  0  0  0  0
    7.9871   -3.1577    0.0000 C    0  0  0  0  0  0  0  0  0  0  0  0
    9.3271   -3.1577    0.0000 C    0  0  0  0  0  0  0  0  0  0  0  0
   12.2460   -4.7100    0.0000 C    0  0  0  0  0  0  0  0  0  0  0  0
  2  3  2  0  0  0  0
  2 35  1  0  0  0  0
  3  4  1  0  0  0  0
  4  5  2  0  0  0  0
  5  6  1  0  0  0  0
  6  7  1  0  0  0  0
  6 35  2  0  0  0  0
  7  8  1  0  0  0  0
  7 13  1  0  0  0  0
  7 34  1  0  0  0  0
  8  9  2  0  0  0  0
  8 10  1  0  0  0  0
 10 11  1  0  0  0  0
 11 12  1  0  0  0  0
 13 14  1  0  0  0  0
 14 15  1  0  0  0  0
 15 16  1  0  0  0  0
 15 33  1  0  0  0  0
 16 17  1  0  0  0  0
 17 18  1  0  0  0  0
 18 19  1  0  0  0  0
 18 21  1  0  0  0  0
 18 27  1  0  0  0  0
 19 20  3  0  0  0  0
 21 22  2  0  0  0  0
 21 26  1  0  0  0  0
 22 23  1  0  0  0  0
 23 24  2  0  0  0  0
 24 25  1  0  0  0  0
 25 26  2  0  0  0  0
 27 28  2  0  0  0  0
 27 32  1  0  0  0  0
 28 29  1  0  0  0  0
 29 30  2  0  0  0  0
 30 31  1  0  0  0  0
 31 32  2  0  0  0  0
 33 34  1  0  0  0  0
M  END
> <ID>
12920

> <Formula>
C30H33ClN2O2

> <FW>
489.0482 (36.4609+452.5873)

> <DSSTox_CID>
27821

> <DSSTox_RID>
82584

> <DSSTox_GSID>
47843

> <DSSTox_FileID_Sort>
7261

> <TS_ChemName>
Diphenoxylate hydrochloride

> <TS_ChemName_Synonyms>


> <TS_CASRN>
3810-80-8

> <CASRN_ChemName_Relationship>
primary

> <TS_Description>
single chemical compound

> <ChemNote>
parent [915-30-0]

> <STRUCTURE_Shown>
tested chemical

> <STRUCTURE_Formula>
C30H33ClN2O2

> <STRUCTURE_MW>
489.0482

> <STRUCTURE_ChemType>
defined organic

> <STRUCTURE_DefinedOrganicForm>
complex

> <STRUCTURE_IUPAC>
ethyl 1-(3-cyano-3,3-diphenylpropyl)-4-phenylpiperidine-4-carboxylate hydrochloride (1:1)

> <STRUCTURE_SMILES>
Cl.O=C(OCC)C3(CCN(CCC(C#N)(c1ccccc1)c2ccccc2)CC3)c4ccccc4

> <STRUCTURE_SMILES_Desalt>
O=C(OCC)C3(CCN(CCC(C#N)(c1ccccc1)c2ccccc2)CC3)c4ccccc4

> <Substance_modify_yyyymmdd>
20110803

$$$$
