3810-74-0
ChemmineR-0915142007XD

 95 96  0  0  1  0  0  0  0  0  1 V2000
   11.6250   -4.9527    0.0000 O   0  0  0  0  0  0  0  0  0  0  0  0
   10.9715   -3.7833    0.0000 C   0  0  0  0  0  0  0  0  0  0  0  0
   11.6250   -2.6483    0.0000 C   0  0  0  0  0  0  0  0  0  0  0  0
   12.9664   -2.6483    0.0000 C   0  0  0  0  0  0  0  0  0  0  0  0
   13.6199   -3.7833    0.0000 C   0  0  0  0  0  0  0  0  0  0  0  0
   12.9664   -4.9527    0.0000 C   0  0  0  0  0  0  0  0  0  0  0  0
   13.6199   -6.0877    0.0000 C   0  0  0  0  0  0  0  0  0  0  0  0
   14.9612   -6.0877    0.0000 O   0  0  0  0  0  0  0  0  0  0  0  0
   14.9612   -3.7833    0.0000 O   0  0  0  0  0  0  0  0  0  0  0  0
   13.6199   -1.4789    0.0000 O   0  0  0  0  0  0  0  0  0  0  0  0
   10.9715   -1.4789    0.0000 N   0  0  0  0  0  0  0  0  0  0  0  0
   11.6250   -0.3439    0.0000 C   0  0  0  0  0  0  0  0  0  0  0  0
    9.6302   -3.7833    0.0000 O   0  0  0  0  0  0  0  0  0  0  0  0
    8.9767   -4.9527    0.0000 C   0  0  0  0  0  0  0  0  0  0  0  0
    9.5270   -6.1564    0.0000 C   0  0  0  0  0  0  0  0  0  0  0  0
    8.5296   -7.0507    0.0000 C   0  0  0  0  0  0  0  0  0  0  0  0
    7.3602   -6.3628    0.0000 O   0  0  0  0  0  0  0  0  0  0  0  0
    7.6354   -5.0902    0.0000 C   0  0  0  0  0  0  0  0  0  0  0  0
    6.7755   -4.0928    0.0000 O   0  0  0  0  0  0  0  0  0  0  0  0
    5.4686   -4.4368    0.0000 C   0  0  0  0  0  0  0  0  0  0  0  0
    5.1246   -5.7093    0.0000 C   0  0  0  0  0  0  0  0  0  0  0  0
    3.8521   -6.0533    0.0000 C   0  0  0  0  0  0  0  0  0  0  0  0
    2.9235   -5.1246    0.0000 C   0  0  0  0  0  0  0  0  0  0  0  0
    3.2674   -3.8521    0.0000 C   0  0  0  0  0  0  0  0  0  0  0  0
    4.5400   -3.5081    0.0000 C   0  0  0  0  0  0  0  0  0  0  0  0
    4.8839   -2.2012    0.0000 N   0  0  0  0  0  0  0  0  0  0  0  0
    3.9553   -1.2726    0.0000 C   0  0  0  0  0  0  0  0  0  0  0  0
    4.2992    0.0000    0.0000 N   0  0  0  0  0  0  0  0  0  0  0  0
    2.6483   -1.6165    0.0000 N   0  0  0  0  0  0  0  0  0  0  0  0
    2.3044   -2.8891    0.0000 O   0  0  0  0  0  0  0  0  0  0  0  0
    1.6165   -5.4686    0.0000 N   0  0  0  0  0  0  0  0  0  0  0  0
    1.2726   -6.7411    0.0000 C   0  0  0  0  0  0  0  0  0  0  0  0
    2.2356   -7.7042    0.0000 N   0  0  0  0  0  0  0  0  0  0  0  0
    0.0000   -7.0851    0.0000 N   0  0  0  0  0  0  0  0  0  0  0  0
    3.5081   -7.3602    0.0000 O   0  0  0  0  0  0  0  0  0  0  0  0
    6.0877   -6.6724    0.0000 O   0  0  0  0  0  0  0  0  0  0  0  0
    8.6672   -8.3576    0.0000 C   0  0  0  0  0  0  0  0  0  0  0  0
   10.6620   -5.5030    0.0000 C   0  0  0  0  0  0  0  0  0  0  0  0
   11.8314   -6.1564    0.0000 O   0  0  0  0  0  0  0  0  0  0  0  0
   10.2837   -7.2227    0.0000 O   0  0  0  0  0  0  0  0  0  0  0  0
   31.0574   -5.9501    0.0000 O   0  0  0  0  0  0  0  0  0  0  0  0
   30.4039   -4.7807    0.0000 C   0  0  0  0  0  0  0  0  0  0  0  0
   31.0574   -3.6457    0.0000 C   0  0  0  0  0  0  0  0  0  0  0  0
   32.3987   -3.6457    0.0000 C   0  0  0  0  0  0  0  0  0  0  0  0
   33.0522   -4.7807    0.0000 C   0  0  0  0  0  0  0  0  0  0  0  0
   32.3987   -5.9501    0.0000 C   0  0  0  0  0  0  0  0  0  0  0  0
   33.0522   -7.0851    0.0000 C   0  0  0  0  0  0  0  0  0  0  0  0
   34.3936   -7.0851    0.0000 O   0  0  0  0  0  0  0  0  0  0  0  0
   34.3936   -4.7807    0.0000 O   0  0  0  0  0  0  0  0  0  0  0  0
   33.0522   -2.4763    0.0000 O   0  0  0  0  0  0  0  0  0  0  0  0
   30.4039   -2.4763    0.0000 N   0  0  0  0  0  0  0  0  0  0  0  0
   31.0574   -1.3413    0.0000 C   0  0  0  0  0  0  0  0  0  0  0  0
   29.0626   -4.7807    0.0000 O   0  0  0  0  0  0  0  0  0  0  0  0
   28.4091   -5.9501    0.0000 C   0  0  0  0  0  0  0  0  0  0  0  0
   28.9594   -7.1539    0.0000 C   0  0  0  0  0  0  0  0  0  0  0  0
   27.9620   -8.0481    0.0000 C   0  0  0  0  0  0  0  0  0  0  0  0
   26.8270   -7.3602    0.0000 O   0  0  0  0  0  0  0  0  0  0  0  0
   27.1021   -6.0877    0.0000 C   0  0  0  0  0  0  0  0  0  0  0  0
   26.2079   -5.0902    0.0000 O   0  0  0  0  0  0  0  0  0  0  0  0
   24.9009   -5.4342    0.0000 C   0  0  0  0  0  0  0  0  0  0  0  0
   24.5570   -6.7067    0.0000 C   0  0  0  0  0  0  0  0  0  0  0  0
   23.2845   -7.0507    0.0000 C   0  0  0  0  0  0  0  0  0  0  0  0
   22.3558   -6.1221    0.0000 C   0  0  0  0  0  0  0  0  0  0  0  0
   22.6998   -4.8495    0.0000 C   0  0  0  0  0  0  0  0  0  0  0  0
   23.9723   -4.5056    0.0000 C   0  0  0  0  0  0  0  0  0  0  0  0
   24.3163   -3.1986    0.0000 N   0  0  0  0  0  0  0  0  0  0  0  0
   23.3876   -2.2700    0.0000 C   0  0  0  0  0  0  0  0  0  0  0  0
   23.7316   -0.9974    0.0000 N   0  0  0  0  0  0  0  0  0  0  0  0
   22.1151   -2.6139    0.0000 N   0  0  0  0  0  0  0  0  0  0  0  0
   21.7711   -3.8865    0.0000 O   0  0  0  0  0  0  0  0  0  0  0  0
   21.0833   -6.4660    0.0000 N   0  0  0  0  0  0  0  0  0  0  0  0
   20.7049   -7.7386    0.0000 C   0  0  0  0  0  0  0  0  0  0  0  0
   21.6680   -8.7016    0.0000 N   0  0  0  0  0  0  0  0  0  0  0  0
   19.4324   -8.0825    0.0000 N   0  0  0  0  0  0  0  0  0  0  0  0
   22.9405   -8.3576    0.0000 O   0  0  0  0  0  0  0  0  0  0  0  0
   25.5200   -7.6698    0.0000 O   0  0  0  0  0  0  0  0  0  0  0  0
   28.0996   -9.3551    0.0000 C   0  0  0  0  0  0  0  0  0  0  0  0
   30.0944   -6.5004    0.0000 C   0  0  0  0  0  0  0  0  0  0  0  0
   31.2638   -7.1539    0.0000 O   0  0  0  0  0  0  0  0  0  0  0  0
   29.7504   -8.2201    0.0000 O   0  0  0  0  0  0  0  0  0  0  0  0
   17.2312  -13.5167    0.0000 S   0  0  0  0  0  0  0  0  0  0  0  0
   15.9242  -13.5167    0.0000 O   0  0  0  0  0  0  0  0  0  0  0  0
   18.5725  -13.5167    0.0000 O   0  0  0  0  0  0  0  0  0  0  0  0
   17.2312  -12.2097    0.0000 O   0  0  0  0  0  0  0  0  0  0  0  0
   17.2312  -14.8580    0.0000 O   0  0  0  0  0  0  0  0  0  0  0  0
   26.8270  -13.5167    0.0000 S   0  0  0  0  0  0  0  0  0  0  0  0
   26.8270  -12.2097    0.0000 O   0  0  0  0  0  0  0  0  0  0  0  0
   25.4856  -13.5167    0.0000 O   0  0  0  0  0  0  0  0  0  0  0  0
   26.8270  -14.8580    0.0000 O   0  0  0  0  0  0  0  0  0  0  0  0
   28.1683  -13.5167    0.0000 O   0  0  0  0  0  0  0  0  0  0  0  0
    7.2227  -13.1040    0.0000 S   0  0  0  0  0  0  0  0  0  0  0  0
    7.2227  -11.7970    0.0000 O   0  0  0  0  0  0  0  0  0  0  0  0
    7.2227  -14.4453    0.0000 O   0  0  0  0  0  0  0  0  0  0  0  0
    8.5640  -13.1040    0.0000 O   0  0  0  0  0  0  0  0  0  0  0  0
    5.8813  -13.1040    0.0000 O   0  0  0  0  0  0  0  0  0  0  0  0
  1  2  1  0  0  0  0
  1  6  1  0  0  0  0
  2  3  1  0  0  0  0
  2 13  1  1  0  0  0
  3  4  1  0  0  0  0
  3 11  1  1  0  0  0
  4  5  1  0  0  0  0
  4 10  1  6  0  0  0
  5  6  1  0  0  0  0
  5  9  1  1  0  0  0
  6  7  1  6  0  0  0
  7  8  1  0  0  0  0
 11 12  1  0  0  0  0
 14 13  1  6  0  0  0
 14 15  1  0  0  0  0
 14 18  1  0  0  0  0
 15 16  1  0  0  0  0
 15 38  1  1  0  0  0
 15 40  1  6  0  0  0
 16 17  1  0  0  0  0
 16 37  1  6  0  0  0
 17 18  1  0  0  0  0
 18 19  1  1  0  0  0
 20 19  1  1  0  0  0
 20 21  1  0  0  0  0
 20 25  1  0  0  0  0
 21 22  1  0  0  0  0
 21 36  1  6  0  0  0
 22 23  1  0  0  0  0
 22 35  1  1  0  0  0
 23 24  1  0  0  0  0
 23 31  1  6  0  0  0
 24 25  1  0  0  0  0
 24 30  1  1  0  0  0
 25 26  1  6  0  0  0
 26 27  1  0  0  0  0
 27 28  1  0  0  0  0
 27 29  2  0  0  0  0
 31 32  1  0  0  0  0
 32 33  2  0  0  0  0
 32 34  1  0  0  0  0
 38 39  2  0  0  0  0
 41 42  1  0  0  0  0
 41 46  1  0  0  0  0
 42 43  1  0  0  0  0
 42 53  1  1  0  0  0
 43 44  1  0  0  0  0
 43 51  1  1  0  0  0
 44 45  1  0  0  0  0
 44 50  1  6  0  0  0
 45 46  1  0  0  0  0
 45 49  1  1  0  0  0
 46 47  1  6  0  0  0
 47 48  1  0  0  0  0
 51 52  1  0  0  0  0
 54 53  1  6  0  0  0
 54 55  1  0  0  0  0
 54 58  1  0  0  0  0
 55 56  1  0  0  0  0
 55 78  1  1  0  0  0
 55 80  1  6  0  0  0
 56 57  1  0  0  0  0
 56 77  1  6  0  0  0
 57 58  1  0  0  0  0
 58 59  1  1  0  0  0
 60 59  1  1  0  0  0
 60 61  1  0  0  0  0
 60 65  1  0  0  0  0
 61 62  1  0  0  0  0
 61 76  1  6  0  0  0
 62 63  1  0  0  0  0
 62 75  1  1  0  0  0
 63 64  1  0  0  0  0
 63 71  1  6  0  0  0
 64 65  1  0  0  0  0
 64 70  1  1  0  0  0
 65 66  1  6  0  0  0
 66 67  1  0  0  0  0
 67 68  1  0  0  0  0
 67 69  2  0  0  0  0
 71 72  1  0  0  0  0
 72 73  2  0  0  0  0
 72 74  1  0  0  0  0
 78 79  2  0  0  0  0
 81 85  1  0  0  0  0
 81 84  1  0  0  0  0
 81 82  2  0  0  0  0
 81 83  2  0  0  0  0
 86 89  1  0  0  0  0
 86 90  1  0  0  0  0
 86 88  2  0  0  0  0
 86 87  2  0  0  0  0
 91 94  2  0  0  0  0
 91 92  2  0  0  0  0
 91 95  1  0  0  0  0
 91 93  1  0  0  0  0
M  END
> <ID>
4518

> <Formula>
C42H84N14O36S3

> <FW>
1457.3836 (581.5741+581.5741+98.0785+98.0785+98.0785)

> <DSSTox_CID>
6053

> <DSSTox_RID>
77997

> <DSSTox_GSID>
26053

> <DSSTox_FileID_Sort>
2680

> <TS_ChemName>
Streptomycin sulfate (2:3)

> <TS_ChemName_Synonyms>


> <TS_CASRN>
3810-74-0

> <CASRN_ChemName_Relationship>
primary

> <TS_Description>
single chemical compound

> <ChemNote>
stereochem; tautomers; parent [57-92-1]

> <STRUCTURE_Shown>
tested chemical

> <STRUCTURE_Formula>
C42H84N14O36S3

> <STRUCTURE_MW>
1457.3836

> <STRUCTURE_ChemType>
defined organic

> <STRUCTURE_DefinedOrganicForm>
complex

> <STRUCTURE_IUPAC>
1,1'-[(1R,2R,3S,4R,5R,6S)-4-({5-deoxy-2-O-[2-deoxy-2-(methylamino)-alpha-L-glucopyranosyl]-3-C-formyl-alpha-L-lyxofuranosyl}oxy)-2,5,6-trihydroxycyclohexane-1,3-diyl]diguanidine sulfate (2:3)

> <STRUCTURE_SMILES>
O=S(=O)(O)O.O=S(=O)(O)O.O=S(=O)(O)O.N=C(N)N[C@H]3[C@H](O)[C@@H](NC(=N)N)[C@H](O)[C@@H](O)[C@@H]3O[C@@H]2O[C@@H](C)[C@](O)(C=O)[C@H]2O[C@@H]1O[C@@H](CO)[C@H](O)[C@@H](O)[C@@H]1NC.N=C(N)N[C@H]3[C@H](O)[C@@H](NC(=N)N)[C@H](O)[C@@H](O)[C@@H]3O[C@@H]2O[C@@H](C

> <STRUCTURE_SMILES_Desalt>
N=C(N)N[C@H]3[C@H](O)[C@@H](NC(=N)N)[C@H](O)[C@@H](O)[C@@H]3O[C@@H]2O[C@@H](C)[C@](O)(C=O)[C@H]2O[C@@H]1O[C@@H](CO)[C@H](O)[C@@H](O)[C@@H]1NC

> <Substance_modify_yyyymmdd>
20080429

$$$$
