3810-35-3
ChemmineR-0915142007XD

 16 17  0  0  0  0  0  0  0  0  2 V2000
    7.4499   -1.9009    0.0000 C   0  0  0  0  0  0  0  0  0  0  0  0
    6.3938   -1.2768    0.0000 S   0  0  0  0  0  0  0  0  0  0  0  0
    5.3186   -1.8817    0.0000 C   0  0  0  0  0  0  0  0  0  0  0  0
    8.5155   -1.2672    0.0000 N   0  3  0  0  0  0  0  0  0  0  0  0
    4.2530   -1.2672    0.0000 N   0  0  0  0  0  0  0  0  0  0  0  0
    5.3186   -3.1201    0.0000 N   0  0  0  0  0  0  0  0  0  0  0  0
    3.1969   -1.8721    0.0000 C   0  0  0  0  0  0  0  0  0  0  0  0
    7.4499   -3.1201    0.0000 C   0  0  0  0  0  0  0  0  0  0  0  0
    2.1025   -1.2192    0.0000 C   0  0  0  0  0  0  0  0  0  0  0  0
    1.0560   -1.8241    0.0000 S   0  0  0  0  0  0  0  0  0  0  0  0
    9.6004   -1.8529    0.0000 O   0  5  0  0  0  0  0  0  0  0  0  0
    8.5155   -0.0576    0.0000 O   0  0  0  0  0  0  0  0  0  0  0  0
    3.1969   -3.0721    0.0000 O   0  0  0  0  0  0  0  0  0  0  0  0
    2.1025   -0.0096    0.0000 C   0  0  0  0  0  0  0  0  0  0  0  0
    0.0000   -1.2192    0.0000 C   0  0  0  0  0  0  0  0  0  0  0  0
    0.0000    0.0000    0.0000 C   0  0  0  0  0  0  0  0  0  0  0  0
  1  2  1  0  0  0  0
  1  4  1  0  0  0  0
  1  8  2  0  0  0  0
  2  3  1  0  0  0  0
  3  5  1  0  0  0  0
  3  6  2  0  0  0  0
  4 11  1  0  0  0  0
  4 12  2  0  0  0  0
  5  7  1  0  0  0  0
  6  8  1  0  0  0  0
  7  9  1  0  0  0  0
  7 13  2  0  0  0  0
  9 10  1  0  0  0  0
  9 14  2  0  0  0  0
 10 15  1  0  0  0  0
 14 16  1  0  0  0  0
 15 16  2  0  0  0  0
M  END
> <ID>
11571

> <Formula>
C8H5N3O3S2

> <FW>
255.2736

> <DSSTox_CID>
26277

> <DSSTox_RID>
81504

> <DSSTox_GSID>
46277

> <DSSTox_FileID_Sort>
6185

> <TS_ChemName>
Tenonitrozole

> <TS_ChemName_Synonyms>


> <TS_CASRN>
3810-35-3

> <CASRN_ChemName_Relationship>
primary

> <TS_Description>
single chemical compound

> <ChemNote>


> <STRUCTURE_Shown>
tested chemical

> <STRUCTURE_Formula>
C8H5N3O3S2

> <STRUCTURE_MW>
255.2736

> <STRUCTURE_ChemType>
defined organic

> <STRUCTURE_DefinedOrganicForm>
parent

> <STRUCTURE_IUPAC>
N-(5-nitro-1,3-thiazol-2-yl)thiophene-2-carboxamide

> <STRUCTURE_SMILES>
O=C(Nc1ncc(s1)[N+]([O-])=O)c2cccs2

> <STRUCTURE_SMILES_Desalt>
O=C(Nc1ncc(s1)[N+]([O-])=O)c2cccs2

> <Substance_modify_yyyymmdd>
20110815

$$$$
