38103-61-6
ChemmineR-0915142007XD

 25 26  0  0  0  0  0  0  0  0  1 V2000
   14.9347   -3.9791    0.0000 C   0  0  0  0  0  0  0  0  0  0  0  0
   16.0716   -3.2901    0.0000 C   0  0  0  0  0  0  0  0  0  0  0  0
   13.7806   -3.2901    0.0000 O   0  0  0  0  0  0  0  0  0  0  0  0
   14.9347   -5.3055    0.0000 C   0  0  0  0  0  0  0  0  0  0  0  0
   17.2257   -3.9791    0.0000 C   0  0  0  0  0  0  0  0  0  0  0  0
   16.0716   -1.9637    0.0000 C   0  0  0  0  0  0  0  0  0  0  0  0
   12.6264   -3.9791    0.0000 C   0  0  0  0  0  0  0  0  0  0  0  0
   16.0716   -5.9429    0.0000 C   0  0  0  0  0  0  0  0  0  0  0  0
   17.2257   -5.3055    0.0000 C   0  0  0  0  0  0  0  0  0  0  0  0
   11.4895   -3.2901    0.0000 C   0  0  0  0  0  0  0  0  0  0  0  0
   10.3354   -3.9791    0.0000 C   0  0  0  0  0  0  0  0  0  0  0  0
   11.4895   -1.9637    0.0000 O   0  0  0  0  0  0  0  0  0  0  0  0
    9.1813   -3.2901    0.0000 N   0  0  0  0  0  0  0  0  0  0  0  0
    8.0444   -3.9791    0.0000 C   0  0  0  0  0  0  0  0  0  0  0  0
    6.8903   -3.2901    0.0000 C   0  0  0  0  0  0  0  0  0  0  0  0
    5.7362   -3.9791    0.0000 O   0  0  0  0  0  0  0  0  0  0  0  0
    4.5993   -3.2901    0.0000 C   0  0  0  0  0  0  0  0  0  0  0  0
    3.4451   -3.9791    0.0000 C   0  0  0  0  0  0  0  0  0  0  0  0
    4.5993   -1.9637    0.0000 C   0  0  0  0  0  0  0  0  0  0  0  0
    2.2910   -3.2901    0.0000 C   0  0  0  0  0  0  0  0  0  0  0  0
    3.4451   -1.3264    0.0000 C   0  0  0  0  0  0  0  0  0  0  0  0
    2.2910   -1.9637    0.0000 C   0  0  0  0  0  0  0  0  0  0  0  0
    1.1541   -1.3264    0.0000 C   0  0  0  0  0  0  0  0  0  0  0  0
    0.0000   -1.9637    0.0000 N   0  0  0  0  0  0  0  0  0  0  0  0
    1.1541    0.0000    0.0000 O   0  0  0  0  0  0  0  0  0  0  0  0
  1  2  2  0  0  0  0
  1  3  1  0  0  0  0
  1  4  1  0  0  0  0
  2  5  1  0  0  0  0
  2  6  1  0  0  0  0
  3  7  1  0  0  0  0
  4  8  2  0  0  0  0
  5  9  2  0  0  0  0
  7 10  1  0  0  0  0
  8  9  1  0  0  0  0
 10 11  1  0  0  0  0
 10 12  1  0  0  0  0
 11 13  1  0  0  0  0
 13 14  1  0  0  0  0
 14 15  1  0  0  0  0
 15 16  1  0  0  0  0
 16 17  1  0  0  0  0
 17 18  1  0  0  0  0
 17 19  2  0  0  0  0
 18 20  2  0  0  0  0
 19 21  1  0  0  0  0
 20 22  1  0  0  0  0
 21 22  2  0  0  0  0
 22 23  1  0  0  0  0
 23 24  1  0  0  0  0
 23 25  2  0  0  0  0
M  END
> <ID>
11524

> <Formula>
C19H24N2O4

> <FW>
344.4049

> <DSSTox_CID>
26230

> <DSSTox_RID>
81457

> <DSSTox_GSID>
46230

> <DSSTox_FileID_Sort>
6138

> <TS_ChemName>
Tolamolol

> <TS_ChemName_Synonyms>


> <TS_CASRN>
38103-61-6

> <CASRN_ChemName_Relationship>
primary

> <TS_Description>
single chemical compound

> <ChemNote>


> <STRUCTURE_Shown>
tested chemical

> <STRUCTURE_Formula>
C19H24N2O4

> <STRUCTURE_MW>
344.4049

> <STRUCTURE_ChemType>
defined organic

> <STRUCTURE_DefinedOrganicForm>
parent

> <STRUCTURE_IUPAC>
4-(2-{[2-hydroxy-3-(2-methylphenoxy)propyl]amino}ethoxy)benzamide

> <STRUCTURE_SMILES>
NC(=O)c1ccc(cc1)OCCNCC(O)COc2ccccc2C

> <STRUCTURE_SMILES_Desalt>
NC(=O)c1ccc(cc1)OCCNCC(O)COc2ccccc2C

> <Substance_modify_yyyymmdd>
20110817

$$$$
