38103-06-9
ChemmineR-0915142007XD

 39 44  0  0  0  0  0  0  0  0  1 V2000
   16.9465   -3.6355    0.0000 C   0  0  0  0  0  0  0  0  0  0  0  0
   16.2925   -4.7897    0.0000 C   0  0  0  0  0  0  0  0  0  0  0  0
   18.3892   -5.2321    0.0000 O   0  0  0  0  0  0  0  0  0  0  0  0
   18.2353   -3.9048    0.0000 C   0  0  0  0  0  0  0  0  0  0  0  0
   17.1774   -5.7899    0.0000 C   0  0  0  0  0  0  0  0  0  0  0  0
   16.2925   -2.4814    0.0000 C   0  0  0  0  0  0  0  0  0  0  0  0
   14.9653   -4.7897    0.0000 C   0  0  0  0  0  0  0  0  0  0  0  0
   14.2920   -3.6355    0.0000 C   0  0  0  0  0  0  0  0  0  0  0  0
   14.9653   -2.4814    0.0000 C   0  0  0  0  0  0  0  0  0  0  0  0
   16.9081   -7.0787    0.0000 O   0  0  0  0  0  0  0  0  0  0  0  0
   19.2356   -3.0392    0.0000 O   0  0  0  0  0  0  0  0  0  0  0  0
    3.0007   -4.7897    0.0000 C   0  0  0  0  0  0  0  0  0  0  0  0
    1.6735   -4.7897    0.0000 C   0  0  0  0  0  0  0  0  0  0  0  0
    2.3275   -6.8479    0.0000 O   0  0  0  0  0  0  0  0  0  0  0  0
    3.4047   -6.0592    0.0000 C   0  0  0  0  0  0  0  0  0  0  0  0
    1.2695   -6.0592    0.0000 C   0  0  0  0  0  0  0  0  0  0  0  0
    3.6740   -3.6355    0.0000 C   0  0  0  0  0  0  0  0  0  0  0  0
    1.0002   -3.6355    0.0000 C   0  0  0  0  0  0  0  0  0  0  0  0
    1.6735   -2.4814    0.0000 C   0  0  0  0  0  0  0  0  0  0  0  0
    3.0007   -2.4814    0.0000 C   0  0  0  0  0  0  0  0  0  0  0  0
    0.0000   -6.4632    0.0000 O   0  0  0  0  0  0  0  0  0  0  0  0
    4.6742   -6.4632    0.0000 O   0  0  0  0  0  0  0  0  0  0  0  0
    8.9830   -1.3273    0.0000 C   0  0  0  0  0  0  0  0  0  0  0  0
    8.9830    0.0000    0.0000 C   0  0  0  0  0  0  0  0  0  0  0  0
    8.9830   -2.6545    0.0000 C   0  0  0  0  0  0  0  0  0  0  0  0
    5.0012   -1.3273    0.0000 C   0  0  0  0  0  0  0  0  0  0  0  0
    5.6745   -0.1731    0.0000 C   0  0  0  0  0  0  0  0  0  0  0  0
    7.0017   -0.1731    0.0000 C   0  0  0  0  0  0  0  0  0  0  0  0
    7.6558   -1.3273    0.0000 C   0  0  0  0  0  0  0  0  0  0  0  0
    7.0017   -2.4814    0.0000 C   0  0  0  0  0  0  0  0  0  0  0  0
    5.6745   -2.4814    0.0000 C   0  0  0  0  0  0  0  0  0  0  0  0
   12.9648   -1.3273    0.0000 C   0  0  0  0  0  0  0  0  0  0  0  0
   12.3108   -2.4814    0.0000 C   0  0  0  0  0  0  0  0  0  0  0  0
   10.9835   -2.4814    0.0000 C   0  0  0  0  0  0  0  0  0  0  0  0
   10.3103   -1.3273    0.0000 C   0  0  0  0  0  0  0  0  0  0  0  0
   10.9835   -0.1731    0.0000 C   0  0  0  0  0  0  0  0  0  0  0  0
   12.3108   -0.1731    0.0000 C   0  0  0  0  0  0  0  0  0  0  0  0
    3.6740   -1.3273    0.0000 O   0  0  0  0  0  0  0  0  0  0  0  0
   14.2920   -1.3273    0.0000 O   0  0  0  0  0  0  0  0  0  0  0  0
  1  2  2  0  0  0  0
  1  4  1  0  0  0  0
  1  6  1  0  0  0  0
  2  5  1  0  0  0  0
  2  7  1  0  0  0  0
  3  4  1  0  0  0  0
  3  5  1  0  0  0  0
  4 11  2  0  0  0  0
  5 10  2  0  0  0  0
  6  9  2  0  0  0  0
  7  8  2  0  0  0  0
  8  9  1  0  0  0  0
  9 39  1  0  0  0  0
 12 13  2  0  0  0  0
 12 15  1  0  0  0  0
 12 17  1  0  0  0  0
 13 16  1  0  0  0  0
 13 18  1  0  0  0  0
 14 15  1  0  0  0  0
 14 16  1  0  0  0  0
 15 22  2  0  0  0  0
 16 21  2  0  0  0  0
 17 20  2  0  0  0  0
 18 19  2  0  0  0  0
 19 20  1  0  0  0  0
 20 38  1  0  0  0  0
 23 24  1  0  0  0  0
 23 25  1  0  0  0  0
 23 29  1  0  0  0  0
 23 35  1  0  0  0  0
 26 31  2  0  0  0  0
 26 27  1  0  0  0  0
 26 38  1  0  0  0  0
 27 28  2  0  0  0  0
 28 29  1  0  0  0  0
 29 30  2  0  0  0  0
 30 31  1  0  0  0  0
 32 37  2  0  0  0  0
 32 33  1  0  0  0  0
 32 39  1  0  0  0  0
 33 34  2  0  0  0  0
 34 35  1  0  0  0  0
 35 36  2  0  0  0  0
 36 37  1  0  0  0  0
M  END
> <ID>
5574

> <Formula>
C31H20O8

> <FW>
520.4857

> <DSSTox_CID>
8001

> <DSSTox_RID>
78635

> <DSSTox_GSID>
28001

> <DSSTox_FileID_Sort>
3317

> <TS_ChemName>
5,5'-[Propane-2,2-diylbis(benzene-4,1-diyloxy)]bis(2-benzofuran-1,3-dione)

> <TS_ChemName_Synonyms>


> <TS_CASRN>
38103-06-9

> <CASRN_ChemName_Relationship>
primary

> <TS_Description>
single chemical compound

> <ChemNote>


> <STRUCTURE_Shown>
tested chemical

> <STRUCTURE_Formula>
C31H20O8

> <STRUCTURE_MW>
520.4857

> <STRUCTURE_ChemType>
defined organic

> <STRUCTURE_DefinedOrganicForm>
parent

> <STRUCTURE_IUPAC>
5,5'-[propane-2,2-diylbis(benzene-4,1-diyloxy)]bis(2-benzofuran-1,3-dione)

> <STRUCTURE_SMILES>
O=C1OC(=O)c2ccc(cc12)Oc3ccc(cc3)C(C)(C)c4ccc(cc4)Oc5ccc6C(=O)OC(=O)c6c5

> <STRUCTURE_SMILES_Desalt>
O=C1OC(=O)c2ccc(cc12)Oc3ccc(cc3)C(C)(C)c4ccc(cc4)Oc5ccc6C(=O)OC(=O)c6c5

> <Substance_modify_yyyymmdd>
20080429

$$$$
