3811-73-2
ChemmineR-0915142007XD

  9  8  0  0  0  0  0  0  0  0  2 V2000
    2.2958   -2.0561    0.0000 N    0  3  0  0  0  0  0  0  0  0  0  0
    2.2958   -3.3889    0.0000 C    0  0  0  0  0  0  0  0  0  0  0  0
    1.1581   -1.3978    0.0000 C    0  0  0  0  0  0  0  0  0  0  0  0
    1.1581   -4.0634    0.0000 C    0  0  0  0  0  0  0  0  0  0  0  0
    0.0000   -2.0561    0.0000 C    0  0  0  0  0  0  0  0  0  0  0  0
    0.0000   -3.3889    0.0000 C    0  0  0  0  0  0  0  0  0  0  0  0
    3.4539   -1.3978    0.0000 O    0  5  0  0  0  0  0  0  0  0  0  0
    1.1581   -0.0650    0.0000 S    0  5  0  0  0  0  0  0  0  0  0  0
    2.7469    0.0000    0.0000 Na   0  3  0  0  0  0  0  0  0  0  0  0
  1  2  1  0  0  0  0
  1  3  2  0  0  0  0
  1  7  1  0  0  0  0
  2  4  2  0  0  0  0
  3  5  1  0  0  0  0
  3  8  1  0  0  0  0
  4  6  1  0  0  0  0
  5  6  2  0  0  0  0
M  END
> <ID>
9309

> <Formula>
C5H4NNaOS

> <FW>
149.1461 (126.1569+22.9892)

> <DSSTox_CID>
22390

> <DSSTox_RID>
80011

> <DSSTox_GSID>
42390

> <DSSTox_FileID_Sort>
4693

> <TS_ChemName>
Sodium (2-pyridylthio)-N-oxide

> <TS_ChemName_Synonyms>
Sodium (2-pyridylthio)-N-oxide (2-Mercaptopyridine N-oxide sodium salt)

> <TS_CASRN>
3811-73-2

> <CASRN_ChemName_Relationship>
primary

> <TS_Description>
single chemical compound

> <ChemNote>
parent [1121-31-9]

> <STRUCTURE_Shown>
tested chemical

> <STRUCTURE_Formula>
C5H4NNaOS

> <STRUCTURE_MW>
149.1461

> <STRUCTURE_ChemType>
defined organic

> <STRUCTURE_DefinedOrganicForm>
salt

> <STRUCTURE_IUPAC>
sodium pyridine-2-thiolate 1-oxide

> <STRUCTURE_SMILES>
[Na+].[O-][n+]1ccccc1[S-]

> <STRUCTURE_SMILES_Desalt>
O[n+]1ccccc1S

> <Substance_modify_yyyymmdd>
20080825

$$$$
