3818-37-9
ChemmineR-0915142007XD

 12 12  0  0  0  0  0  0  0  0  1 V2000
    5.8074   -2.5992    0.0000 C   0  0  0  0  0  0  0  0  0  0  0  0
    3.2254   -2.5220    0.0000 O   0  0  0  0  0  0  0  0  0  0  0  0
    4.2891   -1.8786    0.0000 C   0  0  0  0  0  0  0  0  0  0  0  0
    2.1445   -1.8615    0.0000 C   0  0  0  0  0  0  0  0  0  0  0  0
    2.1445   -0.6176    0.0000 C   0  0  0  0  0  0  0  0  0  0  0  0
    1.0808   -2.4877    0.0000 C   0  0  0  0  0  0  0  0  0  0  0  0
    0.0000   -1.8615    0.0000 C   0  0  0  0  0  0  0  0  0  0  0  0
    1.0808    0.0000    0.0000 C   0  0  0  0  0  0  0  0  0  0  0  0
    0.0000   -0.6176    0.0000 C   0  0  0  0  0  0  0  0  0  0  0  0
    8.5781   -2.8394    0.0000 N   0  0  0  0  0  0  0  0  0  0  0  0
    5.8160   -3.7658    0.0000 C   0  0  0  0  0  0  0  0  0  0  0  0
    6.8711   -1.9644    0.0000 N   0  0  0  0  0  0  0  0  0  0  0  0
  1  3  1  0  0  0  0
  1 12  1  0  0  0  0
  1 11  1  0  0  0  0
  2  3  1  0  0  0  0
  2  4  1  0  0  0  0
  4  5  2  0  0  0  0
  4  6  1  0  0  0  0
  5  8  1  0  0  0  0
  6  7  2  0  0  0  0
  7  9  1  0  0  0  0
  8  9  2  0  0  0  0
 10 12  1  0  0  0  0
M  END
> <ID>
13826

> <Formula>
C9H14N2O

> <FW>
166.2203

> <DSSTox_CID>
28763

> <DSSTox_RID>
83032

> <DSSTox_GSID>
48837

> <DSSTox_FileID_Sort>
7709

> <TS_ChemName>
Phenoxypropazine

> <TS_ChemName_Synonyms>


> <TS_CASRN>
3818-37-9

> <CASRN_ChemName_Relationship>
primary

> <TS_Description>
single chemical compound

> <ChemNote>


> <STRUCTURE_Shown>
tested chemical

> <STRUCTURE_Formula>
C9H14N2O

> <STRUCTURE_MW>
166.2203

> <STRUCTURE_ChemType>
defined organic

> <STRUCTURE_DefinedOrganicForm>
parent

> <STRUCTURE_IUPAC>
(1-phenoxypropan-2-yl)hydrazine

> <STRUCTURE_SMILES>
CC(COc1ccccc1)NN

> <STRUCTURE_SMILES_Desalt>
CC(COc1ccccc1)NN

> <Substance_modify_yyyymmdd>
20111204

$$$$
