3819-00-9
ChemmineR-0915142007XD

 29 32  0  0  0  0  0  0  0  0  1 V2000
    7.3082   -1.1467    0.0000 C   0  0  0  0  0  0  0  0  0  0  0  0
    7.9809    0.0000    0.0000 C   0  0  0  0  0  0  0  0  0  0  0  0
    9.3111    0.0000    0.0000 C   0  0  0  0  0  0  0  0  0  0  0  0
    9.9685   -1.1467    0.0000 C   0  0  0  0  0  0  0  0  0  0  0  0
    9.3111   -2.3087    0.0000 C   0  0  0  0  0  0  0  0  0  0  0  0
    7.9809   -2.3087    0.0000 C   0  0  0  0  0  0  0  0  0  0  0  0
    9.9685   -3.4554    0.0000 N   0  0  0  0  0  0  0  0  0  0  0  0
    9.3111   -4.6020    0.0000 C   0  0  0  0  0  0  0  0  0  0  0  0
    7.9809   -4.6020    0.0000 C   0  0  0  0  0  0  0  0  0  0  0  0
    7.3082   -5.7640    0.0000 C   0  0  0  0  0  0  0  0  0  0  0  0
    5.9781   -5.7640    0.0000 N   0  0  0  0  0  0  0  0  0  0  0  0
    5.3206   -6.9107    0.0000 C   0  0  0  0  0  0  0  0  0  0  0  0
    3.9905   -6.9107    0.0000 C   0  0  0  0  0  0  0  0  0  0  0  0
    3.3177   -5.7640    0.0000 C   0  0  0  0  0  0  0  0  0  0  0  0
    1.9876   -5.7640    0.0000 C   0  0  0  0  0  0  0  0  0  0  0  0
    1.3302   -6.9107    0.0000 C   0  0  0  0  0  0  0  0  0  0  0  0
    0.0000   -6.9107    0.0000 O   0  0  0  0  0  0  0  0  0  0  0  0
    3.9905   -4.6020    0.0000 C   0  0  0  0  0  0  0  0  0  0  0  0
    5.3206   -4.6020    0.0000 C   0  0  0  0  0  0  0  0  0  0  0  0
   11.2987   -3.4554    0.0000 C   0  0  0  0  0  0  0  0  0  0  0  0
   11.9714   -2.3087    0.0000 C   0  0  0  0  0  0  0  0  0  0  0  0
   11.2987   -1.1467    0.0000 S   0  0  0  0  0  0  0  0  0  0  0  0
   13.3016   -2.3087    0.0000 C   0  0  0  0  0  0  0  0  0  0  0  0
   13.9590   -3.4554    0.0000 C   0  0  0  0  0  0  0  0  0  0  0  0
   13.3016   -4.6020    0.0000 C   0  0  0  0  0  0  0  0  0  0  0  0
   13.9590   -5.7640    0.0000 C   0  0  0  0  0  0  0  0  0  0  0  0
   13.3016   -6.9107    0.0000 C   0  0  0  0  0  0  0  0  0  0  0  0
   15.2892   -5.7640    0.0000 O   0  0  0  0  0  0  0  0  0  0  0  0
   11.9714   -4.6020    0.0000 C   0  0  0  0  0  0  0  0  0  0  0  0
  1  2  2  0  0  0  0
  1  6  1  0  0  0  0
  2  3  1  0  0  0  0
  3  4  2  0  0  0  0
  4  5  1  0  0  0  0
  4 22  1  0  0  0  0
  5  6  2  0  0  0  0
  5  7  1  0  0  0  0
  7  8  1  0  0  0  0
  7 20  1  0  0  0  0
  8  9  1  0  0  0  0
  9 10  1  0  0  0  0
 10 11  1  0  0  0  0
 11 12  1  0  0  0  0
 11 19  1  0  0  0  0
 12 13  1  0  0  0  0
 13 14  1  0  0  0  0
 14 15  1  0  0  0  0
 14 18  1  0  0  0  0
 15 16  1  0  0  0  0
 16 17  1  0  0  0  0
 18 19  1  0  0  0  0
 20 21  2  0  0  0  0
 20 29  1  0  0  0  0
 21 22  1  0  0  0  0
 21 23  1  0  0  0  0
 23 24  2  0  0  0  0
 24 25  1  0  0  0  0
 25 26  1  0  0  0  0
 25 29  2  0  0  0  0
 26 27  1  0  0  0  0
 26 28  2  0  0  0  0
M  END
> <ID>
3120

> <Formula>
C24H30N2O2S

> <FW>
410.5722

> <DSSTox_CID>
3481

> <DSSTox_RID>
77047

> <DSSTox_GSID>
23481

> <DSSTox_FileID_Sort>
1730

> <TS_ChemName>
Piperacetazine

> <TS_ChemName_Synonyms>


> <TS_CASRN>
3819-00-9

> <CASRN_ChemName_Relationship>
primary

> <TS_Description>
single chemical compound

> <ChemNote>


> <STRUCTURE_Shown>
tested chemical

> <STRUCTURE_Formula>
C24H30N2O2S

> <STRUCTURE_MW>
410.5722

> <STRUCTURE_ChemType>
defined organic

> <STRUCTURE_DefinedOrganicForm>
parent

> <STRUCTURE_IUPAC>
1-(10-{3-[4-(2-hydroxyethyl)piperidin-1-yl]propyl}-10H-phenothiazin-2-yl)ethanone

> <STRUCTURE_SMILES>
CC(=O)c2cc3N(CCCN1CCC(CCO)CC1)c4ccccc4Sc3cc2

> <STRUCTURE_SMILES_Desalt>
CC(=O)c2cc3N(CCCN1CCC(CCO)CC1)c4ccccc4Sc3cc2

> <Substance_modify_yyyymmdd>
20080429

$$$$
