38194-50-2
ChemmineR-0915142007XD

 26 28  0  0  0  0  0  0  0  0  1 V2000
    5.7263   -5.3481    0.0000 C   0  0  0  0  0  0  0  0  0  0  0  0
    5.7263   -7.4550    0.0000 C   0  0  0  0  0  0  0  0  0  0  0  0
    6.4934   -6.4286    0.0000 C   0  0  0  0  0  0  0  0  0  0  0  0
    4.4406   -7.0768    0.0000 C   0  0  0  0  0  0  0  0  0  0  0  0
    4.4406   -5.7263    0.0000 C   0  0  0  0  0  0  0  0  0  0  0  0
    5.7263   -3.9976    0.0000 C   0  0  0  0  0  0  0  0  0  0  0  0
    1.1885   -1.3505    0.0000 S   0  0  0  0  0  0  0  0  0  0  0  0
    5.7263   -8.8055    0.0000 C   0  0  0  0  0  0  0  0  0  0  0  0
    3.3061   -5.0780    0.0000 C   0  0  0  0  0  0  0  0  0  0  0  0
    6.8716   -9.4538    0.0000 C   0  0  0  0  0  0  0  0  0  0  0  0
    3.3061   -7.7251    0.0000 C   0  0  0  0  0  0  0  0  0  0  0  0
    2.3121   -1.9988    0.0000 C   0  0  0  0  0  0  0  0  0  0  0  0
    1.1885    0.0000    0.0000 O   0  0  0  0  0  0  0  0  0  0  0  0
    6.8716  -10.8043    0.0000 O   0  0  0  0  0  0  0  0  0  0  0  0
    4.6026   -3.3493    0.0000 C   0  0  0  0  0  0  0  0  0  0  0  0
    3.4682   -1.3505    0.0000 C   0  0  0  0  0  0  0  0  0  0  0  0
    2.3121   -3.3493    0.0000 C   0  0  0  0  0  0  0  0  0  0  0  0
    2.1177   -7.0768    0.0000 C   0  0  0  0  0  0  0  0  0  0  0  0
    2.1177   -5.7263    0.0000 C   0  0  0  0  0  0  0  0  0  0  0  0
    7.7791   -6.4286    0.0000 C   0  0  0  0  0  0  0  0  0  0  0  0
    8.0384   -8.8055    0.0000 O   0  0  0  0  0  0  0  0  0  0  0  0
    4.6026   -1.9988    0.0000 C   0  0  0  0  0  0  0  0  0  0  0  0
    3.4682   -3.9976    0.0000 C   0  0  0  0  0  0  0  0  0  0  0  0
    0.9616   -7.7251    0.0000 F   0  0  0  0  0  0  0  0  0  0  0  0
    0.0000   -1.9988    0.0000 C   0  0  0  0  0  0  0  0  0  0  0  0
    6.9148   -3.3493    0.0000 H   0  0  0  0  0  0  0  0  0  0  0  0
  1  3  1  0  0  0  0
  1  5  1  0  0  0  0
  1  6  2  0  0  0  0
  2  3  2  0  0  0  0
  2  8  1  0  0  0  0
  2  4  1  0  0  0  0
  3 20  1  0  0  0  0
  4  5  2  0  0  0  0
  4 11  1  0  0  0  0
  5  9  1  0  0  0  0
  6 15  1  0  0  0  0
  6 26  1  0  0  0  0
  7 12  1  0  0  0  0
  7 13  2  0  0  0  0
  7 25  1  0  0  0  0
  8 10  1  0  0  0  0
  9 19  2  0  0  0  0
 10 14  2  0  0  0  0
 10 21  1  0  0  0  0
 11 18  2  0  0  0  0
 12 17  1  0  0  0  0
 12 16  2  0  0  0  0
 15 22  2  0  0  0  0
 15 23  1  0  0  0  0
 16 22  1  0  0  0  0
 17 23  2  0  0  0  0
 18 19  1  0  0  0  0
 18 24  1  0  0  0  0
M  END
> <ID>
3241

> <Formula>
C20H17FO3S

> <FW>
356.4106

> <DSSTox_CID>
3624

> <DSSTox_RID>
77117

> <DSSTox_GSID>
23624

> <DSSTox_FileID_Sort>
1800

> <TS_ChemName>
Sulindac

> <TS_ChemName_Synonyms>


> <TS_CASRN>
38194-50-2

> <CASRN_ChemName_Relationship>
primary

> <TS_Description>
single chemical compound

> <ChemNote>
stereochem

> <STRUCTURE_Shown>
tested chemical

> <STRUCTURE_Formula>
C20H17FO3S

> <STRUCTURE_MW>
356.4106

> <STRUCTURE_ChemType>
defined organic

> <STRUCTURE_DefinedOrganicForm>
parent

> <STRUCTURE_IUPAC>
{(1Z)-5-fluoro-2-methyl-1-[4-(methylsulfinyl)benzylidene]-1H-inden-3-yl}acetic acid

> <STRUCTURE_SMILES>
CS(=O)c1ccc(cc1)/C=C3\c2ccc(F)cc2C(CC(=O)O)=C3C

> <STRUCTURE_SMILES_Desalt>
CS(=O)c1ccc(cc1)/C=C3\c2ccc(F)cc2C(CC(=O)O)=C3C

> <Substance_modify_yyyymmdd>
20080429

$$$$
