382-67-2
ChemmineR-0915142007XD

 29 32  0  0  1  0  0  0  0  0  1 V2000
    6.9196   -2.6581    0.0000 C   0  0  0  0  0  0  0  0  0  0  0  0
    4.6274   -3.9817    0.0000 C   0  0  0  0  0  0  0  0  0  0  0  0
    3.4759   -4.6597    0.0000 C   0  0  0  0  0  0  0  0  0  0  0  0
    6.9196   -3.9817    0.0000 C   0  0  0  0  0  0  0  0  0  0  0  0
    5.7681   -4.6597    0.0000 C   0  0  0  0  0  0  0  0  0  0  0  0
    3.4759   -5.9726    0.0000 C   0  0  0  0  0  0  0  0  0  0  0  0
    4.6274   -2.6581    0.0000 C   0  0  0  0  0  0  0  0  0  0  0  0
    8.1787   -2.2384    0.0000 C   0  0  0  0  0  0  0  0  0  0  0  0
    5.7681   -2.0016    0.0000 C   0  0  0  0  0  0  0  0  0  0  0  0
    2.3352   -3.9817    0.0000 C   0  0  0  0  0  0  0  0  0  0  0  0
    8.1787   -4.3907    0.0000 C   0  0  0  0  0  0  0  0  0  0  0  0
    8.9643   -3.3145    0.0000 C   0  0  0  0  0  0  0  0  0  0  0  0
    2.3352   -6.6506    0.0000 C   0  0  0  0  0  0  0  0  0  0  0  0
    5.7681   -5.9726    0.0000 C   0  0  0  0  0  0  0  0  0  0  0  0
    1.1838   -4.6597    0.0000 C   0  0  0  0  0  0  0  0  0  0  0  0
    1.1838   -5.9726    0.0000 C   0  0  0  0  0  0  0  0  0  0  0  0
    8.5338   -0.9578    0.0000 C   0  0  0  0  0  0  0  0  0  0  0  0
    4.6274   -6.6506    0.0000 C   0  0  0  0  0  0  0  0  0  0  0  0
    4.6489   -5.2516    0.0000 F   0  0  0  0  0  0  0  0  0  0  0  0
    7.6083    0.0000    0.0000 O   0  0  0  0  0  0  0  0  0  0  0  0
    0.0000   -6.6613    0.0000 O   0  0  0  0  0  0  0  0  0  0  0  0
    6.9196   -1.3129    0.0000 C   0  0  0  0  0  0  0  0  0  0  0  0
    3.4759   -1.9693    0.0000 O   0  0  0  0  0  0  0  0  0  0  0  0
    3.4759   -3.3145    0.0000 C   0  0  0  0  0  0  0  0  0  0  0  0
   10.2987   -3.3145    0.0000 C   0  0  0  0  0  0  0  0  0  0  0  0
   10.7614   -1.6035    0.0000 O   0  0  0  0  0  0  0  0  0  0  0  0
    9.8359   -0.6349    0.0000 C   0  0  0  0  0  0  0  0  0  0  0  0
    5.7681   -3.3145    0.0000 H   0  0  0  0  0  0  0  0  0  0  0  0
    6.9196   -5.3161    0.0000 H   0  0  0  0  0  0  0  0  0  0  0  0
  1  4  1  0  0  0  0
  1  8  1  0  0  0  0
  1  9  1  0  0  0  0
  1 22  1  1  0  0  0
  2  7  1  0  0  0  0
  2  3  1  0  0  0  0
  2 19  1  6  0  0  0
  2  5  1  0  0  0  0
  3  6  1  0  0  0  0
  3 10  1  0  0  0  0
  3 24  1  1  0  0  0
  4  5  1  0  0  0  0
  4 11  1  0  0  0  0
  4 29  1  6  0  0  0
  5 14  1  0  0  0  0
  5 28  1  1  0  0  0
  6 13  2  0  0  0  0
  6 18  1  0  0  0  0
  7  9  1  0  0  0  0
  7 23  1  1  0  0  0
  8 12  1  0  0  0  0
  8 17  1  1  0  0  0
 10 15  2  0  0  0  0
 11 12  1  0  0  0  0
 12 25  1  6  0  0  0
 13 16  1  0  0  0  0
 14 18  1  0  0  0  0
 15 16  1  0  0  0  0
 16 21  2  0  0  0  0
 17 20  2  0  0  0  0
 17 27  1  0  0  0  0
 26 27  1  0  0  0  0
M  END
> <ID>
11093

> <Formula>
C22H29FO4

> <FW>
376.4617

> <DSSTox_CID>
25647

> <DSSTox_RID>
81025

> <DSSTox_GSID>
45647

> <DSSTox_FileID_Sort>
5706

> <TS_ChemName>
Desoximetasone

> <TS_ChemName_Synonyms>


> <TS_CASRN>
382-67-2

> <CASRN_ChemName_Relationship>
primary

> <TS_Description>
single chemical compound

> <ChemNote>
stereochem; tautomers

> <STRUCTURE_Shown>
tested chemical

> <STRUCTURE_Formula>
C22H29FO4

> <STRUCTURE_MW>
376.4617

> <STRUCTURE_ChemType>
defined organic

> <STRUCTURE_DefinedOrganicForm>
parent

> <STRUCTURE_IUPAC>
(11beta,16alpha)-9-fluoro-11,21-dihydroxy-16-methylpregna-1,4-diene-3,20-dione

> <STRUCTURE_SMILES>
OCC(=O)[C@H]4[C@H](C)C[C@@H]3[C@]4(C)C[C@H](O)[C@@]2(F)[C@H]3CCC1=CC(=O)C=C[C@@]12C

> <STRUCTURE_SMILES_Desalt>
OCC(=O)[C@H]4[C@H](C)C[C@@H]3[C@]4(C)C[C@H](O)[C@@]2(F)[C@H]3CCC1=CC(=O)C=C[C@@]12C

> <Substance_modify_yyyymmdd>
20100107

$$$$
