38205-60-6
ChemmineR-0915142007XD

 10 10  0  0  0  0  0  0  0  0  1 V2000
    2.3504    0.0000    0.0000 N   0  0  0  0  0  0  0  0  0  0  0  0
    1.7150   -2.0353    0.0000 S   0  0  0  0  0  0  0  0  0  0  0  0
    1.2708   -0.7800    0.0000 C   0  0  0  0  0  0  0  0  0  0  0  0
    3.4352   -0.7490    0.0000 C   0  0  0  0  0  0  0  0  0  0  0  0
    3.0530   -2.0043    0.0000 C   0  0  0  0  0  0  0  0  0  0  0  0
    3.8330   -3.0685    0.0000 C   0  0  0  0  0  0  0  0  0  0  0  0
    3.3216   -4.3082    0.0000 O   0  0  0  0  0  0  0  0  0  0  0  0
    5.1658   -2.9393    0.0000 C   0  0  0  0  0  0  0  0  0  0  0  0
    0.0000   -0.3978    0.0000 C   0  0  0  0  0  0  0  0  0  0  0  0
    4.7060   -0.3203    0.0000 C   0  0  0  0  0  0  0  0  0  0  0  0
  1  3  2  0  0  0  0
  1  4  1  0  0  0  0
  2  3  1  0  0  0  0
  2  5  1  0  0  0  0
  3  9  1  0  0  0  0
  4  5  2  0  0  0  0
  4 10  1  0  0  0  0
  5  6  1  0  0  0  0
  6  7  2  0  0  0  0
  6  8  1  0  0  0  0
M  END
> <ID>
12801

> <Formula>
C7H9NOS

> <FW>
155.2175

> <DSSTox_CID>
27680

> <DSSTox_RID>
82497

> <DSSTox_GSID>
47680

> <DSSTox_FileID_Sort>
7178

> <TS_ChemName>
5-Acetyl-2,4-dimethylthiazole

> <TS_ChemName_Synonyms>


> <TS_CASRN>
38205-60-6

> <CASRN_ChemName_Relationship>
primary

> <TS_Description>
single chemical compound

> <ChemNote>


> <STRUCTURE_Shown>
tested chemical

> <STRUCTURE_Formula>
C7H9NOS

> <STRUCTURE_MW>
155.2175

> <STRUCTURE_ChemType>
defined organic

> <STRUCTURE_DefinedOrganicForm>
parent

> <STRUCTURE_IUPAC>
1-(2,4-dimethyl-1,3-thiazol-5-yl)ethanone

> <STRUCTURE_SMILES>
O=C(C)c1sc(C)nc1C

> <STRUCTURE_SMILES_Desalt>
O=C(C)c1sc(C)nc1C

> <Substance_modify_yyyymmdd>
20101215

$$$$
