382150-50-7
ChemmineR-0915142007XD

 27 26  0  0  0  0  0  0  0  0  2 V2000
    4.4030   -8.8762    0.0000 C   0  0  0  0  0  0  0  0  0  0  0  0
    2.4474    0.0000    0.0000 C   0  0  0  0  0  0  0  0  0  0  0  0
    3.2788   -8.2205    0.0000 C   0  0  0  0  0  0  0  0  0  0  0  0
    3.2788   -6.9441    0.0000 C   0  0  0  0  0  0  0  0  0  0  0  0
    2.1312   -6.2883    0.0000 C   0  0  0  0  0  0  0  0  0  0  0  0
    2.1546   -4.9885    0.0000 C   0  0  0  0  0  0  0  0  0  0  0  0
    1.0305   -4.3444    0.0000 C   0  0  0  0  0  0  0  0  0  0  0  0
    0.3864   -1.0539    0.0000 C   0  0  0  0  0  0  0  0  0  0  0  0
    0.0000   -2.2835    0.0000 C   0  0  0  0  0  0  0  0  0  0  0  0
    2.0727   -2.2835    0.0000 C   0  0  0  0  0  0  0  0  0  0  0  0
    1.6862   -1.0539    0.0000 N   0  3  0  0  0  0  0  0  0  0  0  0
    1.0422   -3.0446    0.0000 N   0  0  0  0  0  0  0  0  0  0  0  0
   10.5859   -3.7004    0.0000 C   0  0  0  0  0  0  0  0  0  0  0  0
   11.7101   -4.3444    0.0000 F   0  0  0  0  0  0  0  0  0  0  0  0
    9.4851   -3.0446    0.0000 F   0  0  0  0  0  0  0  0  0  0  0  0
   11.2417   -2.5762    0.0000 F   0  0  0  0  0  0  0  0  0  0  0  0
   11.0660   -5.4569    0.0000 O   0  0  0  0  0  0  0  0  0  0  0  0
    8.8294   -4.1688    0.0000 O   0  0  0  0  0  0  0  0  0  0  0  0
    9.9535   -4.8011    0.0000 S   0  0  0  0  0  0  0  0  0  0  0  0
    6.2063   -6.7216    0.0000 C   0  0  0  0  0  0  0  0  0  0  0  0
    4.9065   -6.7216    0.0000 F   0  0  0  0  0  0  0  0  0  0  0  0
    6.2063   -8.0214    0.0000 F   0  0  0  0  0  0  0  0  0  0  0  0
    6.2063   -5.4335    0.0000 F   0  0  0  0  0  0  0  0  0  0  0  0
    8.7942   -6.7216    0.0000 N   0  5  0  0  0  0  0  0  0  0  0  0
    7.4944   -8.0214    0.0000 O   0  0  0  0  0  0  0  0  0  0  0  0
    7.4944   -5.4335    0.0000 O   0  0  0  0  0  0  0  0  0  0  0  0
    7.4944   -6.7216    0.0000 S   0  0  0  0  0  0  0  0  0  0  0  0
  1  3  1  0  0  0  0
  2 11  1  0  0  0  0
  3  4  1  0  0  0  0
  4  5  1  0  0  0  0
  5  6  1  0  0  0  0
  6  7  1  0  0  0  0
  7 12  1  0  0  0  0
  8  9  2  0  0  0  0
  8 11  1  0  0  0  0
  9 12  1  0  0  0  0
 10 11  2  0  0  0  0
 10 12  1  0  0  0  0
 13 14  1  0  0  0  0
 13 15  1  0  0  0  0
 13 16  1  0  0  0  0
 13 19  1  0  0  0  0
 17 19  2  0  0  0  0
 18 19  2  0  0  0  0
 19 24  1  0  0  0  0
 20 21  1  0  0  0  0
 20 22  1  0  0  0  0
 20 23  1  0  0  0  0
 20 27  1  0  0  0  0
 24 27  1  0  0  0  0
 25 27  2  0  0  0  0
 26 27  2  0  0  0  0
M  END
> <ID>
14153

> <Formula>
C12H19F6N3O4S2

> <FW>
447.4174 (167.2707+280.1467)

> <DSSTox_CID>
29146

> <DSSTox_RID>
83365

> <DSSTox_GSID>
49290

> <DSSTox_FileID_Sort>
8040

> <TS_ChemName>
1-Hexyl-3-methylimidazolium bis(trifluoromethylsulfonyl)imide

> <TS_ChemName_Synonyms>


> <TS_CASRN>
382150-50-7

> <CASRN_ChemName_Relationship>
primary

> <TS_Description>
single chemical compound

> <ChemNote>


> <STRUCTURE_Shown>
tested chemical

> <STRUCTURE_Formula>
C12H19F6N3O4S2

> <STRUCTURE_MW>
447.4174

> <STRUCTURE_ChemType>
defined organic

> <STRUCTURE_DefinedOrganicForm>
complex

> <STRUCTURE_IUPAC>
1-hexyl-3-methyl-1H-imidazol-3-ium bis[(trifluoromethyl)sulfonyl]azanide

> <STRUCTURE_SMILES>
FC(F)(F)S(=O)(=O)[N-]S(=O)(=O)C(F)(F)F.C[n+]1ccn(CCCCCC)c1

> <STRUCTURE_SMILES_Desalt>
O=S(=O)(NS(=O)(=O)C(F)(F)F)C(F)(F)F

> <Substance_modify_yyyymmdd>
20111204

$$$$
