38234-21-8
ChemmineR-0915142007XD

 91 96  0  0  1  0  0  0  0  0  1 V2000
    0.0000    0.0000    0.0000 C   0  0  0  0  0  0  0  0  0  0  0  0
    0.4712   -1.2564    0.0000 C   0  0  0  0  0  0  0  0  0  0  0  0
    1.7538   -1.4658    0.0000 N   0  0  0  0  0  0  0  0  0  0  0  0
    2.2249   -2.7222    0.0000 C   0  0  0  0  0  0  0  0  0  0  0  0
    1.3611   -3.7431    0.0000 O   0  0  0  0  0  0  0  0  0  0  0  0
    3.5337   -2.9578    0.0000 C   0  0  0  0  0  0  0  0  0  0  0  0
    2.8793   -4.1357    0.0000 H   0  0  0  0  0  0  0  0  0  0  0  0
    3.7693   -1.6491    0.0000 C   0  0  0  0  0  0  0  0  0  0  0  0
    5.0780   -1.4658    0.0000 C   0  0  0  0  0  0  0  0  0  0  0  0
    5.6539   -2.6699    0.0000 C   0  0  0  0  0  0  0  0  0  0  0  0
    4.7116   -3.5860    0.0000 N   0  0  0  0  0  0  0  0  0  0  0  0
    4.8948   -4.9210    0.0000 C   0  0  0  0  0  0  0  0  0  0  0  0
    3.8216   -5.7324    0.0000 O   0  0  0  0  0  0  0  0  0  0  0  0
    6.0989   -5.4183    0.0000 C   0  0  0  0  0  0  0  0  0  0  0  0
    5.6016   -6.6486    0.0000 H   0  0  0  0  0  0  0  0  0  0  0  0
    6.6224   -4.1881    0.0000 C   0  0  0  0  0  0  0  0  0  0  0  0
    7.9312   -4.0048    0.0000 C   0  0  0  0  0  0  0  0  0  0  0  0
    8.4285   -2.7746    0.0000 C   0  0  0  0  0  0  0  0  0  0  0  0
    9.7373   -2.5914    0.0000 N   0  0  0  0  0  0  0  0  0  0  0  0
   10.2608   -1.3611    0.0000 C   0  0  0  0  0  0  0  0  0  0  0  0
    9.4493   -0.3141    0.0000 N   0  0  0  0  0  0  0  0  0  0  0  0
   11.5696   -1.1779    0.0000 N   0  0  0  0  0  0  0  0  0  0  0  0
    7.3291   -5.9157    0.0000 N   0  0  0  0  0  0  0  0  0  0  0  0
    7.5385   -7.2506    0.0000 C   0  0  0  0  0  0  0  0  0  0  0  0
    6.4653   -8.0620    0.0000 O   0  0  0  0  0  0  0  0  0  0  0  0
    8.7426   -7.7479    0.0000 C   0  0  0  0  0  0  0  0  0  0  0  0
    8.2453   -8.9782    0.0000 H   0  0  0  0  0  0  0  0  0  0  0  0
    9.2661   -6.4915    0.0000 C   0  0  0  0  0  0  0  0  0  0  0  0
   10.5749   -6.3345    0.0000 C   0  0  0  0  0  0  0  0  0  0  0  0
   11.3863   -7.3815    0.0000 C   0  0  0  0  0  0  0  0  0  0  0  0
   11.0722   -5.0780    0.0000 C   0  0  0  0  0  0  0  0  0  0  0  0
    9.9990   -8.2453    0.0000 N   0  0  0  0  0  0  0  0  0  0  0  0
   10.1561   -9.5802    0.0000 C   0  0  0  0  0  0  0  0  0  0  0  0
    9.1091  -10.3655    0.0000 O   0  0  0  0  0  0  0  0  0  0  0  0
   11.4125  -10.0776    0.0000 C   0  0  0  0  0  0  0  0  0  0  0  0
   11.5696  -11.3863    0.0000 N   0  0  0  0  0  0  0  0  0  0  0  0
   12.7998  -11.8837    0.0000 C   0  0  0  0  0  0  0  0  0  0  0  0
   13.8468  -11.0722    0.0000 O   0  0  0  0  0  0  0  0  0  0  0  0
   12.9830  -13.1924    0.0000 C   0  0  0  0  0  0  0  0  0  0  0  0
   11.6481  -13.3757    0.0000 H   0  0  0  0  0  0  0  0  0  0  0  0
   14.3180  -13.0354    0.0000 C   0  0  0  0  0  0  0  0  0  0  0  0
   15.1818  -12.0407    0.0000 C   0  0  0  0  0  0  0  0  0  0  0  0
   16.4905  -12.3286    0.0000 C   0  0  0  0  0  0  0  0  0  0  0  0
   17.3805  -11.3340    0.0000 C   0  0  0  0  0  0  0  0  0  0  0  0
   16.9617  -10.0514    0.0000 C   0  0  0  0  0  0  0  0  0  0  0  0
   17.8517   -9.0829    0.0000 O   0  0  0  0  0  0  0  0  0  0  0  0
   15.6791   -9.7896    0.0000 C   0  0  0  0  0  0  0  0  0  0  0  0
   14.7891  -10.7843    0.0000 C   0  0  0  0  0  0  0  0  0  0  0  0
   13.1663  -14.5274    0.0000 N   0  0  0  0  0  0  0  0  0  0  0  0
   12.1192  -15.3388    0.0000 C   0  0  0  0  0  0  0  0  0  0  0  0
   10.8890  -14.8153    0.0000 O   0  0  0  0  0  0  0  0  0  0  0  0
   12.2763  -16.6476    0.0000 C   0  0  0  0  0  0  0  0  0  0  0  0
   10.9937  -16.8308    0.0000 H   0  0  0  0  0  0  0  0  0  0  0  0
   13.6112  -16.4644    0.0000 C   0  0  0  0  0  0  0  0  0  0  0  0
   14.1086  -15.2341    0.0000 O   0  0  0  0  0  0  0  0  0  0  0  0
   12.4857  -17.9825    0.0000 N   0  0  0  0  0  0  0  0  0  0  0  0
   11.4125  -18.7940    0.0000 C   0  0  0  0  0  0  0  0  0  0  0  0
   10.2084  -18.2705    0.0000 O   0  0  0  0  0  0  0  0  0  0  0  0
   11.5957  -20.0766    0.0000 C   0  0  0  0  0  0  0  0  0  0  0  0
   10.2870  -20.2860    0.0000 H   0  0  0  0  0  0  0  0  0  0  0  0
   11.7790  -21.4115    0.0000 C   0  0  0  0  0  0  0  0  0  0  0  0
   10.7319  -22.2230    0.0000 C   0  0  0  0  0  0  0  0  0  0  0  0
    9.4493  -21.8565    0.0000 C   0  0  0  0  0  0  0  0  0  0  0  0
    8.7164  -22.9559    0.0000 N   0  0  0  0  0  0  0  0  0  0  0  0
    9.5279  -24.0029    0.0000 C   0  0  0  0  0  0  0  0  0  0  0  0
   10.7843  -23.5579    0.0000 C   0  0  0  0  0  0  0  0  0  0  0  0
   11.7790  -24.4217    0.0000 C   0  0  0  0  0  0  0  0  0  0  0  0
   11.5696  -25.7305    0.0000 C   0  0  0  0  0  0  0  0  0  0  0  0
   10.3131  -26.1755    0.0000 C   0  0  0  0  0  0  0  0  0  0  0  0
    9.2923  -25.3117    0.0000 C   0  0  0  0  0  0  0  0  0  0  0  0
   12.9307  -19.9195    0.0000 N   0  0  0  0  0  0  0  0  0  0  0  0
   13.7421  -20.9666    0.0000 C   0  0  0  0  0  0  0  0  0  0  0  0
   13.2448  -22.1968    0.0000 O   0  0  0  0  0  0  0  0  0  0  0  0
   15.0509  -20.7833    0.0000 C   0  0  0  0  0  0  0  0  0  0  0  0
   14.8677  -19.4746    0.0000 H   0  0  0  0  0  0  0  0  0  0  0  0
   15.2341  -22.1183    0.0000 C   0  0  0  0  0  0  0  0  0  0  0  0
   16.4644  -22.6156    0.0000 C   0  0  0  0  0  0  0  0  0  0  0  0
   16.7785  -23.8982    0.0000 C   0  0  0  0  0  0  0  0  0  0  0  0
   18.1134  -24.0029    0.0000 N   0  0  0  0  0  0  0  0  0  0  0  0
   18.6108  -22.7727    0.0000 C   0  0  0  0  0  0  0  0  0  0  0  0
   17.5899  -21.9089    0.0000 N   0  0  0  0  0  0  0  0  0  0  0  0
   16.3597  -20.6001    0.0000 N   0  0  0  0  0  0  0  0  0  0  0  0
   16.8832  -19.3699    0.0000 C   0  0  0  0  0  0  0  0  0  0  0  0
   16.0456  -18.3228    0.0000 O   0  0  0  0  0  0  0  0  0  0  0  0
   18.1920  -19.1866    0.0000 C   0  0  0  0  0  0  0  0  0  0  0  0
   17.6161  -18.0087    0.0000 H   0  0  0  0  0  0  0  0  0  0  0  0
   18.3752  -20.4954    0.0000 C   0  0  0  0  0  0  0  0  0  0  0  0
   19.6840  -20.7572    0.0000 C   0  0  0  0  0  0  0  0  0  0  0  0
   20.3122  -19.5793    0.0000 C   0  0  0  0  0  0  0  0  0  0  0  0
   21.6209  -19.3960    0.0000 O   0  0  0  0  0  0  0  0  0  0  0  0
   19.3960  -18.6108    0.0000 N   0  0  0  0  0  0  0  0  0  0  0  0
  1  2  1  0  0  0  0
  2  3  1  0  0  0  0
  3  4  1  0  0  0  0
  4  5  2  0  0  0  0
  4  6  1  0  0  0  0
  6  7  1  1  0  0  0
  6  8  1  0  0  0  0
  6 11  1  0  0  0  0
  8  9  1  0  0  0  0
  9 10  1  0  0  0  0
 10 11  1  0  0  0  0
 11 12  1  0  0  0  0
 12 13  2  0  0  0  0
 12 14  1  0  0  0  0
 14 15  1  1  0  0  0
 14 16  1  0  0  0  0
 14 23  1  0  0  0  0
 16 17  1  0  0  0  0
 17 18  1  0  0  0  0
 18 19  1  0  0  0  0
 19 20  1  0  0  0  0
 20 21  1  0  0  0  0
 20 22  2  0  0  0  0
 23 24  1  0  0  0  0
 24 25  2  0  0  0  0
 24 26  1  0  0  0  0
 26 27  1  1  0  0  0
 26 28  1  0  0  0  0
 26 32  1  0  0  0  0
 28 29  1  0  0  0  0
 29 30  1  0  0  0  0
 29 31  1  0  0  0  0
 32 33  1  0  0  0  0
 33 34  2  0  0  0  0
 33 35  1  0  0  0  0
 35 36  1  0  0  0  0
 36 37  1  0  0  0  0
 37 38  2  0  0  0  0
 37 39  1  0  0  0  0
 39 40  1  1  0  0  0
 39 41  1  0  0  0  0
 39 49  1  0  0  0  0
 41 42  1  0  0  0  0
 42 43  2  0  0  0  0
 42 48  1  0  0  0  0
 43 44  1  0  0  0  0
 44 45  2  0  0  0  0
 45 46  1  0  0  0  0
 45 47  1  0  0  0  0
 47 48  2  0  0  0  0
 49 50  1  0  0  0  0
 50 51  2  0  0  0  0
 50 52  1  0  0  0  0
 52 53  1  1  0  0  0
 52 54  1  0  0  0  0
 52 56  1  0  0  0  0
 54 55  1  0  0  0  0
 56 57  1  0  0  0  0
 57 58  2  0  0  0  0
 57 59  1  0  0  0  0
 59 60  1  6  0  0  0
 59 61  1  0  0  0  0
 59 71  1  0  0  0  0
 61 62  1  0  0  0  0
 62 63  2  0  0  0  0
 62 66  1  0  0  0  0
 63 64  1  0  0  0  0
 64 65  1  0  0  0  0
 65 66  2  0  0  0  0
 65 70  1  0  0  0  0
 66 67  1  0  0  0  0
 67 68  2  0  0  0  0
 68 69  1  0  0  0  0
 69 70  2  0  0  0  0
 71 72  1  0  0  0  0
 72 73  2  0  0  0  0
 72 74  1  0  0  0  0
 74 75  1  6  0  0  0
 74 76  1  0  0  0  0
 74 82  1  0  0  0  0
 76 77  1  0  0  0  0
 77 78  2  0  0  0  0
 77 81  1  0  0  0  0
 78 79  1  0  0  0  0
 79 80  2  0  0  0  0
 80 81  1  0  0  0  0
 82 83  1  0  0  0  0
 83 84  2  0  0  0  0
 83 85  1  0  0  0  0
 85 86  1  6  0  0  0
 85 87  1  0  0  0  0
 85 91  1  0  0  0  0
 87 88  1  0  0  0  0
 88 89  1  0  0  0  0
 89 90  2  0  0  0  0
 89 91  1  0  0  0  0
M  END
> <ID>
16128

> <Formula>
C55H76N16O12

> <FW>
1153.2919

> <DSSTox_CID>
31517

> <DSSTox_RID>
97402

> <DSSTox_GSID>
57728

> <DSSTox_FileID_Sort>
8469

> <TS_ChemName>
Fertirelin

> <TS_ChemName_Synonyms>


> <TS_CASRN>
38234-21-8

> <CASRN_ChemName_Relationship>
primary

> <TS_Description>
single chemical compound

> <ChemNote>


> <STRUCTURE_Shown>
tested chemical

> <STRUCTURE_Formula>
C55H76N16O12

> <STRUCTURE_MW>
1153.2919

> <STRUCTURE_ChemType>
defined organic

> <STRUCTURE_DefinedOrganicForm>
parent

> <STRUCTURE_IUPAC>
5-oxo-L-prolyl-L-histidyl-L-tryptophyl-L-seryl-L-tyrosylglycyl-L-leucyl-L-arginyl-N-ethyl-L-prolinamide

> <STRUCTURE_SMILES>
O=C(NCC)[C@@H]6CCCN6C(=O)[C@H](CCCNC(=N)N)NC(=O)[C@H](CC(C)C)NC(=O)CNC(=O)[C@H](Cc1ccc(O)cc1)NC(=O)[C@H](CO)NC(=O)[C@H](Cc3cnc2ccccc23)NC(=O)[C@H](Cc4cncn4)NC(=O)[C@@H]5CCC(=O)N5

> <STRUCTURE_SMILES_Desalt>
O=C(NCC)[C@@H]6CCCN6C(=O)[C@H](CCCNC(=N)N)NC(=O)[C@H](CC(C)C)NC(=O)CNC(=O)[C@H](Cc1ccc(O)cc1)NC(=O)[C@H](CO)NC(=O)[C@H](Cc3cnc2ccccc23)NC(=O)[C@H](Cc4cncn4)NC(=O)[C@@H]5CCC(=O)N5

> <Substance_modify_yyyymmdd>
20131018

$$$$
