3825-26-1
ChemmineR-0915142007XD

 26 24  0  0  0  0  0  0  0  0  2 V2000
    0.0000   -1.6458    0.0000 N   0  3  0  0  0  0  0  0  0  0  0  0
    3.8272   -1.3062    0.0000 C   0  0  0  0  0  0  0  0  0  0  0  0
    5.0028   -1.9985    0.0000 C   0  0  0  0  0  0  0  0  0  0  0  0
    6.1392   -1.3062    0.0000 C   0  0  0  0  0  0  0  0  0  0  0  0
    7.3148   -1.9985    0.0000 C   0  0  0  0  0  0  0  0  0  0  0  0
    8.4512   -1.3062    0.0000 C   0  0  0  0  0  0  0  0  0  0  0  0
    9.6268   -1.9985    0.0000 C   0  0  0  0  0  0  0  0  0  0  0  0
   10.7502   -1.3062    0.0000 C   0  0  0  0  0  0  0  0  0  0  0  0
   11.9258   -1.9985    0.0000 C   0  0  0  0  0  0  0  0  0  0  0  0
    3.8272    0.0000    0.0000 O   0  0  0  0  0  0  0  0  0  0  0  0
    2.7039   -1.9985    0.0000 O   0  5  0  0  0  0  0  0  0  0  0  0
    5.0028   -3.3047    0.0000 F   0  0  0  0  0  0  0  0  0  0  0  0
    3.8272   -2.6516    0.0000 F   0  0  0  0  0  0  0  0  0  0  0  0
    6.1392    0.0000    0.0000 F   0  0  0  0  0  0  0  0  0  0  0  0
    6.1392   -2.6516    0.0000 F   0  0  0  0  0  0  0  0  0  0  0  0
    7.3148   -3.3047    0.0000 F   0  0  0  0  0  0  0  0  0  0  0  0
    7.3148   -0.6531    0.0000 F   0  0  0  0  0  0  0  0  0  0  0  0
    8.4512    0.0000    0.0000 F   0  0  0  0  0  0  0  0  0  0  0  0
    8.4512   -2.6516    0.0000 F   0  0  0  0  0  0  0  0  0  0  0  0
    9.6268   -3.3047    0.0000 F   0  0  0  0  0  0  0  0  0  0  0  0
    9.6268   -0.6531    0.0000 F   0  0  0  0  0  0  0  0  0  0  0  0
   10.7502    0.0000    0.0000 F   0  0  0  0  0  0  0  0  0  0  0  0
   11.9258   -0.6531    0.0000 F   0  0  0  0  0  0  0  0  0  0  0  0
   13.0622   -1.3062    0.0000 F   0  0  0  0  0  0  0  0  0  0  0  0
   11.9258   -3.3047    0.0000 F   0  0  0  0  0  0  0  0  0  0  0  0
   13.0622   -2.6516    0.0000 F   0  0  0  0  0  0  0  0  0  0  0  0
  2  3  1  0  0  0  0
  2 11  1  0  0  0  0
  2 10  2  0  0  0  0
  3  4  1  0  0  0  0
  3 12  1  0  0  0  0
  3 13  1  0  0  0  0
  4  5  1  0  0  0  0
  4 14  1  0  0  0  0
  4 15  1  0  0  0  0
  5  6  1  0  0  0  0
  5 16  1  0  0  0  0
  5 17  1  0  0  0  0
  6  7  1  0  0  0  0
  6 18  1  0  0  0  0
  6 19  1  0  0  0  0
  7  8  1  0  0  0  0
  7 20  1  0  0  0  0
  7 21  1  0  0  0  0
  8  9  1  0  0  0  0
  8 22  1  0  0  0  0
  8 23  1  0  0  0  0
  9 24  1  0  0  0  0
  9 25  1  0  0  0  0
  9 26  1  0  0  0  0
M  END
> <ID>
7409

> <Formula>
C8H4F15NO2

> <FW>
431.0989 (18.0379+413.0610)

> <DSSTox_CID>
17708

> <DSSTox_RID>
79359

> <DSSTox_GSID>
37708

> <DSSTox_FileID_Sort>
4041

> <TS_ChemName>
Ammonium perfluorooctanoate

> <TS_ChemName_Synonyms>
Ammonium perfluorooctanoate (PFOA, ammonium salt)

> <TS_CASRN>
3825-26-1

> <CASRN_ChemName_Relationship>
primary

> <TS_Description>
single chemical compound

> <ChemNote>
parent [335-67-1]

> <STRUCTURE_Shown>
tested chemical

> <STRUCTURE_Formula>
C8H4F15NO2

> <STRUCTURE_MW>
431.0989

> <STRUCTURE_ChemType>
defined organic

> <STRUCTURE_DefinedOrganicForm>
salt

> <STRUCTURE_IUPAC>
ammonium pentadecafluorooctanoate

> <STRUCTURE_SMILES>
[NH4+].FC(F)(C(F)(F)C([O-])=O)C(F)(F)C(F)(F)C(F)(F)C(F)(F)C(F)(F)F

> <STRUCTURE_SMILES_Desalt>
FC(F)(C(F)(F)C(=O)O)C(F)(F)C(F)(F)C(F)(F)C(F)(F)C(F)(F)F

> <Substance_modify_yyyymmdd>
20080429

$$$$
