383-63-1
ChemmineR-0915142007XD

  9  8  0  0  0  0  0  0  0  0  1 V2000
    2.3018   -1.3236    0.0000 C   0  0  0  0  0  0  0  0  0  0  0  0
    2.3018    0.0000    0.0000 O   0  0  0  0  0  0  0  0  0  0  0  0
    3.4527   -1.9968    0.0000 O   0  0  0  0  0  0  0  0  0  0  0  0
    1.1509   -1.9968    0.0000 C   0  0  0  0  0  0  0  0  0  0  0  0
    1.8242   -3.1478    0.0000 F   0  0  0  0  0  0  0  0  0  0  0  0
    0.4949   -0.8459    0.0000 F   0  0  0  0  0  0  0  0  0  0  0  0
    0.0000   -2.6529    0.0000 F   0  0  0  0  0  0  0  0  0  0  0  0
    4.6037   -1.3236    0.0000 C   0  0  0  0  0  0  0  0  0  0  0  0
    5.7546   -1.9968    0.0000 C   0  0  0  0  0  0  0  0  0  0  0  0
  1  2  2  0  0  0  0
  1  3  1  0  0  0  0
  1  4  1  0  0  0  0
  3  8  1  0  0  0  0
  4  5  1  0  0  0  0
  4  6  1  0  0  0  0
  4  7  1  0  0  0  0
  8  9  1  0  0  0  0
M  END
> <ID>
8894

> <Formula>
C4H5F3O2

> <FW>
142.0765

> <DSSTox_CID>
21959

> <DSSTox_RID>
79886

> <DSSTox_GSID>
41959

> <DSSTox_FileID_Sort>
4568

> <TS_ChemName>
Ethyl trifluoroacetate

> <TS_ChemName_Synonyms>


> <TS_CASRN>
383-63-1

> <CASRN_ChemName_Relationship>
primary

> <TS_Description>
single chemical compound

> <ChemNote>


> <STRUCTURE_Shown>
tested chemical

> <STRUCTURE_Formula>
C4H5F3O2

> <STRUCTURE_MW>
142.0765

> <STRUCTURE_ChemType>
defined organic

> <STRUCTURE_DefinedOrganicForm>
parent

> <STRUCTURE_IUPAC>
ethyl trifluoroacetate

> <STRUCTURE_SMILES>
FC(F)(F)C(=O)OCC

> <STRUCTURE_SMILES_Desalt>
FC(F)(F)C(=O)OCC

> <Substance_modify_yyyymmdd>
20080825

$$$$
