38304-91-5
ChemmineR-0915142007XD

 15 16  0  0  0  0  0  0  0  0  2 V2000
    5.7115   -3.9822    0.0000 N   0  3  0  0  0  0  0  0  0  0  0  0
    5.7115   -2.6525    0.0000 C   0  0  0  0  0  0  0  0  0  0  0  0
    4.5747   -1.9980    0.0000 N   0  0  0  0  0  0  0  0  0  0  0  0
    3.4242   -2.6525    0.0000 C   0  0  0  0  0  0  0  0  0  0  0  0
    4.5747   -4.6505    0.0000 C   0  0  0  0  0  0  0  0  0  0  0  0
    3.4242   -3.9822    0.0000 C   0  0  0  0  0  0  0  0  0  0  0  0
    2.2874   -1.9980    0.0000 N   0  0  0  0  0  0  0  0  0  0  0  0
    6.8896   -4.6781    0.0000 O   0  5  0  0  0  0  0  0  0  0  0  0
    6.8896   -1.9567    0.0000 N   0  0  0  0  0  0  0  0  0  0  0  0
    4.5747   -5.9802    0.0000 N   0  0  0  0  0  0  0  0  0  0  0  0
    1.1368   -2.6525    0.0000 C   0  0  0  0  0  0  0  0  0  0  0  0
    2.2874   -0.6545    0.0000 C   0  0  0  0  0  0  0  0  0  0  0  0
    1.1368    0.0000    0.0000 C   0  0  0  0  0  0  0  0  0  0  0  0
    0.0000   -1.9980    0.0000 C   0  0  0  0  0  0  0  0  0  0  0  0
    0.0000   -0.6545    0.0000 C   0  0  0  0  0  0  0  0  0  0  0  0
  1  2  2  0  0  0  0
  1  5  1  0  0  0  0
  1  8  1  0  0  0  0
  2  3  1  0  0  0  0
  2  9  1  0  0  0  0
  3  4  2  0  0  0  0
  4  6  1  0  0  0  0
  4  7  1  0  0  0  0
  5  6  2  0  0  0  0
  5 10  1  0  0  0  0
  7 11  1  0  0  0  0
  7 12  1  0  0  0  0
 11 14  1  0  0  0  0
 12 13  1  0  0  0  0
 13 15  1  0  0  0  0
 14 15  1  0  0  0  0
M  END
> <ID>
7883

> <Formula>
C9H15N5O

> <FW>
209.2483

> <DSSTox_CID>
20685

> <DSSTox_RID>
79541

> <DSSTox_GSID>
40685

> <DSSTox_FileID_Sort>
4223

> <TS_ChemName>
Minoxidil

> <TS_ChemName_Synonyms>


> <TS_CASRN>
38304-91-5

> <CASRN_ChemName_Relationship>
primary

> <TS_Description>
single chemical compound

> <ChemNote>


> <STRUCTURE_Shown>
tested chemical

> <STRUCTURE_Formula>
C9H15N5O

> <STRUCTURE_MW>
209.2483

> <STRUCTURE_ChemType>
defined organic

> <STRUCTURE_DefinedOrganicForm>
parent

> <STRUCTURE_IUPAC>
6-(piperidin-1-yl)pyrimidine-2,4-diamine 3-oxide

> <STRUCTURE_SMILES>
Nc1cc(nc(N)[n+]1[O-])N2CCCCC2

> <STRUCTURE_SMILES_Desalt>
Nc1cc(nc(N)[n+]1O)N2CCCCC2

> <Substance_modify_yyyymmdd>
20080429

$$$$
