3836-23-5
ChemmineR-0915142007XD

 34 37  0  0  1  0  0  0  0  0  1 V2000
    7.1028   -3.5849    0.0000 C   0  0  0  0  0  0  0  0  0  0  0  0
    7.1028   -4.9362    0.0000 C   0  0  0  0  0  0  0  0  0  0  0  0
    3.6073   -6.9912    0.0000 C   0  0  0  0  0  0  0  0  0  0  0  0
    5.9972   -5.6175    0.0000 C   0  0  0  0  0  0  0  0  0  0  0  0
    4.7576   -4.9362    0.0000 C   0  0  0  0  0  0  0  0  0  0  0  0
    3.6073   -5.6175    0.0000 C   0  0  0  0  0  0  0  0  0  0  0  0
    8.4095   -3.1717    0.0000 C   0  0  0  0  0  0  0  0  0  0  0  0
    2.4123   -7.6501    0.0000 C   0  0  0  0  0  0  0  0  0  0  0  0
    9.7832   -3.1717    0.0000 C   0  0  0  0  0  0  0  0  0  0  0  0
    5.9972   -2.8813    0.0000 C   0  0  0  0  0  0  0  0  0  0  0  0
    4.7576   -3.5849    0.0000 C   0  0  0  0  0  0  0  0  0  0  0  0
    5.9972   -6.9912    0.0000 C   0  0  0  0  0  0  0  0  0  0  0  0
    8.4095   -5.3495    0.0000 C   0  0  0  0  0  0  0  0  0  0  0  0
   11.1680   -3.1717    0.0000 C   0  0  0  0  0  0  0  0  0  0  0  0
    2.4123   -4.9362    0.0000 C   0  0  0  0  0  0  0  0  0  0  0  0
    4.7576   -7.6501    0.0000 C   0  0  0  0  0  0  0  0  0  0  0  0
    1.2285   -6.9912    0.0000 C   0  0  0  0  0  0  0  0  0  0  0  0
    9.2024   -4.2327    0.0000 C   0  0  0  0  0  0  0  0  0  0  0  0
    0.0000   -7.6947    0.0000 O   0  0  0  0  0  0  0  0  0  0  0  0
    1.2285   -5.6175    0.0000 C   0  0  0  0  0  0  0  0  0  0  0  0
    8.4095   -1.7869    0.0000 O   0  0  0  0  0  0  0  0  0  0  0  0
    7.1028   -2.2001    0.0000 C   0  0  0  0  0  0  0  0  0  0  0  0
    5.9972   -4.2327    0.0000 H   0  0  0  0  0  0  0  0  0  0  0  0
    4.7576   -6.3099    0.0000 H   0  0  0  0  0  0  0  0  0  0  0  0
    7.1028   -6.3099    0.0000 H   0  0  0  0  0  0  0  0  0  0  0  0
    3.6073   -4.2327    0.0000 H   0  0  0  0  0  0  0  0  0  0  0  0
    7.3709   -1.1726    0.0000 C   0  0  0  0  0  0  0  0  0  0  0  0
    7.3709    0.0000    0.0000 O   0  0  0  0  0  0  0  0  0  0  0  0
    6.3769   -1.7869    0.0000 C   0  0  0  0  0  0  0  0  0  0  0  0
    5.3383   -1.1726    0.0000 C   0  0  0  0  0  0  0  0  0  0  0  0
    2.3006   -1.7869    0.0000 C   0  0  0  0  0  0  0  0  0  0  0  0
    3.3504   -1.1726    0.0000 C   0  0  0  0  0  0  0  0  0  0  0  0
    4.3443   -1.7869    0.0000 C   0  0  0  0  0  0  0  0  0  0  0  0
    1.2620   -1.1726    0.0000 C   0  0  0  0  0  0  0  0  0  0  0  0
  1  2  1  0  0  0  0
  1  7  1  0  0  0  0
  1 10  1  0  0  0  0
  1 22  1  1  0  0  0
  2  4  1  0  0  0  0
  2 13  1  0  0  0  0
  2 25  1  6  0  0  0
  3  6  1  0  0  0  0
  3  8  2  0  0  0  0
  3 16  1  0  0  0  0
  4 12  1  0  0  0  0
  4  5  1  0  0  0  0
  4 23  1  1  0  0  0
  5 11  1  0  0  0  0
  5  6  1  0  0  0  0
  5 24  1  6  0  0  0
  6 15  1  0  0  0  0
  6 26  1  1  0  0  0
  7  9  1  0  0  0  0
  7 18  1  0  0  0  0
  7 21  1  1  0  0  0
  8 17  1  0  0  0  0
  9 14  3  0  0  0  0
 10 11  1  0  0  0  0
 12 16  1  0  0  0  0
 13 18  1  0  0  0  0
 15 20  1  0  0  0  0
 17 20  1  0  0  0  0
 17 19  2  0  0  0  0
 21 27  1  0  0  0  0
 27 28  2  0  0  0  0
 27 29  1  0  0  0  0
 29 30  1  0  0  0  0
 30 33  1  0  0  0  0
 31 32  1  0  0  0  0
 31 34  1  0  0  0  0
 32 33  1  0  0  0  0
M  END
> <ID>
13659

> <Formula>
C27H38O3

> <FW>
410.5888

> <DSSTox_CID>
28590

> <DSSTox_RID>
82861

> <DSSTox_GSID>
48664

> <DSSTox_FileID_Sort>
7538

> <TS_ChemName>
Noristerat

> <TS_ChemName_Synonyms>


> <TS_CASRN>
3836-23-5

> <CASRN_ChemName_Relationship>
primary

> <TS_Description>
single chemical compound

> <ChemNote>


> <STRUCTURE_Shown>
tested chemical

> <STRUCTURE_Formula>
C27H38O3

> <STRUCTURE_MW>
410.5888

> <STRUCTURE_ChemType>
defined organic

> <STRUCTURE_DefinedOrganicForm>
parent

> <STRUCTURE_IUPAC>
(17beta)-17-ethynyl-3-oxoestr-4-en-17-yl heptanoate

> <STRUCTURE_SMILES>
CCCCCCC(=O)O[C@@]3(C#C)CC[C@H]2[C@@H]4CCC1=CC(=O)CC[C@@H]1[C@H]4CC[C@@]23C

> <STRUCTURE_SMILES_Desalt>
CCCCCCC(=O)O[C@@]3(C#C)CC[C@H]2[C@@H]4CCC1=CC(=O)CC[C@@H]1[C@H]4CC[C@@]23C

> <Substance_modify_yyyymmdd>
20111204

$$$$
