38363-32-5
ChemmineR-0915142007XD

 47 48  0  0  1  0  0  0  0  0  1 V2000
   10.9443  -11.1443    0.0000 C   0  0  0  0  0  0  0  0  0  0  0  0
   10.2871  -12.3016    0.0000 C   0  0  0  0  0  0  0  0  0  0  0  0
    9.6155  -13.4589    0.0000 C   0  0  0  0  0  0  0  0  0  0  0  0
   11.4301  -12.9588    0.0000 C   0  0  0  0  0  0  0  0  0  0  0  0
    9.1298  -11.6158    0.0000 N   0  0  0  0  0  0  0  0  0  0  0  0
    7.9725  -12.3016    0.0000 C   0  0  0  0  0  0  0  0  0  0  0  0
    6.8437  -11.6158    0.0000 C   0  0  0  0  0  0  0  0  0  0  0  0
    6.8437  -10.3013    0.0000 O   0  0  0  0  0  0  0  0  0  0  0  0
    5.6722  -12.3016    0.0000 C   0  0  0  0  0  0  0  0  0  0  0  0
    4.5292  -11.6158    0.0000 O   0  0  0  0  0  0  0  0  0  0  0  0
    3.3719  -12.3016    0.0000 C   0  0  0  0  0  0  0  0  0  0  0  0
    2.2289  -11.6158    0.0000 C   0  0  0  0  0  0  0  0  0  0  0  0
    1.0716  -12.3016    0.0000 C   0  0  0  0  0  0  0  0  0  0  0  0
    1.0716  -13.6303    0.0000 C   0  0  0  0  0  0  0  0  0  0  0  0
    2.2289  -14.2876    0.0000 C   0  0  0  0  0  0  0  0  0  0  0  0
    3.3719  -13.6303    0.0000 C   0  0  0  0  0  0  0  0  0  0  0  0
    2.2289  -10.3013    0.0000 C   0  0  0  0  0  0  0  0  0  0  0  0
    3.3004   -9.5155    0.0000 C   0  0  0  0  0  0  0  0  0  0  0  0
    2.8861   -8.2582    0.0000 C   0  0  0  0  0  0  0  0  0  0  0  0
    1.5573   -8.2582    0.0000 C   0  0  0  0  0  0  0  0  0  0  0  0
    1.1573   -9.5155    0.0000 C   0  0  0  0  0  0  0  0  0  0  0  0
    9.8727   -2.8861    0.0000 C   0  0  0  0  0  0  0  0  0  0  0  0
    9.2155   -4.0434    0.0000 C   0  0  0  0  0  0  0  0  0  0  0  0
    8.5440   -5.2007    0.0000 C   0  0  0  0  0  0  0  0  0  0  0  0
   10.3585   -4.7006    0.0000 C   0  0  0  0  0  0  0  0  0  0  0  0
    8.0582   -3.3719    0.0000 N   0  0  0  0  0  0  0  0  0  0  0  0
    6.9009   -4.0434    0.0000 C   0  0  0  0  0  0  0  0  0  0  0  0
    5.7579   -3.3719    0.0000 C   0  0  0  0  0  0  0  0  0  0  0  0
    5.7579   -2.0574    0.0000 O   0  0  0  0  0  0  0  0  0  0  0  0
    4.5863   -4.0434    0.0000 C   0  0  0  0  0  0  0  0  0  0  0  0
    3.4576   -3.3719    0.0000 O   0  0  0  0  0  0  0  0  0  0  0  0
    2.3003   -4.0434    0.0000 C   0  0  0  0  0  0  0  0  0  0  0  0
    1.1573   -3.3719    0.0000 C   0  0  0  0  0  0  0  0  0  0  0  0
    0.0000   -4.0434    0.0000 C   0  0  0  0  0  0  0  0  0  0  0  0
    0.0000   -5.3721    0.0000 C   0  0  0  0  0  0  0  0  0  0  0  0
    1.1573   -6.0294    0.0000 C   0  0  0  0  0  0  0  0  0  0  0  0
    2.3003   -5.3721    0.0000 C   0  0  0  0  0  0  0  0  0  0  0  0
    1.1573   -2.0574    0.0000 C   0  0  0  0  0  0  0  0  0  0  0  0
    2.2289   -1.2716    0.0000 C   0  0  0  0  0  0  0  0  0  0  0  0
    1.8145    0.0000    0.0000 C   0  0  0  0  0  0  0  0  0  0  0  0
    0.4858    0.0000    0.0000 C   0  0  0  0  0  0  0  0  0  0  0  0
    0.0857   -1.2716    0.0000 C   0  0  0  0  0  0  0  0  0  0  0  0
    5.3007   -6.7580    0.0000 S   0  0  0  0  0  0  0  0  0  0  0  0
    6.6294   -6.7580    0.0000 O   0  0  0  0  0  0  0  0  0  0  0  0
    3.9719   -6.7580    0.0000 O   0  0  0  0  0  0  0  0  0  0  0  0
    5.3007   -8.0868    0.0000 O   0  0  0  0  0  0  0  0  0  0  0  0
    5.3007   -5.4293    0.0000 O   0  0  0  0  0  0  0  0  0  0  0  0
  1  2  1  0  0  0  0
  2  3  1  0  0  0  0
  2  4  1  0  0  0  0
  2  5  1  0  0  0  0
  5  6  1  0  0  0  0
  6  7  1  0  0  0  0
  7  8  1  1  0  0  0
  7  9  1  0  0  0  0
  9 10  1  0  0  0  0
 10 11  1  0  0  0  0
 11 12  2  0  0  0  0
 11 16  1  0  0  0  0
 12 13  1  0  0  0  0
 12 17  1  0  0  0  0
 13 14  2  0  0  0  0
 14 15  1  0  0  0  0
 15 16  2  0  0  0  0
 17 18  1  0  0  0  0
 17 21  1  0  0  0  0
 18 19  1  0  0  0  0
 19 20  1  0  0  0  0
 20 21  1  0  0  0  0
 22 23  1  0  0  0  0
 23 24  1  0  0  0  0
 23 25  1  0  0  0  0
 23 26  1  0  0  0  0
 26 27  1  0  0  0  0
 27 28  1  0  0  0  0
 28 29  1  1  0  0  0
 28 30  1  0  0  0  0
 30 31  1  0  0  0  0
 31 32  1  0  0  0  0
 32 33  2  0  0  0  0
 32 37  1  0  0  0  0
 33 34  1  0  0  0  0
 33 38  1  0  0  0  0
 34 35  2  0  0  0  0
 35 36  1  0  0  0  0
 36 37  2  0  0  0  0
 38 39  1  0  0  0  0
 38 42  1  0  0  0  0
 39 40  1  0  0  0  0
 40 41  1  0  0  0  0
 41 42  1  0  0  0  0
 43 44  2  0  0  0  0
 43 45  2  0  0  0  0
 43 46  1  0  0  0  0
 43 47  1  0  0  0  0
M  END
> <ID>
10966

> <Formula>
C36H60N2O8S

> <FW>
680.9352 (291.4284+291.4284+98.0785)

> <DSSTox_CID>
25467

> <DSSTox_RID>
80898

> <DSSTox_GSID>
45467

> <DSSTox_FileID_Sort>
5579

> <TS_ChemName>
Penbutolol sulfate

> <TS_ChemName_Synonyms>


> <TS_CASRN>
38363-32-5

> <CASRN_ChemName_Relationship>
primary

> <TS_Description>
single chemical compound

> <ChemNote>
stereochem; parent [38363-40-5]

> <STRUCTURE_Shown>
tested chemical

> <STRUCTURE_Formula>
C36H60N2O8S

> <STRUCTURE_MW>
680.9352

> <STRUCTURE_ChemType>
defined organic

> <STRUCTURE_DefinedOrganicForm>
complex

> <STRUCTURE_IUPAC>
(2S)-1-(tert-butylamino)-3-(2-cyclopentylphenoxy)propan-2-ol sulfate (2:1)

> <STRUCTURE_SMILES>
O=S(=O)(O)O.CC(C)(C)NC[C@H](O)COc1ccccc1C2CCCC2.CC(C)(C)NC[C@H](O)COc1ccccc1C2CCCC2

> <STRUCTURE_SMILES_Desalt>
CC(C)(C)NC[C@H](O)COc1ccccc1C2CCCC2

> <Substance_modify_yyyymmdd>
20100107

$$$$
