38398-32-2
ChemmineR-0915142007XD

 28 31  0  0  1  0  0  0  0  0  1 V2000
    5.9392   -4.6428    0.0000 C   0  0  0  0  0  0  0  0  0  0  0  0
    4.7735   -3.9796    0.0000 C   0  0  0  0  0  0  0  0  0  0  0  0
    7.0748   -3.9796    0.0000 C   0  0  0  0  0  0  0  0  0  0  0  0
    5.9392   -5.9694    0.0000 C   0  0  0  0  0  0  0  0  0  0  0  0
    3.6278   -4.6428    0.0000 C   0  0  0  0  0  0  0  0  0  0  0  0
    4.7735   -2.6531    0.0000 C   0  0  0  0  0  0  0  0  0  0  0  0
    7.0748   -2.6531    0.0000 C   0  0  0  0  0  0  0  0  0  0  0  0
    8.3511   -4.4017    0.0000 C   0  0  0  0  0  0  0  0  0  0  0  0
    4.7735   -6.6427    0.0000 C   0  0  0  0  0  0  0  0  0  0  0  0
    3.6278   -5.9694    0.0000 C   0  0  0  0  0  0  0  0  0  0  0  0
    2.4923   -3.9796    0.0000 C   0  0  0  0  0  0  0  0  0  0  0  0
    3.6278   -3.3163    0.0000 C   0  0  0  0  0  0  0  0  0  0  0  0
    5.9392   -1.9797    0.0000 C   0  0  0  0  0  0  0  0  0  0  0  0
    8.3511   -2.2410    0.0000 C   0  0  0  0  0  0  0  0  0  0  0  0
    7.0547   -1.3466    0.0000 C   0  0  0  0  0  0  0  0  0  0  0  0
    9.1349   -3.3163    0.0000 C   0  0  0  0  0  0  0  0  0  0  0  0
    2.4923   -6.6427    0.0000 C   0  0  0  0  0  0  0  0  0  0  0  0
    1.3265   -4.6428    0.0000 C   0  0  0  0  0  0  0  0  0  0  0  0
    8.7732   -0.9748    0.0000 C   0  0  0  0  0  0  0  0  0  0  0  0
    1.3265   -5.9694    0.0000 C   0  0  0  0  0  0  0  0  0  0  0  0
    7.8587    0.0000    0.0000 C   0  0  0  0  0  0  0  0  0  0  0  0
   10.0494   -0.7035    0.0000 O   0  0  0  0  0  0  0  0  0  0  0  0
    0.0000   -5.9694    0.0000 C   0  0  0  0  0  0  0  0  0  0  0  0
    0.6733   -7.1351    0.0000 O   0  0  0  0  0  0  0  0  0  0  0  0
    3.6278   -7.2959    0.0000 H   0  0  0  0  0  0  0  0  0  0  0  0
    4.7735   -5.3162    0.0000 H   0  0  0  0  0  0  0  0  0  0  0  0
    5.9392   -3.3163    0.0000 H   0  0  0  0  0  0  0  0  0  0  0  0
    7.0748   -5.3162    0.0000 H   0  0  0  0  0  0  0  0  0  0  0  0
  1  2  1  0  0  0  0
  1  3  1  0  0  0  0
  1  4  1  0  0  0  0
  1 27  1  1  0  0  0
  2  5  1  0  0  0  0
  2  6  1  0  0  0  0
  2 26  1  6  0  0  0
  3  7  1  0  0  0  0
  3  8  1  0  0  0  0
  3 28  1  6  0  0  0
  4  9  1  0  0  0  0
  5 10  1  0  0  0  0
  5 11  1  0  0  0  0
  5 12  1  1  0  0  0
  6 13  1  0  0  0  0
  7 14  1  0  0  0  0
  7 15  1  1  0  0  0
  7 13  1  0  0  0  0
  8 16  1  0  0  0  0
  9 10  1  0  0  0  0
 10 17  1  0  0  0  0
 10 25  1  6  0  0  0
 11 18  1  0  0  0  0
 14 19  1  1  0  0  0
 14 16  1  0  0  0  0
 17 20  1  0  0  0  0
 18 20  1  0  0  0  0
 19 21  1  0  0  0  0
 19 22  2  0  0  0  0
 20 23  1  1  0  0  0
 20 24  1  6  0  0  0
M  END
> <ID>
11738

> <Formula>
C22H36O2

> <FW>
332.52

> <DSSTox_CID>
26503

> <DSSTox_RID>
81672

> <DSSTox_GSID>
46503

> <DSSTox_FileID_Sort>
6353

> <TS_ChemName>
Ganaxolone

> <TS_ChemName_Synonyms>


> <TS_CASRN>
38398-32-2

> <CASRN_ChemName_Relationship>
primary

> <TS_Description>
single chemical compound

> <ChemNote>
stereochem

> <STRUCTURE_Shown>
tested chemical

> <STRUCTURE_Formula>
C22H36O2

> <STRUCTURE_MW>
332.52

> <STRUCTURE_ChemType>
defined organic

> <STRUCTURE_DefinedOrganicForm>
parent

> <STRUCTURE_IUPAC>
(3alpha,5alpha)-3-hydroxy-3-methylpregnan-20-one

> <STRUCTURE_SMILES>
CC(=O)[C@H]4CC[C@@H]3[C@]4(C)CC[C@H]1[C@H]3CC[C@H]2C[C@](C)(O)CC[C@]12C

> <STRUCTURE_SMILES_Desalt>
CC(=O)[C@H]4CC[C@@H]3[C@]4(C)CC[C@H]1[C@H]3CC[C@H]2C[C@](C)(O)CC[C@]12C

> <Substance_modify_yyyymmdd>
20110812

$$$$
