384-22-5
ChemmineR-0915142007XD

 13 13  0  0  0  0  0  0  0  0  2 V2000
    3.9879   -4.7855    0.0000 F   0  0  0  0  0  0  0  0  0  0  0  0
    3.9879   -3.4562    0.0000 C   0  0  0  0  0  0  0  0  0  0  0  0
    3.9879   -2.1269    0.0000 F   0  0  0  0  0  0  0  0  0  0  0  0
    5.3172   -3.4562    0.0000 F   0  0  0  0  0  0  0  0  0  0  0  0
    2.6586   -3.4562    0.0000 C   0  0  0  0  0  0  0  0  0  0  0  0
    1.9940   -4.6100    0.0000 C   0  0  0  0  0  0  0  0  0  0  0  0
    0.6647   -4.6100    0.0000 C   0  0  0  0  0  0  0  0  0  0  0  0
    0.0000   -3.4562    0.0000 C   0  0  0  0  0  0  0  0  0  0  0  0
    0.6647   -2.3024    0.0000 C   0  0  0  0  0  0  0  0  0  0  0  0
    1.9940   -2.3024    0.0000 C   0  0  0  0  0  0  0  0  0  0  0  0
    2.6586   -1.1538    0.0000 N   0  3  0  0  0  0  0  0  0  0  0  0
    1.9940    0.0000    0.0000 O   0  5  0  0  0  0  0  0  0  0  0  0
    3.9879   -1.1538    0.0000 O   0  0  0  0  0  0  0  0  0  0  0  0
  1  2  1  0  0  0  0
  2  3  1  0  0  0  0
  2  4  1  0  0  0  0
  2  5  1  0  0  0  0
  5  6  2  0  0  0  0
  5 10  1  0  0  0  0
  6  7  1  0  0  0  0
  7  8  2  0  0  0  0
  8  9  1  0  0  0  0
  9 10  2  0  0  0  0
 10 11  1  0  0  0  0
 11 12  1  0  0  0  0
 11 13  2  0  0  0  0
M  END
> <ID>
4403

> <Formula>
C7H4F3NO2

> <FW>
191.1074

> <DSSTox_CID>
5793

> <DSSTox_RID>
77924

> <DSSTox_GSID>
25793

> <DSSTox_FileID_Sort>
2607

> <TS_ChemName>
1-Nitro-2-(trifluoromethyl)benzene

> <TS_ChemName_Synonyms>


> <TS_CASRN>
384-22-5

> <CASRN_ChemName_Relationship>
primary

> <TS_Description>
single chemical compound

> <ChemNote>


> <STRUCTURE_Shown>
tested chemical

> <STRUCTURE_Formula>
C7H4F3NO2

> <STRUCTURE_MW>
191.1074

> <STRUCTURE_ChemType>
defined organic

> <STRUCTURE_DefinedOrganicForm>
parent

> <STRUCTURE_IUPAC>
1-nitro-2-(trifluoromethyl)benzene

> <STRUCTURE_SMILES>
O=[N+]([O-])c1ccccc1C(F)(F)F

> <STRUCTURE_SMILES_Desalt>
O=[N+]([O-])c1ccccc1C(F)(F)F

> <Substance_modify_yyyymmdd>
20080429

$$$$
