38462-22-5
ChemmineR-0915142007XD

 12 12  0  0  0  0  0  0  0  0  1 V2000
    4.6119   -1.1530    0.0000 C   0  0  0  0  0  0  0  0  0  0  0  0
    5.2691   -2.2887    0.0000 C   0  0  0  0  0  0  0  0  0  0  0  0
    3.9374    0.0000    0.0000 C   0  0  0  0  0  0  0  0  0  0  0  0
    5.7649   -0.4785    0.0000 S   0  0  0  0  0  0  0  0  0  0  0  0
    3.4589   -1.8102    0.0000 C   0  0  0  0  0  0  0  0  0  0  0  0
    3.4589   -3.1361    0.0000 C   0  0  0  0  0  0  0  0  0  0  0  0
    2.3060   -1.1530    0.0000 C   0  0  0  0  0  0  0  0  0  0  0  0
    4.6119   -3.8106    0.0000 O   0  0  0  0  0  0  0  0  0  0  0  0
    2.3060   -3.8106    0.0000 C   0  0  0  0  0  0  0  0  0  0  0  0
    1.1530   -1.8102    0.0000 C   0  0  0  0  0  0  0  0  0  0  0  0
    1.1530   -3.1361    0.0000 C   0  0  0  0  0  0  0  0  0  0  0  0
    0.0000   -3.8106    0.0000 C   0  0  0  0  0  0  0  0  0  0  0  0
  1  2  1  0  0  0  0
  1  3  1  0  0  0  0
  1  4  1  0  0  0  0
  1  5  1  0  0  0  0
  5  6  1  0  0  0  0
  5  7  1  0  0  0  0
  6  8  2  0  0  0  0
  6  9  1  0  0  0  0
  7 10  1  0  0  0  0
  9 11  1  0  0  0  0
 10 11  1  0  0  0  0
 11 12  1  0  0  0  0
M  END
> <ID>
12341

> <Formula>
C10H18OS

> <FW>
186.3143

> <DSSTox_CID>
27195

> <DSSTox_RID>
82190

> <DSSTox_GSID>
47195

> <DSSTox_FileID_Sort>
6871

> <TS_ChemName>
p-Mentha-8-thiol-3-one

> <TS_ChemName_Synonyms>


> <TS_CASRN>
38462-22-5

> <CASRN_ChemName_Relationship>
primary

> <TS_Description>
single chemical compound

> <ChemNote>


> <STRUCTURE_Shown>
tested chemical

> <STRUCTURE_Formula>
C10H18OS

> <STRUCTURE_MW>
186.3143

> <STRUCTURE_ChemType>
defined organic

> <STRUCTURE_DefinedOrganicForm>
parent

> <STRUCTURE_IUPAC>
5-methyl-2-(2-sulfanylpropan-2-yl)cyclohexanone

> <STRUCTURE_SMILES>
CC1CC(=O)C(CC1)C(S)(C)C

> <STRUCTURE_SMILES_Desalt>
CC1CC(=O)C(CC1)C(S)(C)C

> <Substance_modify_yyyymmdd>
20100503

$$$$
