3855-32-1
ChemmineR-0915142007XD

 14 13  0  0  0  0  0  0  0  0  1 V2000
    6.8860   -2.0003    0.0000 C   0  0  0  0  0  0  0  0  0  0  0  0
    8.0470   -1.3335    0.0000 C   0  0  0  0  0  0  0  0  0  0  0  0
    9.1966   -2.0003    0.0000 C   0  0  0  0  0  0  0  0  0  0  0  0
    5.7364   -1.3335    0.0000 N   0  0  0  0  0  0  0  0  0  0  0  0
   10.3462   -1.3335    0.0000 N   0  0  0  0  0  0  0  0  0  0  0  0
    4.5868   -2.0003    0.0000 C   0  0  0  0  0  0  0  0  0  0  0  0
    3.4487   -1.3335    0.0000 C   0  0  0  0  0  0  0  0  0  0  0  0
    2.2992   -2.0003    0.0000 C   0  0  0  0  0  0  0  0  0  0  0  0
    1.1496   -1.3335    0.0000 N   0  0  0  0  0  0  0  0  0  0  0  0
    1.1496    0.0000    0.0000 C   0  0  0  0  0  0  0  0  0  0  0  0
    0.0000   -2.0003    0.0000 C   0  0  0  0  0  0  0  0  0  0  0  0
    5.7364    0.0000    0.0000 C   0  0  0  0  0  0  0  0  0  0  0  0
   10.3462    0.0000    0.0000 C   0  0  0  0  0  0  0  0  0  0  0  0
   11.4958   -2.0003    0.0000 C   0  0  0  0  0  0  0  0  0  0  0  0
  1  2  1  0  0  0  0
  1  4  1  0  0  0  0
  2  3  1  0  0  0  0
  3  5  1  0  0  0  0
  4  6  1  0  0  0  0
  4 12  1  0  0  0  0
  5 13  1  0  0  0  0
  5 14  1  0  0  0  0
  6  7  1  0  0  0  0
  7  8  1  0  0  0  0
  8  9  1  0  0  0  0
  9 10  1  0  0  0  0
  9 11  1  0  0  0  0
M  END
> <ID>
10218

> <Formula>
C11H27N3

> <FW>
201.3522

> <DSSTox_CID>
24564

> <DSSTox_RID>
80316

> <DSSTox_GSID>
44564

> <DSSTox_FileID_Sort>
4998

> <TS_ChemName>
N-[3-(Dimethylamino)propyl]-N,N',N'-trimethylpropane-1,3-diamine

> <TS_ChemName_Synonyms>
N-[3-(Dimethylamino)propyl]-N,N',N'-trimethylpropane-1,3-diamine (1,3-Propanediamine, N-[3-(dimethylamino)propyl]-N,N',N'-trimethyl-)

> <TS_CASRN>
3855-32-1

> <CASRN_ChemName_Relationship>
primary

> <TS_Description>
single chemical compound

> <ChemNote>


> <STRUCTURE_Shown>
tested chemical

> <STRUCTURE_Formula>
C11H27N3

> <STRUCTURE_MW>
201.3522

> <STRUCTURE_ChemType>
defined organic

> <STRUCTURE_DefinedOrganicForm>
parent

> <STRUCTURE_IUPAC>
N-[3-(dimethylamino)propyl]-N,N',N'-trimethylpropane-1,3-diamine

> <STRUCTURE_SMILES>
CN(C)CCCN(C)CCCN(C)C

> <STRUCTURE_SMILES_Desalt>
CN(C)CCCN(C)CCCN(C)C

> <Substance_modify_yyyymmdd>
20091116

$$$$
