38562-01-5
ChemmineR-0915142007XD

 33 32  0  0  1  0  0  0  0  0  1 V2000
   12.0840   -6.4104    0.0000 C   0  0  0  0  0  0  0  0  0  0  0  0
   10.9174   -5.7473    0.0000 O   0  0  0  0  0  0  0  0  0  0  0  0
   10.9174   -4.3964    0.0000 C   0  0  0  0  0  0  0  0  0  0  0  0
   12.2805   -4.3964    0.0000 N   0  0  0  0  0  0  0  0  0  0  0  0
    9.5665   -4.3964    0.0000 C   0  0  0  0  0  0  0  0  0  0  0  0
    8.9034   -5.5631    0.0000 O   0  0  0  0  0  0  0  0  0  0  0  0
   10.9174   -3.0456    0.0000 C   0  0  0  0  0  0  0  0  0  0  0  0
   12.0840   -2.3824    0.0000 O   0  0  0  0  0  0  0  0  0  0  0  0
    2.0140   -7.2701    0.0000 C   0  0  0  0  0  0  0  0  0  0  0  0
    3.1070   -7.9209    0.0000 C   0  0  0  0  0  0  0  0  0  0  0  0
    0.0000   -6.6683    0.0000 C   0  0  0  0  0  0  0  0  0  0  0  0
    2.0140   -5.9683    0.0000 C   0  0  0  0  0  0  0  0  0  0  0  0
    0.7368   -7.6507    0.0000 C   0  0  0  0  0  0  0  0  0  0  0  0
    0.7368   -5.5876    0.0000 C   0  0  0  0  0  0  0  0  0  0  0  0
    4.2613   -7.2701    0.0000 C   0  0  0  0  0  0  0  0  0  0  0  0
    7.8104   -1.3386    0.0000 C   0  0  0  0  0  0  0  0  0  0  0  0
    8.9770   -2.0263    0.0000 O   0  0  0  0  0  0  0  0  0  0  0  0
    4.2613   -6.0174    0.0000 C   0  0  0  0  0  0  0  0  0  0  0  0
    5.4403   -5.3789    0.0000 C   0  0  0  0  0  0  0  0  0  0  0  0
    0.3070   -4.2982    0.0000 O   0  0  0  0  0  0  0  0  0  0  0  0
    0.2702   -8.9648    0.0000 O   0  0  0  0  0  0  0  0  0  0  0  0
    7.8350    0.0000    0.0000 O   0  0  0  0  0  0  0  0  0  0  0  0
    3.1070   -5.3420    0.0000 C   0  0  0  0  0  0  0  0  0  0  0  0
    5.3789   -7.9209    0.0000 C   0  0  0  0  0  0  0  0  0  0  0  0
    5.3789   -9.2718    0.0000 O   0  0  0  0  0  0  0  0  0  0  0  0
    6.6437   -2.0140    0.0000 C   0  0  0  0  0  0  0  0  0  0  0  0
    5.4034   -4.0280    0.0000 C   0  0  0  0  0  0  0  0  0  0  0  0
    6.4964   -7.2701    0.0000 C   0  0  0  0  0  0  0  0  0  0  0  0
    6.6315   -3.3649    0.0000 C   0  0  0  0  0  0  0  0  0  0  0  0
    9.8981   -7.9700    0.0000 C   0  0  0  0  0  0  0  0  0  0  0  0
    7.6507   -7.9209    0.0000 C   0  0  0  0  0  0  0  0  0  0  0  0
    8.7683   -7.2701    0.0000 C   0  0  0  0  0  0  0  0  0  0  0  0
   11.0402   -7.3437    0.0000 C   0  0  0  0  0  0  0  0  0  0  0  0
  1  2  1  0  0  0  0
  2  3  1  0  0  0  0
  3  4  1  0  0  0  0
  3  5  1  0  0  0  0
  3  7  1  0  0  0  0
  5  6  1  0  0  0  0
  7  8  1  0  0  0  0
  9 10  1  1  0  0  0
  9 12  1  0  0  0  0
  9 13  1  0  0  0  0
 10 15  2  0  0  0  0
 11 13  1  0  0  0  0
 11 14  1  0  0  0  0
 12 14  1  0  0  0  0
 12 23  1  6  0  0  0
 13 21  1  6  0  0  0
 14 20  1  6  0  0  0
 15 24  1  0  0  0  0
 16 26  1  0  0  0  0
 16 17  2  0  0  0  0
 16 22  1  0  0  0  0
 18 23  1  0  0  0  0
 18 19  2  0  0  0  0
 19 27  1  0  0  0  0
 24 25  1  6  0  0  0
 24 28  1  0  0  0  0
 26 29  1  0  0  0  0
 27 29  1  0  0  0  0
 28 31  1  0  0  0  0
 30 32  1  0  0  0  0
 30 33  1  0  0  0  0
 31 32  1  0  0  0  0
M  END
> <ID>
11046

> <Formula>
C24H45NO8

> <FW>
475.6160 (121.1350+354.4810)

> <DSSTox_CID>
25582

> <DSSTox_RID>
80978

> <DSSTox_GSID>
45582

> <DSSTox_FileID_Sort>
5659

> <TS_ChemName>
Dinoprost tromethamine

> <TS_ChemName_Synonyms>


> <TS_CASRN>
38562-01-5

> <CASRN_ChemName_Relationship>
primary

> <TS_Description>
single chemical compound

> <ChemNote>
stereochem; parent [551-11-1]

> <STRUCTURE_Shown>
tested chemical

> <STRUCTURE_Formula>
C24H45NO8

> <STRUCTURE_MW>
475.616

> <STRUCTURE_ChemType>
defined organic

> <STRUCTURE_DefinedOrganicForm>
complex

> <STRUCTURE_IUPAC>
(5Z,9alpha,11alpha,13E,15S)-9,11,15-trihydroxyprosta-5,13-dien-1-oic acid - 2-amino-2-methoxypropane-1,3-diol (1:1)

> <STRUCTURE_SMILES>
O[C@H]1C[C@@H](O)[C@H](/C=C/[C@@H](O)CCCCC)[C@H]1C\C=C/CCCC(=O)O.OCC(N)(CO)OC

> <STRUCTURE_SMILES_Desalt>
O[C@H]1C[C@@H](O)[C@H](/C=C/[C@@H](O)CCCCC)[C@H]1C\C=C/CCCC(=O)O

> <Substance_modify_yyyymmdd>
20100107

$$$$
