3858-89-7
ChemmineR-0915142007XD

 19 18  0  0  0  0  0  0  0  0  1 V2000
    3.4619   -2.8178    0.0000 C    0  0  0  0  0  0  0  0  0  0  0  0
    3.4619   -4.1405    0.0000 C    0  0  0  0  0  0  0  0  0  0  0  0
    4.6120   -2.1392    0.0000 C    0  0  0  0  0  0  0  0  0  0  0  0
    2.3003   -2.1392    0.0000 C    0  0  0  0  0  0  0  0  0  0  0  0
    2.3003   -4.7960    0.0000 C    0  0  0  0  0  0  0  0  0  0  0  0
    9.2010   -2.0127    0.0000 N    0  0  0  0  0  0  0  0  0  0  0  0
    4.6120   -0.7821    0.0000 O    0  0  0  0  0  0  0  0  0  0  0  0
    1.1616   -4.1405    0.0000 C    0  0  0  0  0  0  0  0  0  0  0  0
    4.6120   -4.7960    0.0000 Cl   0  0  0  0  0  0  0  0  0  0  0  0
    5.7506   -2.7833    0.0000 O    0  0  0  0  0  0  0  0  0  0  0  0
    1.1616   -2.8178    0.0000 C    0  0  0  0  0  0  0  0  0  0  0  0
    0.0000   -4.7960    0.0000 N    0  0  0  0  0  0  0  0  0  0  0  0
    8.0854   -2.7028    0.0000 C    0  0  0  0  0  0  0  0  0  0  0  0
    6.8893   -2.0702    0.0000 C    0  0  0  0  0  0  0  0  0  0  0  0
    9.1665   -0.6671    0.0000 C    0  0  0  0  0  0  0  0  0  0  0  0
   10.3742   -2.6223    0.0000 C    0  0  0  0  0  0  0  0  0  0  0  0
   10.3052    0.0000    0.0000 C    0  0  0  0  0  0  0  0  0  0  0  0
   11.5013   -1.9322    0.0000 C    0  0  0  0  0  0  0  0  0  0  0  0
    8.4419   -3.9219    0.0000 Cl   0  0  0  0  0  0  0  0  0  0  0  0
  1  2  2  0  0  0  0
  1  3  1  0  0  0  0
  1  4  1  0  0  0  0
  2  5  1  0  0  0  0
  2  9  1  0  0  0  0
  3  7  2  0  0  0  0
  3 10  1  0  0  0  0
  4 11  2  0  0  0  0
  5  8  2  0  0  0  0
  6 13  1  0  0  0  0
  6 15  1  0  0  0  0
  6 16  1  0  0  0  0
  8 11  1  0  0  0  0
  8 12  1  0  0  0  0
 10 14  1  0  0  0  0
 13 14  1  0  0  0  0
 15 17  1  0  0  0  0
 16 18  1  0  0  0  0
M  END
> <ID>
13593

> <Formula>
C13H20Cl2N2O2

> <FW>
307.2161 (270.7552+36.4609)

> <DSSTox_CID>
28521

> <DSSTox_RID>
82793

> <DSSTox_GSID>
48595

> <DSSTox_FileID_Sort>
7470

> <TS_ChemName>
Chloroprocaine hydrochloride

> <TS_ChemName_Synonyms>


> <TS_CASRN>
3858-89-7

> <CASRN_ChemName_Relationship>
primary

> <TS_Description>
single chemical compound

> <ChemNote>
parent [133-16-4]

> <STRUCTURE_Shown>
tested chemical

> <STRUCTURE_Formula>
C13H20Cl2N2O2

> <STRUCTURE_MW>
307.2161

> <STRUCTURE_ChemType>
defined organic

> <STRUCTURE_DefinedOrganicForm>
complex

> <STRUCTURE_IUPAC>
2-(diethylamino)ethyl 4-amino-2-chlorobenzoate hydrochloride (1:1)

> <STRUCTURE_SMILES>
Cl.Clc1cc(N)ccc1C(=O)OCCN(CC)CC

> <STRUCTURE_SMILES_Desalt>
Clc1cc(N)ccc1C(=O)OCCN(CC)CC

> <Substance_modify_yyyymmdd>
20111014

$$$$
