386-17-4
ChemmineR-0915142007XD

 28 30  0  0  0  0  0  0  0  0  1 V2000
    4.6325   -5.9988    0.0000 C   0  0  0  0  0  0  0  0  0  0  0  0
    3.4720   -5.3437    0.0000 C   0  0  0  0  0  0  0  0  0  0  0  0
    2.3116   -5.9988    0.0000 C   0  0  0  0  0  0  0  0  0  0  0  0
    6.9253   -7.3371    0.0000 C   0  0  0  0  0  0  0  0  0  0  0  0
    5.7929   -8.0203    0.0000 C   0  0  0  0  0  0  0  0  0  0  0  0
    6.9253   -5.9988    0.0000 C   0  0  0  0  0  0  0  0  0  0  0  0
    5.7929   -5.3437    0.0000 C   0  0  0  0  0  0  0  0  0  0  0  0
    4.6325   -7.3371    0.0000 C   0  0  0  0  0  0  0  0  0  0  0  0
    3.4720   -4.0148    0.0000 C   0  0  0  0  0  0  0  0  0  0  0  0
    2.3116   -7.3371    0.0000 C   0  0  0  0  0  0  0  0  0  0  0  0
    3.4720   -1.3383    0.0000 C   0  0  0  0  0  0  0  0  0  0  0  0
    2.3116   -1.9840    0.0000 C   0  0  0  0  0  0  0  0  0  0  0  0
    4.6325   -1.9840    0.0000 C   0  0  0  0  0  0  0  0  0  0  0  0
    3.4720   -8.0203    0.0000 C   0  0  0  0  0  0  0  0  0  0  0  0
    2.3116   -3.3223    0.0000 C   0  0  0  0  0  0  0  0  0  0  0  0
    4.6325   -3.3223    0.0000 C   0  0  0  0  0  0  0  0  0  0  0  0
    8.1045   -8.0203    0.0000 O   0  0  0  0  0  0  0  0  0  0  0  0
    4.2113   -7.1686    0.0000 O   0  0  0  0  0  0  0  0  0  0  0  0
    5.7929   -9.3585    0.0000 I   0  0  0  0  0  0  0  0  0  0  0  0
    8.1045   -5.3437    0.0000 I   0  0  0  0  0  0  0  0  0  0  0  0
    1.1417   -1.3383    0.0000 I   0  0  0  0  0  0  0  0  0  0  0  0
    5.7929   -1.3383    0.0000 I   0  0  0  0  0  0  0  0  0  0  0  0
    3.4720    0.0000    0.0000 O   0  0  0  0  0  0  0  0  0  0  0  0
    3.4720   -9.3585    0.0000 O   0  0  0  0  0  0  0  0  0  0  0  0
    1.1417   -5.3437    0.0000 C   0  0  0  0  0  0  0  0  0  0  0  0
    1.1417   -8.0203    0.0000 C   0  0  0  0  0  0  0  0  0  0  0  0
    0.0000   -5.9988    0.0000 C   0  0  0  0  0  0  0  0  0  0  0  0
    0.0000   -7.3371    0.0000 C   0  0  0  0  0  0  0  0  0  0  0  0
  1  2  2  0  0  0  0
  1  7  1  0  0  0  0
  1  8  1  0  0  0  0
  2  3  1  0  0  0  0
  2  9  1  0  0  0  0
  3 10  2  0  0  0  0
  3 25  1  0  0  0  0
  4  5  1  0  0  0  0
  4 17  2  0  0  0  0
  4  6  1  0  0  0  0
  5  8  2  0  0  0  0
  5 19  1  0  0  0  0
  6  7  2  0  0  0  0
  6 20  1  0  0  0  0
  9 15  2  0  0  0  0
  9 16  1  0  0  0  0
 10 14  1  0  0  0  0
 10 26  1  0  0  0  0
 11 13  1  0  0  0  0
 11 23  1  0  0  0  0
 11 12  2  0  0  0  0
 12 15  1  0  0  0  0
 12 21  1  0  0  0  0
 13 16  2  0  0  0  0
 13 22  1  0  0  0  0
 14 18  2  0  0  0  0
 14 24  1  0  0  0  0
 25 27  2  0  0  0  0
 26 28  2  0  0  0  0
 27 28  1  0  0  0  0
M  END
> <ID>
13350

> <Formula>
C20H10I4O4

> <FW>
821.9089

> <DSSTox_CID>
28266

> <DSSTox_RID>
82749

> <DSSTox_GSID>
48291

> <DSSTox_FileID_Sort>
7426

> <TS_ChemName>
Iodophthalein

> <TS_ChemName_Synonyms>


> <TS_CASRN>
386-17-4

> <CASRN_ChemName_Relationship>
primary

> <TS_Description>
single chemical compound

> <ChemNote>


> <STRUCTURE_Shown>
tested chemical

> <STRUCTURE_Formula>
C20H10I4O4

> <STRUCTURE_MW>
821.9089

> <STRUCTURE_ChemType>
defined organic

> <STRUCTURE_DefinedOrganicForm>
parent

> <STRUCTURE_IUPAC>
2-[(3,5-diiodo-4-oxocyclohexa-2,5-dien-1-ylidene)(4-hydroxy-3,5-diiodophenyl)methyl]benzoic acid

> <STRUCTURE_SMILES>
IC1=CC(\C=C(I)C1=O)=C(/c2cc(I)c(O)c(I)c2)c3ccccc3C(=O)O

> <STRUCTURE_SMILES_Desalt>
IC1=CC(\C=C(I)C1=O)=C(/c2cc(I)c(O)c(I)c2)c3ccccc3C(=O)O

> <Substance_modify_yyyymmdd>


$$$$
