38609-97-1
ChemmineR-0915142007XD

 19 21  0  0  0  0  0  0  0  0  1 V2000
    5.7578   -1.9973    0.0000 O   0  0  0  0  0  0  0  0  0  0  0  0
    4.6092   -1.3315    0.0000 C   0  0  0  0  0  0  0  0  0  0  0  0
    4.6092    0.0000    0.0000 O   0  0  0  0  0  0  0  0  0  0  0  0
    3.4532   -1.9973    0.0000 C   0  0  0  0  0  0  0  0  0  0  0  0
    3.4532   -3.3288    0.0000 N   0  0  0  0  0  0  0  0  0  0  0  0
    4.6092   -3.9873    0.0000 C   0  0  0  0  0  0  0  0  0  0  0  0
    5.7578   -3.3288    0.0000 C   0  0  0  0  0  0  0  0  0  0  0  0
    6.9137   -3.9873    0.0000 C   0  0  0  0  0  0  0  0  0  0  0  0
    6.9137   -5.3188    0.0000 C   0  0  0  0  0  0  0  0  0  0  0  0
    5.7578   -5.9846    0.0000 C   0  0  0  0  0  0  0  0  0  0  0  0
    4.6092   -5.3188    0.0000 C   0  0  0  0  0  0  0  0  0  0  0  0
    3.4532   -5.9846    0.0000 C   0  0  0  0  0  0  0  0  0  0  0  0
    3.4532   -7.3161    0.0000 O   0  0  0  0  0  0  0  0  0  0  0  0
    2.3046   -5.3188    0.0000 C   0  0  0  0  0  0  0  0  0  0  0  0
    1.1486   -5.9846    0.0000 C   0  0  0  0  0  0  0  0  0  0  0  0
    0.0000   -5.3188    0.0000 C   0  0  0  0  0  0  0  0  0  0  0  0
    0.0000   -3.9873    0.0000 C   0  0  0  0  0  0  0  0  0  0  0  0
    1.1486   -3.3288    0.0000 C   0  0  0  0  0  0  0  0  0  0  0  0
    2.3046   -3.9873    0.0000 C   0  0  0  0  0  0  0  0  0  0  0  0
  1  2  1  0  0  0  0
  2  3  2  0  0  0  0
  2  4  1  0  0  0  0
  4  5  1  0  0  0  0
  5  6  1  0  0  0  0
  5 19  1  0  0  0  0
  6  7  2  0  0  0  0
  6 11  1  0  0  0  0
  7  8  1  0  0  0  0
  8  9  2  0  0  0  0
  9 10  1  0  0  0  0
 10 11  2  0  0  0  0
 11 12  1  0  0  0  0
 12 13  2  0  0  0  0
 12 14  1  0  0  0  0
 14 15  2  0  0  0  0
 14 19  1  0  0  0  0
 15 16  1  0  0  0  0
 16 17  2  0  0  0  0
 17 18  1  0  0  0  0
 18 19  2  0  0  0  0
M  END
> <ID>
11783

> <Formula>
C15H11NO3

> <FW>
253.2527

> <DSSTox_CID>
26557

> <DSSTox_RID>
81717

> <DSSTox_GSID>
46557

> <DSSTox_FileID_Sort>
6398

> <TS_ChemName>
Cridanimod

> <TS_ChemName_Synonyms>


> <TS_CASRN>
38609-97-1

> <CASRN_ChemName_Relationship>
primary

> <TS_Description>
single chemical compound

> <ChemNote>


> <STRUCTURE_Shown>
tested chemical

> <STRUCTURE_Formula>
C15H11NO3

> <STRUCTURE_MW>
253.2527

> <STRUCTURE_ChemType>
defined organic

> <STRUCTURE_DefinedOrganicForm>
parent

> <STRUCTURE_IUPAC>
(9-oxoacridin-10(9H)-yl)acetic acid

> <STRUCTURE_SMILES>
O=C(O)CN3c1ccccc1C(=O)c2ccccc23

> <STRUCTURE_SMILES_Desalt>
O=C(O)CN3c1ccccc1C(=O)c2ccccc23

> <Substance_modify_yyyymmdd>
20110811

$$$$
