3861-73-2
ChemmineR-0915142007XD

 45 46  0  0  0  0  0  0  0  0  2 V2000
   13.7916   -5.7438    0.0000 S    0  0  0  0  0  0  0  0  0  0  0  0
    3.1434   -8.0643    0.0000 S    0  0  0  0  0  0  0  0  0  0  0  0
    3.1434   -1.1520    0.0000 S    0  0  0  0  0  0  0  0  0  0  0  0
   11.7838   -4.5917    0.0000 C    0  0  0  0  0  0  0  0  0  0  0  0
    5.8096   -3.4561    0.0000 C    0  0  0  0  0  0  0  0  0  0  0  0
   12.4585   -5.7438    0.0000 C    0  0  0  0  0  0  0  0  0  0  0  0
    3.8017   -6.9123    0.0000 C    0  0  0  0  0  0  0  0  0  0  0  0
    3.8017   -2.3041    0.0000 C    0  0  0  0  0  0  0  0  0  0  0  0
   12.4585   -3.4561    0.0000 C    0  0  0  0  0  0  0  0  0  0  0  0
    5.1348   -4.5917    0.0000 C    0  0  0  0  0  0  0  0  0  0  0  0
    5.8096   -5.7438    0.0000 C    0  0  0  0  0  0  0  0  0  0  0  0
    3.8017   -4.5917    0.0000 C    0  0  0  0  0  0  0  0  0  0  0  0
    7.1427   -3.4561    0.0000 N    0  0  0  0  0  0  0  0  0  0  0  0
    5.1348   -2.3041    0.0000 C    0  0  0  0  0  0  0  0  0  0  0  0
    5.1348   -6.9123    0.0000 C    0  0  0  0  0  0  0  0  0  0  0  0
    8.4758   -3.4561    0.0000 N    0  0  0  0  0  0  0  0  0  0  0  0
   10.4507   -4.5917    0.0000 C    0  0  0  0  0  0  0  0  0  0  0  0
    3.1434   -5.7438    0.0000 C    0  0  0  0  0  0  0  0  0  0  0  0
    3.1434   -3.4561    0.0000 C    0  0  0  0  0  0  0  0  0  0  0  0
   13.7916   -3.4561    0.0000 N    0  0  0  0  0  0  0  0  0  0  0  0
   13.7916   -4.4271    0.0000 O    0  0  0  0  0  0  0  0  0  0  0  0
    1.9914   -7.4060    0.0000 O    0  5  0  0  0  0  0  0  0  0  0  0
    4.2790   -0.4773    0.0000 O    0  5  0  0  0  0  0  0  0  0  0  0
    9.8088   -3.4561    0.0000 C    0  0  0  0  0  0  0  0  0  0  0  0
   13.7916   -7.0768    0.0000 O    0  5  0  0  0  0  0  0  0  0  0  0
   15.1247   -5.7438    0.0000 O    0  0  0  0  0  0  0  0  0  0  0  0
    4.2790   -8.7391    0.0000 O    0  0  0  0  0  0  0  0  0  0  0  0
    2.4687   -9.2164    0.0000 O    0  0  0  0  0  0  0  0  0  0  0  0
    1.9914   -1.8104    0.0000 O    0  0  0  0  0  0  0  0  0  0  0  0
    2.4687    0.0000    0.0000 O    0  0  0  0  0  0  0  0  0  0  0  0
   11.7838   -2.3041    0.0000 C    0  0  0  0  0  0  0  0  0  0  0  0
   10.4507   -2.3041    0.0000 C    0  0  0  0  0  0  0  0  0  0  0  0
    7.1427   -5.7438    0.0000 O    0  0  0  0  0  0  0  0  0  0  0  0
   14.4499   -2.3041    0.0000 C    0  0  0  0  0  0  0  0  0  0  0  0
   11.7838   -6.9123    0.0000 C    0  0  0  0  0  0  0  0  0  0  0  0
    9.8088   -5.7438    0.0000 C    0  0  0  0  0  0  0  0  0  0  0  0
   10.4507   -6.9123    0.0000 C    0  0  0  0  0  0  0  0  0  0  0  0
   13.7916   -1.1520    0.0000 C    0  0  0  0  0  0  0  0  0  0  0  0
   15.7830   -2.3041    0.0000 C    0  0  0  0  0  0  0  0  0  0  0  0
   14.4499    0.0000    0.0000 C    0  0  0  0  0  0  0  0  0  0  0  0
   16.4578   -1.1520    0.0000 C    0  0  0  0  0  0  0  0  0  0  0  0
   15.7830    0.0000    0.0000 C    0  0  0  0  0  0  0  0  0  0  0  0
    0.0000   -7.1756    0.0000 Na   0  3  0  0  0  0  0  0  0  0  0  0
    6.2704   -0.2469    0.0000 Na   0  3  0  0  0  0  0  0  0  0  0  0
   13.8245   -8.2289    0.0000 Na   0  3  0  0  0  0  0  0  0  0  0  0
  1  6  1  0  0  0  0
  1 21  2  0  0  0  0
  1 25  1  0  0  0  0
  1 26  2  0  0  0  0
  2  7  1  0  0  0  0
  2 22  1  0  0  0  0
  2 27  2  0  0  0  0
  2 28  2  0  0  0  0
  3  8  1  0  0  0  0
  3 23  1  0  0  0  0
  3 29  2  0  0  0  0
  3 30  2  0  0  0  0
  4  6  1  0  0  0  0
  4  9  2  0  0  0  0
  4 17  1  0  0  0  0
  5 13  1  0  0  0  0
  5 10  2  0  0  0  0
  5 14  1  0  0  0  0
  6 35  2  0  0  0  0
  7 18  2  0  0  0  0
  7 15  1  0  0  0  0
  8 14  2  0  0  0  0
  8 19  1  0  0  0  0
  9 20  1  0  0  0  0
  9 31  1  0  0  0  0
 10 11  1  0  0  0  0
 10 12  1  0  0  0  0
 11 15  2  0  0  0  0
 11 33  1  0  0  0  0
 12 18  1  0  0  0  0
 12 19  2  0  0  0  0
 13 16  2  0  0  0  0
 16 24  1  0  0  0  0
 17 24  2  0  0  0  0
 17 36  1  0  0  0  0
 20 34  1  0  0  0  0
 24 32  1  0  0  0  0
 31 32  2  0  0  0  0
 34 38  2  0  0  0  0
 34 39  1  0  0  0  0
 35 37  1  0  0  0  0
 36 37  2  0  0  0  0
 38 40  1  0  0  0  0
 39 41  2  0  0  0  0
 40 42  2  0  0  0  0
 41 42  1  0  0  0  0
M  END
> <ID>
11803

> <Formula>
C26H16N3Na3O10S3

> <FW>
695.5836 (626.6160+22.9892+22.9892+22.9892)

> <DSSTox_CID>
26578

> <DSSTox_RID>
81737

> <DSSTox_GSID>
46578

> <DSSTox_FileID_Sort>
6418

> <TS_ChemName>
Anazolene sodium

> <TS_ChemName_Synonyms>


> <TS_CASRN>
3861-73-2

> <CASRN_ChemName_Relationship>
primary

> <TS_Description>
single chemical compound

> <ChemNote>
C.I. 13390; parent [7488-76-8]

> <STRUCTURE_Shown>
tested chemical

> <STRUCTURE_Formula>
C26H16N3Na3O10S3

> <STRUCTURE_MW>
695.5836

> <STRUCTURE_ChemType>
defined organic

> <STRUCTURE_DefinedOrganicForm>
salt

> <STRUCTURE_IUPAC>
trisodium 4-hydroxy-5-{[4-(phenylamino)-5-sulfonatonaphthalen-1-yl]diazenyl}naphthalene-2,7-disulfonate

> <STRUCTURE_SMILES>
[Na+].[Na+].[Na+].[O-]S(=O)(=O)c1cccc5c1c(Nc2ccccc2)ccc5/N=N/c4cc(cc3cc(cc(O)c34)S([O-])(=O)=O)S([O-])(=O)=O

> <STRUCTURE_SMILES_Desalt>
O=S(=O)(O)c1cccc5c1c(Nc2ccccc2)ccc5/N=N/c4cc(cc3cc(cc(O)c34)S(=O)(=O)O)S(=O)(=O)O

> <Substance_modify_yyyymmdd>
20110810

$$$$
