38661-72-2
ChemmineR-0915142007XD

 14 14  0  0  0  0  0  0  0  0  1 V2000
    6.9123   -0.6682    0.0000 C   0  0  0  0  0  0  0  0  0  0  0  0
    6.9123   -2.0046    0.0000 C   0  0  0  0  0  0  0  0  0  0  0  0
    5.7603    0.0000    0.0000 C   0  0  0  0  0  0  0  0  0  0  0  0
    5.7603   -2.6613    0.0000 C   0  0  0  0  0  0  0  0  0  0  0  0
    4.6082   -0.6682    0.0000 C   0  0  0  0  0  0  0  0  0  0  0  0
    4.6082   -2.0046    0.0000 C   0  0  0  0  0  0  0  0  0  0  0  0
    8.0759    0.0000    0.0000 C   0  0  0  0  0  0  0  0  0  0  0  0
    9.2280   -0.6567    0.0000 N   0  0  0  0  0  0  0  0  0  0  0  0
   10.3800    0.0000    0.0000 C   0  0  0  0  0  0  0  0  0  0  0  0
   11.5206   -0.6567    0.0000 O   0  0  0  0  0  0  0  0  0  0  0  0
    3.4447    0.0000    0.0000 C   0  0  0  0  0  0  0  0  0  0  0  0
    2.2926   -0.6682    0.0000 N   0  0  0  0  0  0  0  0  0  0  0  0
    1.1405    0.0000    0.0000 C   0  0  0  0  0  0  0  0  0  0  0  0
    0.0000   -0.6567    0.0000 O   0  0  0  0  0  0  0  0  0  0  0  0
  1  2  1  0  0  0  0
  1  3  1  0  0  0  0
  1  7  1  0  0  0  0
  2  4  1  0  0  0  0
  3  5  1  0  0  0  0
  4  6  1  0  0  0  0
  5  6  1  0  0  0  0
  5 11  1  0  0  0  0
  7  8  1  0  0  0  0
  8  9  2  0  0  0  0
  9 10  2  0  0  0  0
 11 12  1  0  0  0  0
 12 13  2  0  0  0  0
 13 14  2  0  0  0  0
M  END
> <ID>
10580

> <Formula>
C10H14N2O2

> <FW>
194.2304

> <DSSTox_CID>
24933

> <DSSTox_RID>
80598

> <DSSTox_GSID>
44933

> <DSSTox_FileID_Sort>
5280

> <TS_ChemName>
1,3-Bis(isocyanatomethyl)cyclohexane

> <TS_ChemName_Synonyms>
1,3-Bis(methylisocyanate)cyclohexane

> <TS_CASRN>
38661-72-2

> <CASRN_ChemName_Relationship>
primary

> <TS_Description>
single chemical compound

> <ChemNote>


> <STRUCTURE_Shown>
tested chemical

> <STRUCTURE_Formula>
C10H14N2O2

> <STRUCTURE_MW>
194.2304

> <STRUCTURE_ChemType>
defined organic

> <STRUCTURE_DefinedOrganicForm>
parent

> <STRUCTURE_IUPAC>
1,3-bis(isocyanatomethyl)cyclohexane

> <STRUCTURE_SMILES>
O=C=N\CC1CCCC(C\N=C=O)C1

> <STRUCTURE_SMILES_Desalt>
O=C=N\CC1CCCC(C\N=C=O)C1

> <Substance_modify_yyyymmdd>
20091116

$$$$
