3871-99-6
ChemmineR-0915142007XD

 24 22  0  0  0  0  0  0  0  0  2 V2000
    4.1935   -1.3459    0.0000 C   0  0  0  0  0  0  0  0  0  0  0  0
    5.3392   -1.9800    0.0000 C   0  0  0  0  0  0  0  0  0  0  0  0
    6.4961   -1.3459    0.0000 C   0  0  0  0  0  0  0  0  0  0  0  0
    7.6418   -1.9800    0.0000 C   0  0  0  0  0  0  0  0  0  0  0  0
    8.8320   -1.3459    0.0000 C   0  0  0  0  0  0  0  0  0  0  0  0
    9.9777   -1.9800    0.0000 C   0  0  0  0  0  0  0  0  0  0  0  0
    3.0478   -1.9800    0.0000 S   0  0  0  0  0  0  0  0  0  0  0  0
    2.2914   -0.7119    0.0000 O   0  0  0  0  0  0  0  0  0  0  0  0
    1.9021   -2.6474    0.0000 O   0  5  0  0  0  0  0  0  0  0  0  0
    3.6818   -3.1257    0.0000 O   0  0  0  0  0  0  0  0  0  0  0  0
    4.1935    0.0000    0.0000 F   0  0  0  0  0  0  0  0  0  0  0  0
    4.1935   -2.6474    0.0000 F   0  0  0  0  0  0  0  0  0  0  0  0
    5.3392   -3.3259    0.0000 F   0  0  0  0  0  0  0  0  0  0  0  0
    5.3392   -0.6785    0.0000 F   0  0  0  0  0  0  0  0  0  0  0  0
    6.4961    0.0000    0.0000 F   0  0  0  0  0  0  0  0  0  0  0  0
    6.4961   -2.6474    0.0000 F   0  0  0  0  0  0  0  0  0  0  0  0
    7.6418   -3.3259    0.0000 F   0  0  0  0  0  0  0  0  0  0  0  0
    7.6418   -0.6785    0.0000 F   0  0  0  0  0  0  0  0  0  0  0  0
    8.8320    0.0000    0.0000 F   0  0  0  0  0  0  0  0  0  0  0  0
    9.9777   -0.6785    0.0000 F   0  0  0  0  0  0  0  0  0  0  0  0
   11.1234   -1.3459    0.0000 F   0  0  0  0  0  0  0  0  0  0  0  0
    9.9777   -3.3259    0.0000 F   0  0  0  0  0  0  0  0  0  0  0  0
   11.1234   -2.6474    0.0000 F   0  0  0  0  0  0  0  0  0  0  0  0
    0.0000   -1.8242    0.0000 K   0  3  0  0  0  0  0  0  0  0  0  0
  1  2  1  0  0  0  0
  1  7  1  0  0  0  0
  1 11  1  0  0  0  0
  1 12  1  0  0  0  0
  2  3  1  0  0  0  0
  2 13  1  0  0  0  0
  2 14  1  0  0  0  0
  3  4  1  0  0  0  0
  3 15  1  0  0  0  0
  3 16  1  0  0  0  0
  4  5  1  0  0  0  0
  4 17  1  0  0  0  0
  4 18  1  0  0  0  0
  5  6  1  0  0  0  0
  5 19  1  0  0  0  0
  5 20  1  0  0  0  0
  6 21  1  0  0  0  0
  6 22  1  0  0  0  0
  6 23  1  0  0  0  0
  7  8  2  0  0  0  0
  7  9  1  0  0  0  0
  7 10  2  0  0  0  0
M  END
> <ID>
7410

> <Formula>
C6F13KO3S

> <FW>
438.2049 (399.1072+39.0978)

> <DSSTox_CID>
17709

> <DSSTox_RID>
79360

> <DSSTox_GSID>
37709

> <DSSTox_FileID_Sort>
4042

> <TS_ChemName>
Potassium perfluorohexanesulfonate

> <TS_ChemName_Synonyms>
Potassium perfluorohexanesulfonate (PFHS, K salt)

> <TS_CASRN>
3871-99-6

> <CASRN_ChemName_Relationship>
primary

> <TS_Description>
single chemical compound

> <ChemNote>
parent [355-46-4]

> <STRUCTURE_Shown>
tested chemical

> <STRUCTURE_Formula>
C6F13KO3S

> <STRUCTURE_MW>
438.2049

> <STRUCTURE_ChemType>
defined organic

> <STRUCTURE_DefinedOrganicForm>
salt

> <STRUCTURE_IUPAC>
potassium 1,1,2,2,3,3,4,4,5,5,6,6,6-tridecafluorohexane-1-sulfonate

> <STRUCTURE_SMILES>
[K+].FC(F)(C(F)(F)S([O-])(=O)=O)C(F)(F)C(F)(F)C(F)(F)C(F)(F)F

> <STRUCTURE_SMILES_Desalt>
FC(F)(C(F)(F)S(=O)(=O)O)C(F)(F)C(F)(F)C(F)(F)C(F)(F)F

> <Substance_modify_yyyymmdd>
20080429

$$$$
