38713-56-3
ChemmineR-0915142007XD

 19 19  0  0  0  0  0  0  0  0  1 V2000
    4.6272   -1.3267    0.0000 C   0  0  0  0  0  0  0  0  0  0  0  0
    3.4785   -2.0062    0.0000 C   0  0  0  0  0  0  0  0  0  0  0  0
    4.6272    0.0000    0.0000 O   0  0  0  0  0  0  0  0  0  0  0  0
    3.4785   -3.3005    0.0000 C   0  0  0  0  0  0  0  0  0  0  0  0
    2.3460   -1.3429    0.0000 C   0  0  0  0  0  0  0  0  0  0  0  0
    5.7759   -1.9900    0.0000 O   0  0  0  0  0  0  0  0  0  0  0  0
    1.1649   -3.3005    0.0000 C   0  0  0  0  0  0  0  0  0  0  0  0
    2.3298   -3.9638    0.0000 C   0  0  0  0  0  0  0  0  0  0  0  0
    1.1649   -2.0062    0.0000 C   0  0  0  0  0  0  0  0  0  0  0  0
    0.0000   -3.9800    0.0000 O   0  0  0  0  0  0  0  0  0  0  0  0
    6.9246   -1.3267    0.0000 C   0  0  0  0  0  0  0  0  0  0  0  0
    8.0895   -1.9900    0.0000 C   0  0  0  0  0  0  0  0  0  0  0  0
    9.2382   -1.3267    0.0000 C   0  0  0  0  0  0  0  0  0  0  0  0
   10.3869   -2.0062    0.0000 C   0  0  0  0  0  0  0  0  0  0  0  0
   11.5680   -1.3429    0.0000 C   0  0  0  0  0  0  0  0  0  0  0  0
   12.7167   -2.0224    0.0000 C   0  0  0  0  0  0  0  0  0  0  0  0
   13.8654   -1.3752    0.0000 C   0  0  0  0  0  0  0  0  0  0  0  0
   15.0303   -2.0547    0.0000 C   0  0  0  0  0  0  0  0  0  0  0  0
   16.1790   -1.3914    0.0000 C   0  0  0  0  0  0  0  0  0  0  0  0
  1  2  1  0  0  0  0
  1  3  2  0  0  0  0
  1  6  1  0  0  0  0
  2  4  1  0  0  0  0
  2  5  2  0  0  0  0
  4  8  2  0  0  0  0
  5  9  1  0  0  0  0
  6 11  1  0  0  0  0
  7  9  2  0  0  0  0
  7 10  1  0  0  0  0
  7  8  1  0  0  0  0
 11 12  1  0  0  0  0
 12 13  1  0  0  0  0
 13 14  1  0  0  0  0
 14 15  1  0  0  0  0
 15 16  1  0  0  0  0
 16 17  1  0  0  0  0
 17 18  1  0  0  0  0
 18 19  1  0  0  0  0
M  END
> <ID>
12960

> <Formula>
C16H24O3

> <FW>
264.36

> <DSSTox_CID>
27861

> <DSSTox_RID>
82614

> <DSSTox_GSID>
47885

> <DSSTox_FileID_Sort>
7291

> <TS_ChemName>
Nonylparaben

> <TS_ChemName_Synonyms>


> <TS_CASRN>
38713-56-3

> <CASRN_ChemName_Relationship>
primary

> <TS_Description>
single chemical compound

> <ChemNote>


> <STRUCTURE_Shown>
tested chemical

> <STRUCTURE_Formula>
C16H24O3

> <STRUCTURE_MW>
264.36

> <STRUCTURE_ChemType>
defined organic

> <STRUCTURE_DefinedOrganicForm>
parent

> <STRUCTURE_IUPAC>
nonyl 4-hydroxybenzoate

> <STRUCTURE_SMILES>
Oc1ccc(cc1)C(=O)OCCCCCCCCC

> <STRUCTURE_SMILES_Desalt>
Oc1ccc(cc1)C(=O)OCCCCCCCCC

> <Substance_modify_yyyymmdd>


$$$$
