3878-55-5
ChemmineR-0915142007XD

  9  8  0  0  0  0  0  0  0  0  1 V2000
    2.3239   -1.3428    0.0000 C   0  0  0  0  0  0  0  0  0  0  0  0
    3.4789   -1.9829    0.0000 C   0  0  0  0  0  0  0  0  0  0  0  0
    4.6338   -1.3428    0.0000 C   0  0  0  0  0  0  0  0  0  0  0  0
    5.8027   -1.9829    0.0000 C   0  0  0  0  0  0  0  0  0  0  0  0
    2.3239    0.0000    0.0000 O   0  0  0  0  0  0  0  0  0  0  0  0
    1.1550   -1.9829    0.0000 O   0  0  0  0  0  0  0  0  0  0  0  0
    5.8027   -3.3327    0.0000 O   0  0  0  0  0  0  0  0  0  0  0  0
    6.9577   -1.3428    0.0000 O   0  0  0  0  0  0  0  0  0  0  0  0
    0.0000   -1.3428    0.0000 C   0  0  0  0  0  0  0  0  0  0  0  0
  1  2  1  0  0  0  0
  1  6  1  0  0  0  0
  1  5  2  0  0  0  0
  2  3  1  0  0  0  0
  3  4  1  0  0  0  0
  4  8  1  0  0  0  0
  4  7  2  0  0  0  0
  6  9  1  0  0  0  0
M  END
> <ID>
10082

> <Formula>
C5H8O4

> <FW>
132.1146

> <DSSTox_CID>
24425

> <DSSTox_RID>
80218

> <DSSTox_GSID>
44425

> <DSSTox_FileID_Sort>
4900

> <TS_ChemName>
Monomethyl succinate

> <TS_ChemName_Synonyms>
Monomethyl succinate (Butanedioic acid, monomethyl ester)

> <TS_CASRN>
3878-55-5

> <CASRN_ChemName_Relationship>
primary

> <TS_Description>
single chemical compound

> <ChemNote>


> <STRUCTURE_Shown>
tested chemical

> <STRUCTURE_Formula>
C5H8O4

> <STRUCTURE_MW>
132.1146

> <STRUCTURE_ChemType>
defined organic

> <STRUCTURE_DefinedOrganicForm>
parent

> <STRUCTURE_IUPAC>
4-methoxy-4-oxobutanoic acid

> <STRUCTURE_SMILES>
O=C(O)CCC(=O)OC

> <STRUCTURE_SMILES_Desalt>
O=C(O)CCC(=O)OC

> <Substance_modify_yyyymmdd>
20091116

$$$$
