3878-19-1
ChemmineR-0915142007XD

 14 16  0  0  0  0  0  0  0  0  1 V2000
    3.5783   -0.2705    0.0000 N   0  0  0  0  0  0  0  0  0  0  0  0
    3.5783   -2.3881    0.0000 N   0  0  0  0  0  0  0  0  0  0  0  0
    4.3743   -1.3293    0.0000 C   0  0  0  0  0  0  0  0  0  0  0  0
    2.2953   -0.6415    0.0000 C   0  0  0  0  0  0  0  0  0  0  0  0
    2.2953   -2.0171    0.0000 C   0  0  0  0  0  0  0  0  0  0  0  0
    1.1206   -2.6586    0.0000 C   0  0  0  0  0  0  0  0  0  0  0  0
    0.0000   -2.0171    0.0000 C   0  0  0  0  0  0  0  0  0  0  0  0
    0.0000   -0.6415    0.0000 C   0  0  0  0  0  0  0  0  0  0  0  0
    1.1206    0.0000    0.0000 C   0  0  0  0  0  0  0  0  0  0  0  0
    6.4610   -0.2550    0.0000 O   0  0  0  0  0  0  0  0  0  0  0  0
    7.7284   -0.6724    0.0000 C   0  0  0  0  0  0  0  0  0  0  0  0
    5.6958   -1.3293    0.0000 C   0  0  0  0  0  0  0  0  0  0  0  0
    7.7284   -1.9707    0.0000 C   0  0  0  0  0  0  0  0  0  0  0  0
    6.4610   -2.4190    0.0000 C   0  0  0  0  0  0  0  0  0  0  0  0
  1  3  2  0  0  0  0
  1  4  1  0  0  0  0
  2  3  1  0  0  0  0
  2  5  1  0  0  0  0
  3 12  1  0  0  0  0
  4  5  1  0  0  0  0
  4  9  2  0  0  0  0
  5  6  2  0  0  0  0
  6  7  1  0  0  0  0
  7  8  2  0  0  0  0
  8  9  1  0  0  0  0
 10 11  1  0  0  0  0
 10 12  1  0  0  0  0
 11 13  2  0  0  0  0
 12 14  2  0  0  0  0
 13 14  1  0  0  0  0
M  END
> <ID>
8930

> <Formula>
C11H8N2O

> <FW>
184.194

> <DSSTox_CID>
21995

> <DSSTox_RID>
79898

> <DSSTox_GSID>
41995

> <DSSTox_FileID_Sort>
4580

> <TS_ChemName>
Fuberidazole

> <TS_ChemName_Synonyms>


> <TS_CASRN>
3878-19-1

> <CASRN_ChemName_Relationship>
primary

> <TS_Description>
single chemical compound

> <ChemNote>


> <STRUCTURE_Shown>
tested chemical

> <STRUCTURE_Formula>
C11H8N2O

> <STRUCTURE_MW>
184.194

> <STRUCTURE_ChemType>
defined organic

> <STRUCTURE_DefinedOrganicForm>
parent

> <STRUCTURE_IUPAC>
2-(furan-2-yl)-1H-benzimidazole

> <STRUCTURE_SMILES>
n1c3ccccc3nc1c2ccco2

> <STRUCTURE_SMILES_Desalt>
n1c3ccccc3nc1c2ccco2

> <Substance_modify_yyyymmdd>
20080825

$$$$
