387867-13-2
ChemmineR-0915142007XD

 41 45  0  0  0  0  0  0  0  0  1 V2000
   11.5216   -1.9909    0.0000 N   0  0  0  0  0  0  0  0  0  0  0  0
   12.6830   -2.6546    0.0000 C   0  0  0  0  0  0  0  0  0  0  0  0
   12.6830   -3.9819    0.0000 C   0  0  0  0  0  0  0  0  0  0  0  0
   11.5216   -4.6639    0.0000 N   0  0  0  0  0  0  0  0  0  0  0  0
   10.3787   -3.9819    0.0000 C   0  0  0  0  0  0  0  0  0  0  0  0
   10.3787   -2.6546    0.0000 C   0  0  0  0  0  0  0  0  0  0  0  0
   11.5216   -5.9912    0.0000 C   0  0  0  0  0  0  0  0  0  0  0  0
   12.6830   -6.6364    0.0000 N   0  0  0  0  0  0  0  0  0  0  0  0
   12.6830   -7.9822    0.0000 C   0  0  0  0  0  0  0  0  0  0  0  0
   11.5216   -8.6458    0.0000 N   0  0  0  0  0  0  0  0  0  0  0  0
   10.3787   -7.9822    0.0000 C   0  0  0  0  0  0  0  0  0  0  0  0
    9.2173   -8.6458    0.0000 C   0  0  0  0  0  0  0  0  0  0  0  0
    8.0559   -7.9822    0.0000 C   0  0  0  0  0  0  0  0  0  0  0  0
    8.0559   -6.6364    0.0000 C   0  0  0  0  0  0  0  0  0  0  0  0
    9.2173   -5.9912    0.0000 C   0  0  0  0  0  0  0  0  0  0  0  0
   10.3787   -6.6364    0.0000 C   0  0  0  0  0  0  0  0  0  0  0  0
    6.9130   -5.9912    0.0000 O   0  0  0  0  0  0  0  0  0  0  0  0
    6.9130   -4.6639    0.0000 C   0  0  0  0  0  0  0  0  0  0  0  0
    6.9130   -8.6458    0.0000 O   0  0  0  0  0  0  0  0  0  0  0  0
    5.7700   -7.9822    0.0000 C   0  0  0  0  0  0  0  0  0  0  0  0
    4.6086   -8.6458    0.0000 C   0  0  0  0  0  0  0  0  0  0  0  0
    3.4657   -7.9822    0.0000 C   0  0  0  0  0  0  0  0  0  0  0  0
    2.3043   -8.6458    0.0000 N   0  0  0  0  0  0  0  0  0  0  0  0
    2.3043   -9.9731    0.0000 C   0  0  0  0  0  0  0  0  0  0  0  0
    1.1614  -10.6367    0.0000 C   0  0  0  0  0  0  0  0  0  0  0  0
    0.0000   -9.9731    0.0000 C   0  0  0  0  0  0  0  0  0  0  0  0
    0.0000   -8.6458    0.0000 C   0  0  0  0  0  0  0  0  0  0  0  0
    1.1614   -7.9822    0.0000 C   0  0  0  0  0  0  0  0  0  0  0  0
   11.5216   -0.6636    0.0000 C   0  0  0  0  0  0  0  0  0  0  0  0
   10.3787    0.0000    0.0000 O   0  0  0  0  0  0  0  0  0  0  0  0
   12.6830    0.0000    0.0000 N   0  0  0  0  0  0  0  0  0  0  0  0
   13.8259   -0.6636    0.0000 C   0  0  0  0  0  0  0  0  0  0  0  0
   14.9873    0.0000    0.0000 C   0  0  0  0  0  0  0  0  0  0  0  0
   16.1303   -0.6636    0.0000 C   0  0  0  0  0  0  0  0  0  0  0  0
   16.1303   -1.9909    0.0000 C   0  0  0  0  0  0  0  0  0  0  0  0
   14.9873   -2.6546    0.0000 C   0  0  0  0  0  0  0  0  0  0  0  0
   13.8259   -1.9909    0.0000 C   0  0  0  0  0  0  0  0  0  0  0  0
   17.2732   -2.6546    0.0000 O   0  0  0  0  0  0  0  0  0  0  0  0
   17.2732   -3.9819    0.0000 C   0  0  0  0  0  0  0  0  0  0  0  0
   18.4346   -4.6639    0.0000 C   0  0  0  0  0  0  0  0  0  0  0  0
   16.1303   -4.6639    0.0000 C   0  0  0  0  0  0  0  0  0  0  0  0
  1  2  1  0  0  0  0
  1  6  1  0  0  0  0
  1 29  1  0  0  0  0
  2  3  1  0  0  0  0
  3  4  1  0  0  0  0
  4  5  1  0  0  0  0
  4  7  1  0  0  0  0
  5  6  1  0  0  0  0
  7  8  1  0  0  0  0
  7 16  2  0  0  0  0
  8  9  2  0  0  0  0
  9 10  1  0  0  0  0
 10 11  2  0  0  0  0
 11 12  1  0  0  0  0
 11 16  1  0  0  0  0
 12 13  2  0  0  0  0
 13 14  1  0  0  0  0
 13 19  1  0  0  0  0
 14 15  2  0  0  0  0
 14 17  1  0  0  0  0
 15 16  1  0  0  0  0
 17 18  1  0  0  0  0
 19 20  1  0  0  0  0
 20 21  1  0  0  0  0
 21 22  1  0  0  0  0
 22 23  1  0  0  0  0
 23 24  1  0  0  0  0
 23 28  1  0  0  0  0
 24 25  1  0  0  0  0
 25 26  1  0  0  0  0
 26 27  1  0  0  0  0
 27 28  1  0  0  0  0
 29 30  2  0  0  0  0
 29 31  1  0  0  0  0
 31 32  1  0  0  0  0
 32 33  1  0  0  0  0
 32 37  2  0  0  0  0
 33 34  2  0  0  0  0
 34 35  1  0  0  0  0
 35 36  2  0  0  0  0
 35 38  1  0  0  0  0
 36 37  1  0  0  0  0
 38 39  1  0  0  0  0
 39 40  1  0  0  0  0
 39 41  1  0  0  0  0
M  END
> <ID>
13936

> <Formula>
C31H42N6O4

> <FW>
562.703

> <DSSTox_CID>
28873

> <DSSTox_RID>
83142

> <DSSTox_GSID>
48947

> <DSSTox_FileID_Sort>
7819

> <TS_ChemName>
Tandutinib

> <TS_ChemName_Synonyms>


> <TS_CASRN>
387867-13-2

> <CASRN_ChemName_Relationship>
primary

> <TS_Description>
single chemical compound

> <ChemNote>


> <STRUCTURE_Shown>
tested chemical

> <STRUCTURE_Formula>
C31H42N6O4

> <STRUCTURE_MW>
562.703

> <STRUCTURE_ChemType>
defined organic

> <STRUCTURE_DefinedOrganicForm>
parent

> <STRUCTURE_IUPAC>
4-{6-methoxy-7-[3-(piperidin-1-yl)propoxy]quinazolin-4-yl}-N-[4-(propan-2-yloxy)phenyl]piperazine-1-carboxamide

> <STRUCTURE_SMILES>
CC(C)Oc1ccc(cc1)NC(=O)N2CCN(CC2)c5ncnc4cc(OCCCN3CCCCC3)c(OC)cc45

> <STRUCTURE_SMILES_Desalt>
CC(C)Oc1ccc(cc1)NC(=O)N2CCN(CC2)c5ncnc4cc(OCCCN3CCCCC3)c(OC)cc45

> <Substance_modify_yyyymmdd>
20111204

$$$$
