38821-52-2
ChemmineR-0915142007XD

 27 29  0  0  0  0  0  0  0  0  1 V2000
   10.3901   -3.5496    0.0000 C    0  0  0  0  0  0  0  0  0  0  0  0
    0.2587   -3.5496    0.0000 N    0  0  0  0  0  0  0  0  0  0  0  0
    2.3999   -3.5496    0.0000 C    0  0  0  0  0  0  0  0  0  0  0  0
    1.3221   -4.3544    0.0000 C    0  0  0  0  0  0  0  0  0  0  0  0
    9.7147   -4.6993    0.0000 N    0  0  0  0  0  0  0  0  0  0  0  0
    1.9975   -2.3137    0.0000 C    0  0  0  0  0  0  0  0  0  0  0  0
    5.7340   -4.6993    0.0000 N    0  0  0  0  0  0  0  0  0  0  0  0
    0.6754   -2.3137    0.0000 C    0  0  0  0  0  0  0  0  0  0  0  0
    9.7147   -2.3856    0.0000 O    0  0  0  0  0  0  0  0  0  0  0  0
   11.7122   -3.5496    0.0000 C    0  0  0  0  0  0  0  0  0  0  0  0
    3.7508   -3.5496    0.0000 C    0  0  0  0  0  0  0  0  0  0  0  0
    8.3925   -4.6993    0.0000 C    0  0  0  0  0  0  0  0  0  0  0  0
    7.7315   -5.8633    0.0000 C    0  0  0  0  0  0  0  0  0  0  0  0
    7.7315   -3.5496    0.0000 C    0  0  0  0  0  0  0  0  0  0  0  0
    4.4118   -4.6993    0.0000 C    0  0  0  0  0  0  0  0  0  0  0  0
    6.4094   -3.5496    0.0000 C    0  0  0  0  0  0  0  0  0  0  0  0
    6.4094   -5.8633    0.0000 C    0  0  0  0  0  0  0  0  0  0  0  0
    2.6586   -1.1497    0.0000 C    0  0  0  0  0  0  0  0  0  0  0  0
    0.0000   -1.1497    0.0000 C    0  0  0  0  0  0  0  0  0  0  0  0
   12.3733   -2.3856    0.0000 C    0  0  0  0  0  0  0  0  0  0  0  0
   12.3733   -4.6993    0.0000 C    0  0  0  0  0  0  0  0  0  0  0  0
    1.9975    0.0000    0.0000 C    0  0  0  0  0  0  0  0  0  0  0  0
    0.6754    0.0000    0.0000 C    0  0  0  0  0  0  0  0  0  0  0  0
   13.6954   -2.3856    0.0000 C    0  0  0  0  0  0  0  0  0  0  0  0
   13.6954   -4.6993    0.0000 C    0  0  0  0  0  0  0  0  0  0  0  0
   14.3708   -3.5496    0.0000 C    0  0  0  0  0  0  0  0  0  0  0  0
    4.9579   -1.5664    0.0000 Cl   0  0  0  0  0  0  0  0  0  0  0  0
  1  5  1  0  0  0  0
  1  9  2  0  0  0  0
  1 10  1  0  0  0  0
  2  4  1  0  0  0  0
  2  8  1  0  0  0  0
  3 11  1  0  0  0  0
  3  4  2  0  0  0  0
  3  6  1  0  0  0  0
  5 12  1  0  0  0  0
  6  8  2  0  0  0  0
  6 18  1  0  0  0  0
  7 16  1  0  0  0  0
  7 15  1  0  0  0  0
  7 17  1  0  0  0  0
  8 19  1  0  0  0  0
 10 20  2  0  0  0  0
 10 21  1  0  0  0  0
 11 15  1  0  0  0  0
 12 13  1  0  0  0  0
 12 14  1  0  0  0  0
 13 17  1  0  0  0  0
 14 16  1  0  0  0  0
 18 22  2  0  0  0  0
 19 23  2  0  0  0  0
 20 24  1  0  0  0  0
 21 25  2  0  0  0  0
 22 23  1  0  0  0  0
 24 26  2  0  0  0  0
 25 26  1  0  0  0  0
M  END
> <ID>
11739

> <Formula>
C22H26ClN3O

> <FW>
383.9143 (347.4534+36.4609)

> <DSSTox_CID>
26504

> <DSSTox_RID>
81673

> <DSSTox_GSID>
46504

> <DSSTox_FileID_Sort>
6354

> <TS_ChemName>
Indoramin hydrochloride

> <TS_ChemName_Synonyms>


> <TS_CASRN>
38821-52-2

> <CASRN_ChemName_Relationship>
primary

> <TS_Description>
single chemical compound

> <ChemNote>
parent [26844-12-2]

> <STRUCTURE_Shown>
tested chemical

> <STRUCTURE_Formula>
C22H26ClN3O

> <STRUCTURE_MW>
383.9143

> <STRUCTURE_ChemType>
defined organic

> <STRUCTURE_DefinedOrganicForm>
complex

> <STRUCTURE_IUPAC>
N-{1-[2-(1H-indol-3-yl)ethyl]piperidin-4-yl}benzamide hydrochloride (1:1)

> <STRUCTURE_SMILES>
Cl.O=C(NC3CCN(CCc1cnc2ccccc12)CC3)c4ccccc4

> <STRUCTURE_SMILES_Desalt>
O=C(NC3CCN(CCc1cnc2ccccc12)CC3)c4ccccc4

> <Substance_modify_yyyymmdd>
20110812

$$$$
