38821-53-3
ChemmineR-0915142007XD

 26 28  0  0  1  0  0  0  0  0  1 V2000
    7.3224   -5.9555    0.0000 N   0  0  0  0  0  0  0  0  0  0  0  0
    5.9989   -5.9555    0.0000 C   0  0  0  0  0  0  0  0  0  0  0  0
    5.9989   -4.6212    0.0000 C   0  0  0  0  0  0  0  0  0  0  0  0
    7.3224   -4.6212    0.0000 C   0  0  0  0  0  0  0  0  0  0  0  0
    8.4723   -6.6173    0.0000 C   0  0  0  0  0  0  0  0  0  0  0  0
    4.6646   -4.6212    0.0000 N   0  0  0  0  0  0  0  0  0  0  0  0
    8.4723   -3.9704    0.0000 S   0  0  0  0  0  0  0  0  0  0  0  0
    4.0137   -3.4822    0.0000 C   0  0  0  0  0  0  0  0  0  0  0  0
    9.6438   -5.9338    0.0000 C   0  0  0  0  0  0  0  0  0  0  0  0
    8.4723   -7.9624    0.0000 C   0  0  0  0  0  0  0  0  0  0  0  0
    2.6794   -3.4822    0.0000 C   0  0  0  0  0  0  0  0  0  0  0  0
    1.9852   -2.2998    0.0000 C   0  0  0  0  0  0  0  0  0  0  0  0
    9.6438   -4.6429    0.0000 C   0  0  0  0  0  0  0  0  0  0  0  0
    5.0552   -6.8885    0.0000 O   0  0  0  0  0  0  0  0  0  0  0  0
    4.6646   -2.3432    0.0000 O   0  0  0  0  0  0  0  0  0  0  0  0
    9.6113   -8.6241    0.0000 O   0  0  0  0  0  0  0  0  0  0  0  0
    2.6686   -1.1933    0.0000 C   0  0  0  0  0  0  0  0  0  0  0  0
    0.0000   -1.1933    0.0000 C   0  0  0  0  0  0  0  0  0  0  0  0
    0.6726    0.0000    0.0000 C   0  0  0  0  0  0  0  0  0  0  0  0
    2.0069   -4.6212    0.0000 N   0  0  0  0  0  0  0  0  0  0  0  0
    7.3224   -8.6350    0.0000 O   0  0  0  0  0  0  0  0  0  0  0  0
    0.6617   -2.2998    0.0000 C   0  0  0  0  0  0  0  0  0  0  0  0
   10.8480   -6.5847    0.0000 C   0  0  0  0  0  0  0  0  0  0  0  0
    1.9526    0.0000    0.0000 C   0  0  0  0  0  0  0  0  0  0  0  0
    7.3224   -3.2869    0.0000 H   0  0  0  0  0  0  0  0  0  0  0  0
    5.9989   -3.3086    0.0000 H   0  0  0  0  0  0  0  0  0  0  0  0
  1  2  1  0  0  0  0
  1  4  1  0  0  0  0
  1  5  1  0  0  0  0
  2 14  2  0  0  0  0
  2  3  1  0  0  0  0
  3  4  1  0  0  0  0
  3  6  1  1  0  0  0
  3 26  1  6  0  0  0
  4  7  1  0  0  0  0
  4 25  1  6  0  0  0
  5  9  2  0  0  0  0
  5 10  1  0  0  0  0
  6  8  1  0  0  0  0
  7 13  1  0  0  0  0
  8 11  1  0  0  0  0
  8 15  2  0  0  0  0
  9 13  1  0  0  0  0
  9 23  1  0  0  0  0
 10 16  2  0  0  0  0
 10 21  1  0  0  0  0
 11 12  1  0  0  0  0
 11 20  1  6  0  0  0
 12 17  2  0  0  0  0
 12 22  1  0  0  0  0
 17 24  1  0  0  0  0
 18 22  1  0  0  0  0
 18 19  2  0  0  0  0
 19 24  1  0  0  0  0
M  END
> <ID>
2523

> <Formula>
C16H19N3O4S

> <FW>
349.4048

> <DSSTox_CID>
2785

> <DSSTox_RID>
76729

> <DSSTox_GSID>
22785

> <DSSTox_FileID_Sort>
1413

> <TS_ChemName>
Cephradine

> <TS_ChemName_Synonyms>


> <TS_CASRN>
38821-53-3

> <CASRN_ChemName_Relationship>
primary

> <TS_Description>
single chemical compound

> <ChemNote>
stereochem

> <STRUCTURE_Shown>
tested chemical

> <STRUCTURE_Formula>
C16H19N3O4S

> <STRUCTURE_MW>
349.4048

> <STRUCTURE_ChemType>
defined organic

> <STRUCTURE_DefinedOrganicForm>
parent

> <STRUCTURE_IUPAC>
(6R,7R)-7-{[(2R)-2-amino-2-(cyclohexa-1,4-dien-1-yl)acetyl]amino}-3-methyl-8-oxo-5-thia-1-azabicyclo[4.2.0]oct-2-ene-2-carboxylic acid

> <STRUCTURE_SMILES>
CC=3CS[C@H]2N(C(=O)[C@H]2NC(=O)[C@H](N)C1=CCC=CC1)C=3C(=O)O

> <STRUCTURE_SMILES_Desalt>
CC=3CS[C@H]2N(C(=O)[C@H]2NC(=O)[C@H](N)C1=CCC=CC1)C=3C(=O)O

> <Substance_modify_yyyymmdd>
20080429

$$$$
