38916-34-6
ChemmineR-0915142007XD

115120  0  0  1  0  0  0  0  0  1 V2000
   25.2552   -2.3553    0.0000 C   0  0  0  0  0  0  0  0  0  0  0  0
   25.1133   -3.6038    0.0000 C   0  0  0  0  0  0  0  0  0  0  0  0
   26.4754   -2.0999    0.0000 C   0  0  0  0  0  0  0  0  0  0  0  0
   24.4039   -1.4472    0.0000 C   0  0  0  0  0  0  0  0  0  0  0  0
   24.0350   -4.2281    0.0000 C   0  0  0  0  0  0  0  0  0  0  0  0
   26.2767   -4.1146    0.0000 C   0  0  0  0  0  0  0  0  0  0  0  0
   27.0997   -3.1782    0.0000 N   0  0  0  0  0  0  0  0  0  0  0  0
   26.8443   -0.9364    0.0000 C   0  0  0  0  0  0  0  0  0  0  0  0
   24.8011   -0.2554    0.0000 C   0  0  0  0  0  0  0  0  0  0  0  0
   24.0350   -5.4767    0.0000 C   0  0  0  0  0  0  0  0  0  0  0  0
   26.0213    0.0000    0.0000 C   0  0  0  0  0  0  0  0  0  0  0  0
   22.9283   -6.1010    0.0000 N   0  0  0  0  0  0  0  0  0  0  0  0
   25.1133   -6.1010    0.0000 C   0  0  0  0  0  0  0  0  0  0  0  0
   21.8500   -5.4767    0.0000 C   0  0  0  0  0  0  0  0  0  0  0  0
   25.1133  -10.0453    0.0000 N   0  0  0  0  0  0  0  0  0  0  0  0
   26.2200   -5.4767    0.0000 O   0  0  0  0  0  0  0  0  0  0  0  0
   20.7717   -6.1010    0.0000 C   0  0  0  0  0  0  0  0  0  0  0  0
   21.8500   -4.2281    0.0000 O   0  0  0  0  0  0  0  0  0  0  0  0
   25.1133  -13.9613    0.0000 C   0  0  0  0  0  0  0  0  0  0  0  0
   20.7717   -7.3495    0.0000 C   0  0  0  0  0  0  0  0  0  0  0  0
   19.6650   -5.4767    0.0000 N   0  0  0  0  0  0  0  0  0  0  0  0
   24.0066  -14.6139    0.0000 C   0  0  0  0  0  0  0  0  0  0  0  0
   26.1916  -14.5856    0.0000 C   0  0  0  0  0  0  0  0  0  0  0  0
   21.8500   -7.9738    0.0000 C   0  0  0  0  0  0  0  0  0  0  0  0
   18.5867   -6.1010    0.0000 C   0  0  0  0  0  0  0  0  0  0  0  0
   22.8999  -13.9613    0.0000 N   0  0  0  0  0  0  0  0  0  0  0  0
   24.0066  -15.8625    0.0000 O   0  0  0  0  0  0  0  0  0  0  0  0
   26.1916  -15.8341    0.0000 C   0  0  0  0  0  0  0  0  0  0  0  0
   21.8500   -9.2224    0.0000 C   0  0  0  0  0  0  0  0  0  0  0  0
   22.9283   -7.3495    0.0000 C   0  0  0  0  0  0  0  0  0  0  0  0
   17.4800   -5.4767    0.0000 C   0  0  0  0  0  0  0  0  0  0  0  0
   18.5867   -7.3495    0.0000 O   0  0  0  0  0  0  0  0  0  0  0  0
   21.8216  -14.5856    0.0000 C   0  0  0  0  0  0  0  0  0  0  0  0
   27.2699  -16.4584    0.0000 C   0  0  0  0  0  0  0  0  0  0  0  0
   22.9283   -9.8183    0.0000 C   0  0  0  0  0  0  0  0  0  0  0  0
   24.0350   -7.9738    0.0000 C   0  0  0  0  0  0  0  0  0  0  0  0
   17.4800   -4.2281    0.0000 C   0  0  0  0  0  0  0  0  0  0  0  0
   16.4017   -6.1010    0.0000 N   0  0  0  0  0  0  0  0  0  0  0  0
   20.7149  -13.9613    0.0000 C   0  0  0  0  0  0  0  0  0  0  0  0
   21.8216  -15.8341    0.0000 C   0  0  0  0  0  0  0  0  0  0  0  0
   27.2699  -17.7070    0.0000 C   0  0  0  0  0  0  0  0  0  0  0  0
   24.0350   -9.2224    0.0000 C   0  0  0  0  0  0  0  0  0  0  0  0
   18.5867   -3.6038    0.0000 C   0  0  0  0  0  0  0  0  0  0  0  0
   15.2950   -5.4767    0.0000 C   0  0  0  0  0  0  0  0  0  0  0  0
   19.6366  -14.5856    0.0000 N   0  0  0  0  0  0  0  0  0  0  0  0
   20.7149  -12.7411    0.0000 O   0  0  0  0  0  0  0  0  0  0  0  0
   22.8999  -16.4584    0.0000 C   0  0  0  0  0  0  0  0  0  0  0  0
   20.7149  -16.4301    0.0000 O   0  0  0  0  0  0  0  0  0  0  0  0
   28.3766  -18.3029    0.0000 N   0  0  0  0  0  0  0  0  0  0  0  0
   19.6650   -4.2281    0.0000 C   0  0  0  0  0  0  0  0  0  0  0  0
   18.5867   -2.3836    0.0000 C   0  0  0  0  0  0  0  0  0  0  0  0
   14.2167   -6.1010    0.0000 C   0  0  0  0  0  0  0  0  0  0  0  0
   15.2950   -4.2281    0.0000 O   0  0  0  0  0  0  0  0  0  0  0  0
   18.5299  -13.9613    0.0000 C   0  0  0  0  0  0  0  0  0  0  0  0
   20.7717   -3.6038    0.0000 C   0  0  0  0  0  0  0  0  0  0  0  0
   19.6650   -1.7593    0.0000 C   0  0  0  0  0  0  0  0  0  0  0  0
   13.1100   -5.4767    0.0000 N   0  0  0  0  0  0  0  0  0  0  0  0
   14.2167   -7.3495    0.0000 C   0  0  0  0  0  0  0  0  0  0  0  0
   18.5299  -12.7127    0.0000 C   0  0  0  0  0  0  0  0  0  0  0  0
   17.3949  -14.7558    0.0000 C   0  0  0  0  0  0  0  0  0  0  0  0
   20.7717   -2.3836    0.0000 C   0  0  0  0  0  0  0  0  0  0  0  0
   12.0317   -6.1010    0.0000 C   0  0  0  0  0  0  0  0  0  0  0  0
   15.2950   -7.9454    0.0000 C   0  0  0  0  0  0  0  0  0  0  0  0
   17.4516  -12.0884    0.0000 C   0  0  0  0  0  0  0  0  0  0  0  0
   16.3449  -13.9613    0.0000 N   0  0  0  0  0  0  0  0  0  0  0  0
   17.3665  -16.0044    0.0000 O   0  0  0  0  0  0  0  0  0  0  0  0
   10.9250   -5.4767    0.0000 C   0  0  0  0  0  0  0  0  0  0  0  0
   12.0317   -7.3495    0.0000 O   0  0  0  0  0  0  0  0  0  0  0  0
   15.2950   -9.1940    0.0000 N   0  0  0  0  0  0  0  0  0  0  0  0
   16.4017   -7.3495    0.0000 O   0  0  0  0  0  0  0  0  0  0  0  0
   17.4516  -10.8399    0.0000 C   0  0  0  0  0  0  0  0  0  0  0  0
   16.3449  -12.7127    0.0000 C   0  0  0  0  0  0  0  0  0  0  0  0
   15.2666  -14.5856    0.0000 C   0  0  0  0  0  0  0  0  0  0  0  0
    9.8467   -6.1010    0.0000 N   0  0  0  0  0  0  0  0  0  0  0  0
   10.9250   -4.2281    0.0000 C   0  0  0  0  0  0  0  0  0  0  0  0
   16.3449  -10.2156    0.0000 C   0  0  0  0  0  0  0  0  0  0  0  0
   15.2666  -12.0884    0.0000 C   0  0  0  0  0  0  0  0  0  0  0  0
   14.1599  -13.9613    0.0000 C   0  0  0  0  0  0  0  0  0  0  0  0
   15.2666  -15.8341    0.0000 C   0  0  0  0  0  0  0  0  0  0  0  0
    8.7400   -5.4767    0.0000 C   0  0  0  0  0  0  0  0  0  0  0  0
   12.0317   -3.6038    0.0000 C   0  0  0  0  0  0  0  0  0  0  0  0
   15.2666  -10.8399    0.0000 C   0  0  0  0  0  0  0  0  0  0  0  0
   13.0816  -14.5572    0.0000 N   0  0  0  0  0  0  0  0  0  0  0  0
   14.1599  -12.6843    0.0000 O   0  0  0  0  0  0  0  0  0  0  0  0
   16.3449  -16.4301    0.0000 C   0  0  0  0  0  0  0  0  0  0  0  0
   14.1599  -16.4301    0.0000 O   0  0  0  0  0  0  0  0  0  0  0  0
    7.6617   -6.1010    0.0000 C   0  0  0  0  0  0  0  0  0  0  0  0
    8.7400   -4.2281    0.0000 O   0  0  0  0  0  0  0  0  0  0  0  0
   12.0317   -2.3836    0.0000 C   0  0  0  0  0  0  0  0  0  0  0  0
   11.9749  -13.9613    0.0000 C   0  0  0  0  0  0  0  0  0  0  0  0
    7.6617   -8.5697    0.0000 C   0  0  0  0  0  0  0  0  0  0  0  0
    6.5550   -5.4767    0.0000 N   0  0  0  0  0  0  0  0  0  0  0  0
   13.1100   -1.7593    0.0000 C   0  0  0  0  0  0  0  0  0  0  0  0
   10.8966  -14.5572    0.0000 C   0  0  0  0  0  0  0  0  0  0  0  0
   11.9749  -12.6843    0.0000 C   0  0  0  0  0  0  0  0  0  0  0  0
    6.5550   -9.1656    0.0000 S   0  0  0  0  0  0  0  0  0  0  0  0
    5.4767   -6.1010    0.0000 C   0  0  0  0  0  0  0  0  0  0  0  0
   13.1100   -0.5392    0.0000 N   0  0  0  0  0  0  0  0  0  0  0  0
    9.7899  -13.9613    0.0000 N   0  0  0  0  0  0  0  0  0  0  0  0
   10.8966  -15.8058    0.0000 O   0  0  0  0  0  0  0  0  0  0  0  0
   10.8966  -12.0601    0.0000 O   0  0  0  0  0  0  0  0  0  0  0  0
    7.5766  -10.8682    0.0000 S   0  0  0  0  0  0  0  0  0  0  0  0
    4.3700   -5.4767    0.0000 C   0  0  0  0  0  0  0  0  0  0  0  0
    5.4767   -7.3495    0.0000 O   0  0  0  0  0  0  0  0  0  0  0  0
    8.7116  -14.5572    0.0000 C   0  0  0  0  0  0  0  0  0  0  0  0
    7.5766  -13.9329    0.0000 C   0  0  0  0  0  0  0  0  0  0  0  0
    3.2917   -6.1010    0.0000 N   0  0  0  0  0  0  0  0  0  0  0  0
    8.7116  -15.8058    0.0000 C   0  0  0  0  0  0  0  0  0  0  0  0
    2.1850   -5.4767    0.0000 C   0  0  0  0  0  0  0  0  0  0  0  0
    7.6049  -16.4301    0.0000 O   0  0  0  0  0  0  0  0  0  0  0  0
    9.7899  -16.4301    0.0000 O   0  0  0  0  0  0  0  0  0  0  0  0
    1.1067   -6.1010    0.0000 C   0  0  0  0  0  0  0  0  0  0  0  0
    2.1850   -4.2281    0.0000 O   0  0  0  0  0  0  0  0  0  0  0  0
    1.1067   -7.3495    0.0000 C   0  0  0  0  0  0  0  0  0  0  0  0
    0.0000   -5.4767    0.0000 N   0  0  0  0  0  0  0  0  0  0  0  0
  1  2  1  0  0  0  0
  1  3  2  0  0  0  0
  1  4  1  0  0  0  0
  2  5  1  0  0  0  0
  2  6  2  0  0  0  0
  3  7  1  0  0  0  0
  3  8  1  0  0  0  0
  4  9  2  0  0  0  0
 10  5  1  1  0  0  0
  6  7  1  0  0  0  0
  8 11  2  0  0  0  0
  9 11  1  0  0  0  0
 10 12  1  0  0  0  0
 10 13  1  0  0  0  0
 12 14  1  0  0  0  0
 13 15  1  0  0  0  0
 13 16  2  0  0  0  0
 14 17  1  0  0  0  0
 14 18  2  0  0  0  0
 15 19  1  0  0  0  0
 17 20  1  6  0  0  0
 17 21  1  0  0  0  0
 19 22  1  0  0  0  0
 19 23  1  1  0  0  0
 20 24  1  0  0  0  0
 21 25  1  0  0  0  0
 22 26  1  0  0  0  0
 22 27  2  0  0  0  0
 23 28  1  0  0  0  0
 24 29  2  0  0  0  0
 24 30  1  0  0  0  0
 25 31  1  0  0  0  0
 25 32  2  0  0  0  0
 33 26  1  1  0  0  0
 28 34  1  0  0  0  0
 29 35  1  0  0  0  0
 30 36  2  0  0  0  0
 31 37  1  1  0  0  0
 31 38  1  0  0  0  0
 33 39  1  0  0  0  0
 33 40  1  0  0  0  0
 34 41  1  0  0  0  0
 35 42  2  0  0  0  0
 36 42  1  0  0  0  0
 37 43  1  0  0  0  0
 38 44  1  0  0  0  0
 39 45  1  0  0  0  0
 39 46  2  0  0  0  0
 40 47  1  0  0  0  0
 40 48  1  0  0  0  0
 41 49  1  0  0  0  0
 43 50  2  0  0  0  0
 43 51  1  0  0  0  0
 44 52  1  0  0  0  0
 44 53  2  0  0  0  0
 54 45  1  6  0  0  0
 50 55  1  0  0  0  0
 51 56  2  0  0  0  0
 52 57  1  6  0  0  0
 52 58  1  0  0  0  0
 54 59  1  0  0  0  0
 54 60  1  0  0  0  0
 55 61  2  0  0  0  0
 56 61  1  0  0  0  0
 57 62  1  0  0  0  0
 58 63  1  0  0  0  0
 59 64  1  0  0  0  0
 60 65  1  0  0  0  0
 60 66  2  0  0  0  0
 62 67  1  0  0  0  0
 62 68  2  0  0  0  0
 63 69  1  0  0  0  0
 63 70  2  0  0  0  0
 64 71  2  0  0  0  0
 64 72  1  0  0  0  0
 65 73  1  0  0  0  0
 67 74  1  1  0  0  0
 67 75  1  0  0  0  0
 71 76  1  0  0  0  0
 72 77  2  0  0  0  0
 73 78  1  0  0  0  0
 73 79  1  1  0  0  0
 74 80  1  0  0  0  0
 75 81  1  0  0  0  0
 76 82  2  0  0  0  0
 77 82  1  0  0  0  0
 78 83  1  0  0  0  0
 78 84  2  0  0  0  0
 79 85  1  0  0  0  0
 79 86  1  0  0  0  0
 80 87  1  0  0  0  0
 80 88  2  0  0  0  0
 81 89  1  0  0  0  0
 83 90  1  0  0  0  0
 87 91  1  0  0  0  0
 87 92  1  6  0  0  0
 89 93  1  0  0  0  0
 90 94  1  0  0  0  0
 90 95  1  6  0  0  0
 91 96  1  0  0  0  0
 92 97  1  0  0  0  0
 93 98  1  0  0  0  0
 94 99  1  0  0  0  0
 94100  2  0  0  0  0
 95101  1  0  0  0  0
 96102  1  0  0  0  0
 97103  1  0  0  0  0
 97104  2  0  0  0  0
 99105  1  0  0  0  0
102106  1  0  0  0  0
103107  1  0  0  0  0
105108  1  6  0  0  0
105106  1  0  0  0  0
107109  1  0  0  0  0
108110  1  0  0  0  0
108111  2  0  0  0  0
109112  1  0  0  0  0
109113  2  0  0  0  0
112114  1  0  0  0  0
112115  1  6  0  0  0
M  END
> <ID>
11974

> <Formula>
C76H104N18O19S2

> <FW>
1637.8782

> <DSSTox_CID>
26793

> <DSSTox_RID>
81910

> <DSSTox_GSID>
46793

> <DSSTox_FileID_Sort>
6591

> <TS_ChemName>
Somatostatin

> <TS_ChemName_Synonyms>


> <TS_CASRN>
38916-34-6

> <CASRN_ChemName_Relationship>
primary

> <TS_Description>
single chemical compound

> <ChemNote>
stereochem

> <STRUCTURE_Shown>
tested chemical

> <STRUCTURE_Formula>
C76H104N18O19S2

> <STRUCTURE_MW>
1637.8782

> <STRUCTURE_ChemType>
defined organic

> <STRUCTURE_DefinedOrganicForm>
parent

> <STRUCTURE_IUPAC>
L-alanylglycyl-L-cysteinyl-L-lysyl-L-asparaginyl-L-phenylalanyl-L-phenylalanyl-L-tryptophyl-L-lysyl-L-threonyl-L-phenylalanyl-L-threonyl-L-seryl-L-cysteine cyclic (3-14) disulfide

> <STRUCTURE_SMILES>
O=C6N[C@@H](CO)C(=O)N[C@@H](CSSC[C@H](NC(=O)CNC(=O)[C@H](C)N)C(=O)N[C@@H](CCCCN)C(=O)N[C@@H](CC(=O)N)C(=O)N[C@@H](Cc1ccccc1)C(=O)N[C@@H](Cc2ccccc2)C(=O)N[C@@H](Cc4cnc3ccccc34)C(=O)N[C@@H](CCCCN)C(=O)N[C@@H](C(O)C)C(=O)N[C@@H](Cc5ccccc5)C(=O)N[C@H]6C(O)C)C

> <STRUCTURE_SMILES_Desalt>
O=C6N[C@@H](CO)C(=O)N[C@@H](CSSC[C@H](NC(=O)CNC(=O)[C@H](C)N)C(=O)N[C@@H](CCCCN)C(=O)N[C@@H](CC(=O)N)C(=O)N[C@@H](Cc1ccccc1)C(=O)N[C@@H](Cc2ccccc2)C(=O)N[C@@H](Cc4cnc3ccccc34)C(=O)N[C@@H](CCCCN)C(=O)N[C@@H](C(O)C)C(=O)N[C@@H](Cc5ccccc5)C(=O)N[C@H]6C(O)C)C

> <Substance_modify_yyyymmdd>
20100802

$$$$
