38957-41-4
ChemmineR-0915142007XD

 17 18  0  0  0  0  0  0  0  0  1 V2000
    5.7600   -5.9833    0.0000 N   0  0  0  0  0  0  0  0  0  0  0  0
    4.6032   -6.6455    0.0000 N   0  0  0  0  0  0  0  0  0  0  0  0
    4.6032   -7.9778    0.0000 C   0  0  0  0  0  0  0  0  0  0  0  0
    3.4544   -5.9833    0.0000 C   0  0  0  0  0  0  0  0  0  0  0  0
    2.3056   -6.6455    0.0000 O   0  0  0  0  0  0  0  0  0  0  0  0
    3.4544   -4.6511    0.0000 C   0  0  0  0  0  0  0  0  0  0  0  0
    2.3056   -3.9889    0.0000 O   0  0  0  0  0  0  0  0  0  0  0  0
    1.1488   -4.6511    0.0000 C   0  0  0  0  0  0  0  0  0  0  0  0
    0.0000   -3.9889    0.0000 C   0  0  0  0  0  0  0  0  0  0  0  0
    4.6032   -3.9889    0.0000 C   0  0  0  0  0  0  0  0  0  0  0  0
    4.6032   -2.6566    0.0000 N   0  0  0  0  0  0  0  0  0  0  0  0
    3.4544   -1.9944    0.0000 C   0  0  0  0  0  0  0  0  0  0  0  0
    3.4544   -0.6622    0.0000 C   0  0  0  0  0  0  0  0  0  0  0  0
    4.6032    0.0000    0.0000 O   0  0  0  0  0  0  0  0  0  0  0  0
    5.7600   -0.6622    0.0000 C   0  0  0  0  0  0  0  0  0  0  0  0
    5.7600   -1.9944    0.0000 C   0  0  0  0  0  0  0  0  0  0  0  0
    5.7600   -4.6511    0.0000 C   0  0  0  0  0  0  0  0  0  0  0  0
  1  2  1  0  0  0  0
  1 17  2  0  0  0  0
  2  3  1  0  0  0  0
  2  4  1  0  0  0  0
  4  5  2  0  0  0  0
  4  6  1  0  0  0  0
  6  7  1  0  0  0  0
  6 10  2  0  0  0  0
  7  8  1  0  0  0  0
  8  9  1  0  0  0  0
 10 11  1  0  0  0  0
 10 17  1  0  0  0  0
 11 12  1  0  0  0  0
 11 16  1  0  0  0  0
 12 13  1  0  0  0  0
 13 14  1  0  0  0  0
 14 15  1  0  0  0  0
 15 16  1  0  0  0  0
M  END
> <ID>
2683

> <Formula>
C11H17N3O3

> <FW>
239.271

> <DSSTox_CID>
2981

> <DSSTox_RID>
97544

> <DSSTox_GSID>
22981

> <DSSTox_FileID_Sort>
8318

> <TS_ChemName>
Emorfazone

> <TS_ChemName_Synonyms>


> <TS_CASRN>
38957-41-4

> <CASRN_ChemName_Relationship>
primary

> <TS_Description>
single chemical compound

> <ChemNote>


> <STRUCTURE_Shown>
tested chemical

> <STRUCTURE_Formula>
C11H17N3O3

> <STRUCTURE_MW>
239.271

> <STRUCTURE_ChemType>
defined organic

> <STRUCTURE_DefinedOrganicForm>
parent

> <STRUCTURE_IUPAC>
4-ethoxy-2-methyl-5-(morpholin-4-yl)pyridazin-3(2H)-one

> <STRUCTURE_SMILES>
CCOC1=C(C=NN(C)C1=O)N2CCOCC2

> <STRUCTURE_SMILES_Desalt>
CCOC1=C(C=NN(C)C1=O)N2CCOCC2

> <Substance_modify_yyyymmdd>
20080429

$$$$
