389574-19-0
ChemmineR-0915142007XD

 27 29  0  0  0  0  0  0  0  0  1 V2000
    1.1820   -0.7840    0.0000 C    0  0  0  0  0  0  0  0  0  0  0  0
    1.1820   -2.1107    0.0000 O    0  0  0  0  0  0  0  0  0  0  0  0
    2.2916   -0.0965    0.0000 O    0  0  0  0  0  0  0  0  0  0  0  0
    0.0000   -0.0965    0.0000 C    0  0  0  0  0  0  0  0  0  0  0  0
    7.5503   -2.3519    0.0000 N    0  0  0  0  0  0  0  0  0  0  0  0
    6.9110   -3.5219    0.0000 C    0  0  0  0  0  0  0  0  0  0  0  0
    6.9110   -1.2182    0.0000 C    0  0  0  0  0  0  0  0  0  0  0  0
    5.5843   -1.1699    0.0000 C    0  0  0  0  0  0  0  0  0  0  0  0
    5.5843   -3.5219    0.0000 C    0  0  0  0  0  0  0  0  0  0  0  0
    4.8968   -2.4002    0.0000 C    0  0  0  0  0  0  0  0  0  0  0  0
    3.6183   -2.0625    0.0000 S    0  0  0  0  0  0  0  0  0  0  0  0
    3.4736   -0.7840    0.0000 C    0  0  0  0  0  0  0  0  0  0  0  0
    4.7038   -0.2412    0.0000 C    0  0  0  0  0  0  0  0  0  0  0  0
    8.9132   -2.3037    0.0000 C    0  0  0  0  0  0  0  0  0  0  0  0
    9.5524   -1.1699    0.0000 C    0  0  0  0  0  0  0  0  0  0  0  0
   10.8792   -1.1217    0.0000 C    0  0  0  0  0  0  0  0  0  0  0  0
   12.0611   -0.4824    0.0000 C    0  0  0  0  0  0  0  0  0  0  0  0
   12.0129   -1.8092    0.0000 C    0  0  0  0  0  0  0  0  0  0  0  0
    9.5524   -5.7773    0.0000 C    0  0  0  0  0  0  0  0  0  0  0  0
   10.8792   -5.7773    0.0000 C    0  0  0  0  0  0  0  0  0  0  0  0
   11.5666   -4.6074    0.0000 C    0  0  0  0  0  0  0  0  0  0  0  0
   10.8792   -3.4857    0.0000 C    0  0  0  0  0  0  0  0  0  0  0  0
    9.5524   -3.4857    0.0000 C    0  0  0  0  0  0  0  0  0  0  0  0
    8.9132   -4.6556    0.0000 C    0  0  0  0  0  0  0  0  0  0  0  0
    7.5985   -4.6556    0.0000 F    0  0  0  0  0  0  0  0  0  0  0  0
    8.8649    0.0000    0.0000 O    0  0  0  0  0  0  0  0  0  0  0  0
    3.5219   -4.5953    0.0000 Cl   0  0  0  0  0  0  0  0  0  0  0  0
  1  2  2  0  0  0  0
  1  3  1  0  0  0  0
  1  4  1  0  0  0  0
  3 12  1  0  0  0  0
  5  6  1  0  0  0  0
  5  7  1  0  0  0  0
  5 14  1  0  0  0  0
  6  9  1  0  0  0  0
  7  8  1  0  0  0  0
  8 10  2  0  0  0  0
  8 13  1  0  0  0  0
  9 10  1  0  0  0  0
 10 11  1  0  0  0  0
 11 12  1  0  0  0  0
 12 13  2  0  0  0  0
 14 15  1  0  0  0  0
 14 23  1  0  0  0  0
 15 16  1  0  0  0  0
 15 26  2  0  0  0  0
 16 17  1  0  0  0  0
 16 18  1  0  0  0  0
 17 18  1  0  0  0  0
 19 24  2  0  0  0  0
 19 20  1  0  0  0  0
 20 21  2  0  0  0  0
 21 22  1  0  0  0  0
 22 23  2  0  0  0  0
 23 24  1  0  0  0  0
 24 25  1  0  0  0  0
M  END
> <ID>
14051

> <Formula>
C20H21ClFNO3S

> <FW>
409.9020 (373.4411+36.4609)

> <DSSTox_CID>
28993

> <DSSTox_RID>
83258

> <DSSTox_GSID>
49067

> <DSSTox_FileID_Sort>
7933

> <TS_ChemName>
Prasugrel hydrochloride

> <TS_ChemName_Synonyms>


> <TS_CASRN>
389574-19-0

> <CASRN_ChemName_Relationship>
primary

> <TS_Description>
single chemical compound

> <ChemNote>


> <STRUCTURE_Shown>
tested chemical

> <STRUCTURE_Formula>
C20H21ClFNO3S

> <STRUCTURE_MW>
409.902

> <STRUCTURE_ChemType>
defined organic

> <STRUCTURE_DefinedOrganicForm>
complex

> <STRUCTURE_IUPAC>
5-[2-cyclopropyl-1-(2-fluorophenyl)-2-oxoethyl]-4,5,6,7-tetrahydrothieno[3,2-c]pyridin-2-yl acetate hydrochloride (1:1)

> <STRUCTURE_SMILES>
Cl.Fc1ccccc1C(N2CCc3sc(cc3C2)OC(C)=O)C(=O)C4CC4

> <STRUCTURE_SMILES_Desalt>
Fc1ccccc1C(N2CCc3sc(cc3C2)OC(C)=O)C(=O)C4CC4

> <Substance_modify_yyyymmdd>
20111204

$$$$
