3902-71-4
ChemmineR-0915142007XD

 17 19  0  0  0  0  0  0  0  0  1 V2000
    7.9844   -3.3253    0.0000 C   0  0  0  0  0  0  0  0  0  0  0  0
    9.1355   -3.9831    0.0000 O   0  0  0  0  0  0  0  0  0  0  0  0
    7.9844   -1.9915    0.0000 C   0  0  0  0  0  0  0  0  0  0  0  0
    6.8333   -1.3246    0.0000 C   0  0  0  0  0  0  0  0  0  0  0  0
    6.8333    0.0000    0.0000 C   0  0  0  0  0  0  0  0  0  0  0  0
    5.6823   -1.9915    0.0000 C   0  0  0  0  0  0  0  0  0  0  0  0
    5.6823   -3.3253    0.0000 C   0  0  0  0  0  0  0  0  0  0  0  0
    6.8333   -3.9831    0.0000 O   0  0  0  0  0  0  0  0  0  0  0  0
    4.5312   -3.9831    0.0000 C   0  0  0  0  0  0  0  0  0  0  0  0
    4.5312   -5.3168    0.0000 C   0  0  0  0  0  0  0  0  0  0  0  0
    3.3801   -3.3253    0.0000 C   0  0  0  0  0  0  0  0  0  0  0  0
    3.3801   -1.9915    0.0000 C   0  0  0  0  0  0  0  0  0  0  0  0
    4.5312   -1.3246    0.0000 C   0  0  0  0  0  0  0  0  0  0  0  0
    2.1103   -1.5804    0.0000 C   0  0  0  0  0  0  0  0  0  0  0  0
    1.3338   -2.6584    0.0000 C   0  0  0  0  0  0  0  0  0  0  0  0
    0.0000   -2.6584    0.0000 C   0  0  0  0  0  0  0  0  0  0  0  0
    2.1103   -3.7364    0.0000 O   0  0  0  0  0  0  0  0  0  0  0  0
  1  2  2  0  0  0  0
  1  3  1  0  0  0  0
  1  8  1  0  0  0  0
  3  4  2  0  0  0  0
  4  5  1  0  0  0  0
  4  6  1  0  0  0  0
  6  7  2  0  0  0  0
  6 13  1  0  0  0  0
  7  8  1  0  0  0  0
  7  9  1  0  0  0  0
  9 10  1  0  0  0  0
  9 11  2  0  0  0  0
 11 12  1  0  0  0  0
 11 17  1  0  0  0  0
 12 13  2  0  0  0  0
 12 14  1  0  0  0  0
 14 15  2  0  0  0  0
 15 16  1  0  0  0  0
 15 17  1  0  0  0  0
M  END
> <ID>
3320

> <Formula>
C14H12O3

> <FW>
228.2433

> <DSSTox_CID>
3716

> <DSSTox_RID>
77160

> <DSSTox_GSID>
23716

> <DSSTox_FileID_Sort>
1843

> <TS_ChemName>
Trioxsalen

> <TS_ChemName_Synonyms>


> <TS_CASRN>
3902-71-4

> <CASRN_ChemName_Relationship>
primary

> <TS_Description>
single chemical compound

> <ChemNote>


> <STRUCTURE_Shown>
tested chemical

> <STRUCTURE_Formula>
C14H12O3

> <STRUCTURE_MW>
228.2433

> <STRUCTURE_ChemType>
defined organic

> <STRUCTURE_DefinedOrganicForm>
parent

> <STRUCTURE_IUPAC>
2,5,9-trimethyl-7H-furo[3,2-g]chromen-7-one

> <STRUCTURE_SMILES>
Cc1oc2c(C)c3OC(=O)C=C(C)c3cc2c1

> <STRUCTURE_SMILES_Desalt>
Cc1oc2c(C)c3OC(=O)C=C(C)c3cc2c1

> <Substance_modify_yyyymmdd>
20080429

$$$$
