39025-24-6
ChemmineR-0915142007XD

 26 29  0  0  1  0  0  0  0  0  1 V2000
    6.7517   -2.5319    0.0000 C   0  0  0  0  0  0  0  0  0  0  0  0
    6.7517   -3.8233    0.0000 C   0  0  0  0  0  0  0  0  0  0  0  0
    4.5045   -3.8233    0.0000 C   0  0  0  0  0  0  0  0  0  0  0  0
    5.6332   -4.4740    0.0000 C   0  0  0  0  0  0  0  0  0  0  0  0
    3.3860   -4.4740    0.0000 C   0  0  0  0  0  0  0  0  0  0  0  0
    5.6332   -1.9015    0.0000 C   0  0  0  0  0  0  0  0  0  0  0  0
    4.5045   -2.5319    0.0000 C   0  0  0  0  0  0  0  0  0  0  0  0
    8.9887   -3.8233    0.0000 C   0  0  0  0  0  0  0  0  0  0  0  0
    5.6332   -5.7552    0.0000 C   0  0  0  0  0  0  0  0  0  0  0  0
    3.3860   -5.7959    0.0000 C   0  0  0  0  0  0  0  0  0  0  0  0
    7.8702   -1.8608    0.0000 C   0  0  0  0  0  0  0  0  0  0  0  0
    4.5045   -6.4365    0.0000 C   0  0  0  0  0  0  0  0  0  0  0  0
    8.9887   -2.5319    0.0000 C   0  0  0  0  0  0  0  0  0  0  0  0
    6.7517   -1.2609    0.0000 C   0  0  0  0  0  0  0  0  0  0  0  0
    3.3860   -3.2132    0.0000 C   0  0  0  0  0  0  0  0  0  0  0  0
    2.2675   -3.8233    0.0000 C   0  0  0  0  0  0  0  0  0  0  0  0
    7.8702   -0.6101    0.0000 C   0  0  0  0  0  0  0  0  0  0  0  0
    2.2675   -6.4365    0.0000 C   0  0  0  0  0  0  0  0  0  0  0  0
    1.1490   -4.5045    0.0000 C   0  0  0  0  0  0  0  0  0  0  0  0
    6.7822    0.0000    0.0000 C   0  0  0  0  0  0  0  0  0  0  0  0
    1.1490   -5.7552    0.0000 C   0  0  0  0  0  0  0  0  0  0  0  0
    5.6332   -3.1522    0.0000 H   0  0  0  0  0  0  0  0  0  0  0  0
    6.7517   -5.1451    0.0000 H   0  0  0  0  0  0  0  0  0  0  0  0
    4.5045   -5.1756    0.0000 H   0  0  0  0  0  0  0  0  0  0  0  0
    0.0000   -6.4365    0.0000 O   0  0  0  0  0  0  0  0  0  0  0  0
   10.1683   -1.8608    0.0000 O   0  0  0  0  0  0  0  0  0  0  0  0
  1  6  1  0  0  0  0
  1 11  1  0  0  0  0
  1 14  1  1  0  0  0
  1  2  1  0  0  0  0
  2  4  1  0  0  0  0
  2  8  1  0  0  0  0
  2 23  1  6  0  0  0
  3  5  1  0  0  0  0
  3  4  1  0  0  0  0
  3  7  1  0  0  0  0
  3 24  1  6  0  0  0
  4  9  1  0  0  0  0
  4 22  1  1  0  0  0
  5 10  1  0  0  0  0
  5 15  1  1  0  0  0
  5 16  1  0  0  0  0
  6  7  1  0  0  0  0
  8 13  1  0  0  0  0
  9 12  1  0  0  0  0
 10 18  2  0  0  0  0
 10 12  1  0  0  0  0
 11 13  1  0  0  0  0
 11 17  2  0  0  0  0
 13 26  2  0  0  0  0
 16 19  1  0  0  0  0
 17 20  1  0  0  0  0
 18 21  1  0  0  0  0
 19 21  1  0  0  0  0
 21 25  2  0  0  0  0
M  END
> <ID>
6633

> <Formula>
C21H28O2

> <FW>
312.4458

> <DSSTox_CID>
13538

> <DSSTox_RID>
79082

> <DSSTox_GSID>
33538

> <DSSTox_FileID_Sort>
3764

> <TS_ChemName>
Guggulsterones E

> <TS_ChemName_Synonyms>


> <TS_CASRN>
39025-24-6

> <CASRN_ChemName_Relationship>
primary

> <TS_Description>
single chemical compound

> <ChemNote>
stereochem

> <STRUCTURE_Shown>
tested chemical

> <STRUCTURE_Formula>
C21H28O2

> <STRUCTURE_MW>
312.4458

> <STRUCTURE_ChemType>
defined organic

> <STRUCTURE_DefinedOrganicForm>
parent

> <STRUCTURE_IUPAC>
(17E)-pregna-4,17-diene-3,16-dione

> <STRUCTURE_SMILES>
C\C=C4\C(=O)C[C@@H]3[C@]4(C)CC[C@H]2[C@H]3CCC1=CC(=O)CC[C@@]12C

> <STRUCTURE_SMILES_Desalt>
C\C=C4\C(=O)C[C@@H]3[C@]4(C)CC[C@H]2[C@H]3CCC1=CC(=O)CC[C@@]12C

> <Substance_modify_yyyymmdd>
20080429

$$$$
