39025-23-5
ChemmineR-0915142007XD

 26 29  0  0  1  0  0  0  0  0  1 V2000
    6.7521   -2.5626    0.0000 C   0  0  0  0  0  0  0  0  0  0  0  0
    6.7521   -3.8540    0.0000 C   0  0  0  0  0  0  0  0  0  0  0  0
    4.5048   -3.8540    0.0000 C   0  0  0  0  0  0  0  0  0  0  0  0
    5.6336   -4.5048    0.0000 C   0  0  0  0  0  0  0  0  0  0  0  0
    3.3862   -4.5048    0.0000 C   0  0  0  0  0  0  0  0  0  0  0  0
    5.6336   -1.9321    0.0000 C   0  0  0  0  0  0  0  0  0  0  0  0
    4.5048   -2.5626    0.0000 C   0  0  0  0  0  0  0  0  0  0  0  0
    8.9893   -3.8540    0.0000 C   0  0  0  0  0  0  0  0  0  0  0  0
    5.6336   -5.7861    0.0000 C   0  0  0  0  0  0  0  0  0  0  0  0
    3.3862   -5.8268    0.0000 C   0  0  0  0  0  0  0  0  0  0  0  0
    7.8707   -1.8914    0.0000 C   0  0  0  0  0  0  0  0  0  0  0  0
    4.5048   -6.4674    0.0000 C   0  0  0  0  0  0  0  0  0  0  0  0
    8.9893   -2.5626    0.0000 C   0  0  0  0  0  0  0  0  0  0  0  0
    6.7521   -1.2914    0.0000 C   0  0  0  0  0  0  0  0  0  0  0  0
    3.3862   -3.2439    0.0000 C   0  0  0  0  0  0  0  0  0  0  0  0
    2.2677   -3.8540    0.0000 C   0  0  0  0  0  0  0  0  0  0  0  0
    7.8707   -0.6406    0.0000 C   0  0  0  0  0  0  0  0  0  0  0  0
    2.2677   -6.4674    0.0000 C   0  0  0  0  0  0  0  0  0  0  0  0
    1.1491   -4.5353    0.0000 C   0  0  0  0  0  0  0  0  0  0  0  0
    8.9384    0.0000    0.0000 C   0  0  0  0  0  0  0  0  0  0  0  0
    1.1491   -5.7861    0.0000 C   0  0  0  0  0  0  0  0  0  0  0  0
    5.6336   -3.1829    0.0000 H   0  0  0  0  0  0  0  0  0  0  0  0
    6.7521   -5.1760    0.0000 H   0  0  0  0  0  0  0  0  0  0  0  0
    4.5048   -5.2065    0.0000 H   0  0  0  0  0  0  0  0  0  0  0  0
    0.0000   -6.4674    0.0000 O   0  0  0  0  0  0  0  0  0  0  0  0
   10.1689   -1.8914    0.0000 O   0  0  0  0  0  0  0  0  0  0  0  0
  1  6  1  0  0  0  0
  1 11  1  0  0  0  0
  1 14  1  1  0  0  0
  1  2  1  0  0  0  0
  2  4  1  0  0  0  0
  2  8  1  0  0  0  0
  2 23  1  6  0  0  0
  3  5  1  0  0  0  0
  3  4  1  0  0  0  0
  3  7  1  0  0  0  0
  3 24  1  6  0  0  0
  4  9  1  0  0  0  0
  4 22  1  1  0  0  0
  5 10  1  0  0  0  0
  5 15  1  1  0  0  0
  5 16  1  0  0  0  0
  6  7  1  0  0  0  0
  8 13  1  0  0  0  0
  9 12  1  0  0  0  0
 10 18  2  0  0  0  0
 10 12  1  0  0  0  0
 11 13  1  0  0  0  0
 11 17  2  0  0  0  0
 13 26  2  0  0  0  0
 16 19  1  0  0  0  0
 17 20  1  0  0  0  0
 18 21  1  0  0  0  0
 19 21  1  0  0  0  0
 21 25  2  0  0  0  0
M  END
> <ID>
6634

> <Formula>
C21H28O2

> <FW>
312.4458

> <DSSTox_CID>
13539

> <DSSTox_RID>
79083

> <DSSTox_GSID>
33539

> <DSSTox_FileID_Sort>
3765

> <TS_ChemName>
Guggulsterones Z

> <TS_ChemName_Synonyms>


> <TS_CASRN>
39025-23-5

> <CASRN_ChemName_Relationship>
primary

> <TS_Description>
single chemical compound

> <ChemNote>
stereochem

> <STRUCTURE_Shown>
tested chemical

> <STRUCTURE_Formula>
C21H28O2

> <STRUCTURE_MW>
312.4458

> <STRUCTURE_ChemType>
defined organic

> <STRUCTURE_DefinedOrganicForm>
parent

> <STRUCTURE_IUPAC>
(17Z)-pregna-4,17-diene-3,16-dione

> <STRUCTURE_SMILES>
C\C=C4/C(=O)C[C@@H]3[C@]4(C)CC[C@H]2[C@H]3CCC1=CC(=O)CC[C@@]12C

> <STRUCTURE_SMILES_Desalt>
C\C=C4/C(=O)C[C@@H]3[C@]4(C)CC[C@H]2[C@H]3CCC1=CC(=O)CC[C@@]12C

> <Substance_modify_yyyymmdd>
20080429

$$$$
