391210-10-9
ChemmineR-0915142007XD

 26 27  0  0  1  0  0  0  0  0  1 V2000
    8.0555   -2.6529    0.0000 C   0  0  0  0  0  0  0  0  0  0  0  0
    8.0555   -3.9932    0.0000 C   0  0  0  0  0  0  0  0  0  0  0  0
    6.9086   -1.9897    0.0000 C   0  0  0  0  0  0  0  0  0  0  0  0
    6.9086   -4.6564    0.0000 C   0  0  0  0  0  0  0  0  0  0  0  0
    5.7618   -2.6529    0.0000 C   0  0  0  0  0  0  0  0  0  0  0  0
    5.7618   -3.9932    0.0000 C   0  0  0  0  0  0  0  0  0  0  0  0
    9.2161   -1.9897    0.0000 N   0  0  0  0  0  0  0  0  0  0  0  0
   10.3629   -2.6529    0.0000 C   0  0  0  0  0  0  0  0  0  0  0  0
   11.5098   -1.9897    0.0000 C   0  0  0  0  0  0  0  0  0  0  0  0
   10.3629   -3.9932    0.0000 C   0  0  0  0  0  0  0  0  0  0  0  0
   12.6704   -2.6529    0.0000 C   0  0  0  0  0  0  0  0  0  0  0  0
   11.5098   -4.6564    0.0000 C   0  0  0  0  0  0  0  0  0  0  0  0
   12.6704   -3.9932    0.0000 C   0  0  0  0  0  0  0  0  0  0  0  0
    9.2161   -4.6564    0.0000 F   0  0  0  0  0  0  0  0  0  0  0  0
    6.9086   -5.9829    0.0000 F   0  0  0  0  0  0  0  0  0  0  0  0
   11.5098   -0.6632    0.0000 F   0  0  0  0  0  0  0  0  0  0  0  0
    6.9086   -0.6632    0.0000 C   0  0  0  0  0  0  0  0  0  0  0  0
    8.0555    0.0000    0.0000 O   0  0  0  0  0  0  0  0  0  0  0  0
    5.7618    0.0000    0.0000 N   0  0  0  0  0  0  0  0  0  0  0  0
    4.6011   -0.6632    0.0000 O   0  0  0  0  0  0  0  0  0  0  0  0
    3.4543    0.0000    0.0000 C   0  0  0  0  0  0  0  0  0  0  0  0
    2.3075   -0.6632    0.0000 C   0  0  0  0  0  0  0  0  0  0  0  0
    1.1468    0.0000    0.0000 C   0  0  0  0  0  0  0  0  0  0  0  0
    2.3075   -1.9897    0.0000 O   0  0  0  0  0  0  0  0  0  0  0  0
    0.0000   -0.6632    0.0000 O   0  0  0  0  0  0  0  0  0  0  0  0
   13.8173   -4.6564    0.0000 I   0  0  0  0  0  0  0  0  0  0  0  0
  1  2  1  0  0  0  0
  1  3  2  0  0  0  0
  1  7  1  0  0  0  0
  2  4  2  0  0  0  0
  2 14  1  0  0  0  0
  3  5  1  0  0  0  0
  3 17  1  0  0  0  0
  4  6  1  0  0  0  0
  4 15  1  0  0  0  0
  5  6  2  0  0  0  0
  7  8  1  0  0  0  0
  8  9  1  0  0  0  0
  8 10  2  0  0  0  0
  9 11  2  0  0  0  0
  9 16  1  0  0  0  0
 10 12  1  0  0  0  0
 11 13  1  0  0  0  0
 12 13  2  0  0  0  0
 13 26  1  0  0  0  0
 17 18  2  0  0  0  0
 17 19  1  0  0  0  0
 19 20  1  0  0  0  0
 20 21  1  0  0  0  0
 21 22  1  0  0  0  0
 22 23  1  0  0  0  0
 22 24  1  6  0  0  0
 23 25  1  0  0  0  0
M  END
> <ID>
9832

> <Formula>
C16H14F3IN2O4

> <FW>
482.193

> <DSSTox_CID>
24024

> <DSSTox_RID>
80100

> <DSSTox_GSID>
44024

> <DSSTox_FileID_Sort>
4782

> <TS_ChemName>
PD 0325901

> <TS_ChemName_Synonyms>
PD0325901

> <TS_CASRN>
391210-10-9

> <CASRN_ChemName_Relationship>
primary

> <TS_Description>
single chemical compound

> <ChemNote>
stereochem

> <STRUCTURE_Shown>
tested chemical

> <STRUCTURE_Formula>
C16H14F3IN2O4

> <STRUCTURE_MW>
482.193

> <STRUCTURE_ChemType>
defined organic

> <STRUCTURE_DefinedOrganicForm>
parent

> <STRUCTURE_IUPAC>
N-[(2R)-2,3-dihydroxypropoxy]-3,4-difluoro-2-[(2-fluoro-4-iodophenyl)amino]benzamide

> <STRUCTURE_SMILES>
OC[C@@H](O)CONC(=O)c2ccc(F)c(F)c2Nc1ccc(I)cc1F

> <STRUCTURE_SMILES_Desalt>
OC[C@@H](O)CONC(=O)c2ccc(F)c(F)c2Nc1ccc(I)cc1F

> <Substance_modify_yyyymmdd>
20090207

$$$$
