3913-02-8
ChemmineR-0915142007XD

 13 12  0  0  0  0  0  0  0  0  1 V2000
    4.5752   -0.6569    0.0000 C   0  0  0  0  0  0  0  0  0  0  0  0
    4.6098   -1.9707    0.0000 C   0  0  0  0  0  0  0  0  0  0  0  0
    5.7738   -2.6161    0.0000 C   0  0  0  0  0  0  0  0  0  0  0  0
    6.9147   -1.9361    0.0000 C   0  0  0  0  0  0  0  0  0  0  0  0
    8.0902   -2.5815    0.0000 C   0  0  0  0  0  0  0  0  0  0  0  0
    9.2311   -1.8900    0.0000 C   0  0  0  0  0  0  0  0  0  0  0  0
   10.3836   -2.5354    0.0000 C   0  0  0  0  0  0  0  0  0  0  0  0
   11.5245   -1.8439    0.0000 C   0  0  0  0  0  0  0  0  0  0  0  0
    3.4228    0.0000    0.0000 O   0  0  0  0  0  0  0  0  0  0  0  0
    3.4689   -2.6622    0.0000 C   0  0  0  0  0  0  0  0  0  0  0  0
    2.2934   -2.0168    0.0000 C   0  0  0  0  0  0  0  0  0  0  0  0
    1.1525   -2.7083    0.0000 C   0  0  0  0  0  0  0  0  0  0  0  0
    0.0000   -2.0629    0.0000 C   0  0  0  0  0  0  0  0  0  0  0  0
  1  2  1  0  0  0  0
  1  9  1  0  0  0  0
  2  3  1  0  0  0  0
  2 10  1  0  0  0  0
  3  4  1  0  0  0  0
  4  5  1  0  0  0  0
  5  6  1  0  0  0  0
  6  7  1  0  0  0  0
  7  8  1  0  0  0  0
 10 11  1  0  0  0  0
 11 12  1  0  0  0  0
 12 13  1  0  0  0  0
M  END
> <ID>
10466

> <Formula>
C12H26O

> <FW>
186.3342

> <DSSTox_CID>
24818

> <DSSTox_RID>
80499

> <DSSTox_GSID>
44818

> <DSSTox_FileID_Sort>
5181

> <TS_ChemName>
2-Butyloctan-1-ol

> <TS_ChemName_Synonyms>
2-Butyloctan-1-ol (1-Octanol, 2-butyl-)

> <TS_CASRN>
3913-02-8

> <CASRN_ChemName_Relationship>
primary

> <TS_Description>
single chemical compound

> <ChemNote>


> <STRUCTURE_Shown>
tested chemical

> <STRUCTURE_Formula>
C12H26O

> <STRUCTURE_MW>
186.3342

> <STRUCTURE_ChemType>
defined organic

> <STRUCTURE_DefinedOrganicForm>
parent

> <STRUCTURE_IUPAC>
2-butyloctan-1-ol

> <STRUCTURE_SMILES>
CCCCCCC(CO)CCCC

> <STRUCTURE_SMILES_Desalt>
CCCCCCC(CO)CCCC

> <Substance_modify_yyyymmdd>
20091116

$$$$
