39156-41-7
ChemmineR-0915142007XD

 15 14  0  0  0  0  0  0  0  0  1 V2000
    3.3348   -3.4464    0.0000 C   0  0  0  0  0  0  0  0  0  0  0  0
    2.0024   -3.4464    0.0000 C   0  0  0  0  0  0  0  0  0  0  0  0
    1.3473   -2.2927    0.0000 C   0  0  0  0  0  0  0  0  0  0  0  0
    2.0024   -1.1538    0.0000 C   0  0  0  0  0  0  0  0  0  0  0  0
    3.3348   -1.1538    0.0000 C   0  0  0  0  0  0  0  0  0  0  0  0
    3.9973   -2.2927    0.0000 C   0  0  0  0  0  0  0  0  0  0  0  0
    5.3297   -2.2927    0.0000 O   0  0  0  0  0  0  0  0  0  0  0  0
    5.9996   -3.4464    0.0000 C   0  0  0  0  0  0  0  0  0  0  0  0
    3.9973    0.0000    0.0000 N   0  0  0  0  0  0  0  0  0  0  0  0
    0.0000   -2.2927    0.0000 N   0  0  0  0  0  0  0  0  0  0  0  0
    2.9328   -7.4437    0.0000 O   0  0  0  0  0  0  0  0  0  0  0  0
    2.9328   -6.1113    0.0000 S   0  0  0  0  0  0  0  0  0  0  0  0
    2.9328   -4.7789    0.0000 O   0  0  0  0  0  0  0  0  0  0  0  0
    1.6078   -6.1113    0.0000 O   0  0  0  0  0  0  0  0  0  0  0  0
    4.2652   -6.1113    0.0000 O   0  0  0  0  0  0  0  0  0  0  0  0
  1  2  2  0  0  0  0
  1  6  1  0  0  0  0
  2  3  1  0  0  0  0
  3  4  2  0  0  0  0
  3 10  1  0  0  0  0
  4  5  1  0  0  0  0
  5  6  2  0  0  0  0
  5  9  1  0  0  0  0
  6  7  1  0  0  0  0
  7  8  1  0  0  0  0
 11 12  2  0  0  0  0
 12 13  2  0  0  0  0
 12 14  1  0  0  0  0
 12 15  1  0  0  0  0
M  END
> <ID>
383

> <Formula>
C7H12N2O5S

> <FW>
236.2456 (138.1671+98.0785)

> <DSSTox_CID>
398

> <DSSTox_RID>
75561

> <DSSTox_GSID>
20398

> <DSSTox_FileID_Sort>
245

> <TS_ChemName>
2,4-Diaminoanisole sulfate

> <TS_ChemName_Synonyms>


> <TS_CASRN>
39156-41-7

> <CASRN_ChemName_Relationship>
primary

> <TS_Description>
single chemical compound

> <ChemNote>
parent [615-05-4]

> <STRUCTURE_Shown>
tested chemical

> <STRUCTURE_Formula>
C7H12N2O5S

> <STRUCTURE_MW>
236.2456

> <STRUCTURE_ChemType>
defined organic

> <STRUCTURE_DefinedOrganicForm>
complex

> <STRUCTURE_IUPAC>
4-methoxybenzene-1,3-diamine sulfate (1:1)

> <STRUCTURE_SMILES>
Nc1cc(N)ccc1OC.O=S(=O)(O)O

> <STRUCTURE_SMILES_Desalt>
Nc1cc(N)ccc1OC

> <Substance_modify_yyyymmdd>
20080429

$$$$
