392-12-1
ChemmineR-0915142007XD

 15 16  0  0  0  0  0  0  0  0  1 V2000
    4.3525   -1.3295    0.0000 C   0  0  0  0  0  0  0  0  0  0  0  0
    2.3092   -1.9873    0.0000 C   0  0  0  0  0  0  0  0  0  0  0  0
    3.5617   -2.3862    0.0000 C   0  0  0  0  0  0  0  0  0  0  0  0
    2.3092   -0.6578    0.0000 C   0  0  0  0  0  0  0  0  0  0  0  0
    3.5617   -0.2379    0.0000 N   0  0  0  0  0  0  0  0  0  0  0  0
    1.1546   -2.6591    0.0000 C   0  0  0  0  0  0  0  0  0  0  0  0
    1.1546    0.0000    0.0000 C   0  0  0  0  0  0  0  0  0  0  0  0
    0.0000   -0.6578    0.0000 C   0  0  0  0  0  0  0  0  0  0  0  0
    0.0000   -1.9873    0.0000 C   0  0  0  0  0  0  0  0  0  0  0  0
    3.9816   -3.6597    0.0000 C   0  0  0  0  0  0  0  0  0  0  0  0
    5.2831   -3.9326    0.0000 C   0  0  0  0  0  0  0  0  0  0  0  0
    6.1648   -2.9530    0.0000 O   0  0  0  0  0  0  0  0  0  0  0  0
    5.6960   -5.1992    0.0000 C   0  0  0  0  0  0  0  0  0  0  0  0
    4.8003   -6.1928    0.0000 O   0  0  0  0  0  0  0  0  0  0  0  0
    6.9975   -5.4721    0.0000 O   0  0  0  0  0  0  0  0  0  0  0  0
  1  3  2  0  0  0  0
  1  5  1  0  0  0  0
  2  3  1  0  0  0  0
  2  6  1  0  0  0  0
  2  4  2  0  0  0  0
  3 10  1  0  0  0  0
  4  5  1  0  0  0  0
  4  7  1  0  0  0  0
  6  9  2  0  0  0  0
  7  8  2  0  0  0  0
  8  9  1  0  0  0  0
 10 11  1  0  0  0  0
 11 12  2  0  0  0  0
 11 13  1  0  0  0  0
 13 14  2  0  0  0  0
 13 15  1  0  0  0  0
M  END
> <ID>
8985

> <Formula>
C11H9NO3

> <FW>
203.1941

> <DSSTox_CID>
22053

> <DSSTox_RID>
79908

> <DSSTox_GSID>
42053

> <DSSTox_FileID_Sort>
4590

> <TS_ChemName>
Indole-3-pyruvic acid

> <TS_ChemName_Synonyms>


> <TS_CASRN>
392-12-1

> <CASRN_ChemName_Relationship>
primary

> <TS_Description>
single chemical compound

> <ChemNote>


> <STRUCTURE_Shown>
tested chemical

> <STRUCTURE_Formula>
C11H9NO3

> <STRUCTURE_MW>
203.1941

> <STRUCTURE_ChemType>
defined organic

> <STRUCTURE_DefinedOrganicForm>
parent

> <STRUCTURE_IUPAC>
3-(1H-indol-3-yl)-2-oxopropanoic acid

> <STRUCTURE_SMILES>
O=C(O)C(=O)Cc2cnc1ccccc12

> <STRUCTURE_SMILES_Desalt>
O=C(O)C(=O)Cc2cnc1ccccc12

> <Substance_modify_yyyymmdd>
20080825

$$$$
