39219-28-8
ChemmineR-0915142007XD

 27 30  0  0  1  0  0  0  0  0  1 V2000
   13.3386   -5.2821    0.0000 C   0  0  0  0  0  0  0  0  0  0  0  0
   12.1781   -5.9490    0.0000 C   0  0  0  0  0  0  0  0  0  0  0  0
   11.0310   -5.2821    0.0000 C   0  0  0  0  0  0  0  0  0  0  0  0
    9.8705   -5.9490    0.0000 O   0  0  0  0  0  0  0  0  0  0  0  0
    8.7234   -5.2821    0.0000 C   0  0  0  0  0  0  0  0  0  0  0  0
    7.5896   -5.9490    0.0000 C   0  0  0  0  0  0  0  0  0  0  0  0
    6.4425   -5.2821    0.0000 C   0  0  0  0  0  0  0  0  0  0  0  0
    6.4425   -3.9482    0.0000 C   0  0  0  0  0  0  0  0  0  0  0  0
    7.5896   -3.2813    0.0000 C   0  0  0  0  0  0  0  0  0  0  0  0
    8.7234   -3.9482    0.0000 C   0  0  0  0  0  0  0  0  0  0  0  0
    5.2954   -3.2813    0.0000 C   0  0  0  0  0  0  0  0  0  0  0  0
    6.4425   -2.6277    0.0000 H   0  0  0  0  0  0  0  0  0  0  0  0
    5.2954   -1.9608    0.0000 C   0  0  0  0  0  0  0  0  0  0  0  0
    4.1350   -1.2938    0.0000 C   0  0  0  0  0  0  0  0  0  0  0  0
    2.9878   -1.9608    0.0000 C   0  0  0  0  0  0  0  0  0  0  0  0
    2.9878   -0.6269    0.0000 C   0  0  0  0  0  0  0  0  0  0  0  0
    1.7207   -1.5339    0.0000 C   0  0  0  0  0  0  0  0  0  0  0  0
    0.9337   -2.6277    0.0000 C   0  0  0  0  0  0  0  0  0  0  0  0
    1.7207   -3.6948    0.0000 C   0  0  0  0  0  0  0  0  0  0  0  0
    2.9878   -3.2813    0.0000 C   0  0  0  0  0  0  0  0  0  0  0  0
    2.3209   -4.4417    0.0000 H   0  0  0  0  0  0  0  0  0  0  0  0
    4.1350   -3.9482    0.0000 C   0  0  0  0  0  0  0  0  0  0  0  0
    3.1079   -4.7885    0.0000 H   0  0  0  0  0  0  0  0  0  0  0  0
    4.1350   -5.2821    0.0000 C   0  0  0  0  0  0  0  0  0  0  0  0
    5.2954   -5.9490    0.0000 C   0  0  0  0  0  0  0  0  0  0  0  0
    1.3205   -0.2934    0.0000 O   0  0  0  0  0  0  0  0  0  0  0  0
    0.0000    0.0000    0.0000 C   0  0  0  0  0  0  0  0  0  0  0  0
  1  2  1  0  0  0  0
  2  3  1  0  0  0  0
  3  4  1  0  0  0  0
  4  5  1  0  0  0  0
  5  6  2  0  0  0  0
  5 10  1  0  0  0  0
  6  7  1  0  0  0  0
  7  8  2  0  0  0  0
  7 25  1  0  0  0  0
  8  9  1  0  0  0  0
  8 11  1  0  0  0  0
  9 10  2  0  0  0  0
 11 12  1  1  0  0  0
 11 13  1  0  0  0  0
 11 22  1  0  0  0  0
 13 14  1  0  0  0  0
 14 15  1  0  0  0  0
 15 16  1  6  0  0  0
 15 17  1  0  0  0  0
 15 20  1  0  0  0  0
 17 18  1  0  0  0  0
 17 26  1  0  0  0  0
 18 19  1  0  0  0  0
 19 20  1  0  0  0  0
 20 21  1  1  0  0  0
 20 22  1  0  0  0  0
 22 23  1  6  0  0  0
 22 24  1  0  0  0  0
 24 25  1  0  0  0  0
 26 27  1  0  0  0  0
M  END
> <ID>
16130

> <Formula>
C22H32O2

> <FW>
328.4883

> <DSSTox_CID>
31519

> <DSSTox_RID>
97404

> <DSSTox_GSID>
57730

> <DSSTox_FileID_Sort>
8471

> <TS_ChemName>
Promestriene

> <TS_ChemName_Synonyms>


> <TS_CASRN>
39219-28-8

> <CASRN_ChemName_Relationship>
primary

> <TS_Description>
single chemical compound

> <ChemNote>


> <STRUCTURE_Shown>
tested chemical

> <STRUCTURE_Formula>
C22H32O2

> <STRUCTURE_MW>
328.4883

> <STRUCTURE_ChemType>
defined organic

> <STRUCTURE_DefinedOrganicForm>
parent

> <STRUCTURE_IUPAC>
17-methoxy-3-propoxyestra-1,3,5(10)-triene

> <STRUCTURE_SMILES>
CCCOc3cc4CC[C@@H]1[C@H](CC[C@]2(C)C(CC[C@@H]12)OC)c4cc3

> <STRUCTURE_SMILES_Desalt>
CCCOc3cc4CC[C@@H]1[C@H](CC[C@]2(C)C(CC[C@@H]12)OC)c4cc3

> <Substance_modify_yyyymmdd>
20131018

$$$$
