39236-46-9
ChemmineR-0915142007XD

 27 28  0  0  0  0  0  0  0  0  1 V2000
    3.4096   -2.7764    0.0000 C   0  0  0  0  0  0  0  0  0  0  0  0
    2.3380   -1.9808    0.0000 N   0  0  0  0  0  0  0  0  0  0  0  0
    3.0199   -4.0428    0.0000 C   0  0  0  0  0  0  0  0  0  0  0  0
    4.6922   -2.3542    0.0000 N   0  0  0  0  0  0  0  0  0  0  0  0
    1.2664   -2.7764    0.0000 C   0  0  0  0  0  0  0  0  0  0  0  0
    2.3380   -0.6494    0.0000 C   0  0  0  0  0  0  0  0  0  0  0  0
    1.6885   -4.0428    0.0000 N   0  0  0  0  0  0  0  0  0  0  0  0
    3.7992   -5.1143    0.0000 O   0  0  0  0  0  0  0  0  0  0  0  0
    5.8450   -3.0199    0.0000 C   0  0  0  0  0  0  0  0  0  0  0  0
    0.0000   -2.3542    0.0000 O   0  0  0  0  0  0  0  0  0  0  0  0
    3.4907    0.0000    0.0000 O   0  0  0  0  0  0  0  0  0  0  0  0
    6.9977   -2.3542    0.0000 N   0  0  0  0  0  0  0  0  0  0  0  0
    5.8450   -4.3513    0.0000 O   0  0  0  0  0  0  0  0  0  0  0  0
    8.1342   -3.0199    0.0000 C   0  0  0  0  0  0  0  0  0  0  0  0
    9.2870   -2.3542    0.0000 N   0  0  0  0  0  0  0  0  0  0  0  0
   10.4398   -3.0199    0.0000 C   0  0  0  0  0  0  0  0  0  0  0  0
   11.5925   -2.3542    0.0000 N   0  0  0  0  0  0  0  0  0  0  0  0
   10.4398   -4.3513    0.0000 O   0  0  0  0  0  0  0  0  0  0  0  0
   12.8265   -2.8251    0.0000 C   0  0  0  0  0  0  0  0  0  0  0  0
   13.8980   -2.0457    0.0000 N   0  0  0  0  0  0  0  0  0  0  0  0
   13.2324   -4.0915    0.0000 C   0  0  0  0  0  0  0  0  0  0  0  0
   14.9696   -2.8251    0.0000 C   0  0  0  0  0  0  0  0  0  0  0  0
   13.8980   -0.7144    0.0000 C   0  0  0  0  0  0  0  0  0  0  0  0
   14.5637   -4.0915    0.0000 N   0  0  0  0  0  0  0  0  0  0  0  0
   12.4530   -5.1631    0.0000 O   0  0  0  0  0  0  0  0  0  0  0  0
   16.2360   -2.4192    0.0000 O   0  0  0  0  0  0  0  0  0  0  0  0
   12.7453   -0.0487    0.0000 O   0  0  0  0  0  0  0  0  0  0  0  0
  1  2  1  0  0  0  0
  1  3  1  0  0  0  0
  1  4  1  0  0  0  0
  2  5  1  0  0  0  0
  2  6  1  0  0  0  0
  3  7  1  0  0  0  0
  3  8  2  0  0  0  0
  4  9  1  0  0  0  0
  5 10  2  0  0  0  0
  5  7  1  0  0  0  0
  6 11  1  0  0  0  0
  9 12  1  0  0  0  0
  9 13  2  0  0  0  0
 12 14  1  0  0  0  0
 14 15  1  0  0  0  0
 15 16  1  0  0  0  0
 16 17  1  0  0  0  0
 16 18  2  0  0  0  0
 17 19  1  0  0  0  0
 19 20  1  0  0  0  0
 19 21  1  0  0  0  0
 20 22  1  0  0  0  0
 20 23  1  0  0  0  0
 21 24  1  0  0  0  0
 21 25  2  0  0  0  0
 22 26  2  0  0  0  0
 22 24  1  0  0  0  0
 23 27  1  0  0  0  0
M  END
> <ID>
7593

> <Formula>
C11H16N8O8

> <FW>
388.2935

> <DSSTox_CID>
20151

> <DSSTox_RID>
79449

> <DSSTox_GSID>
40151

> <DSSTox_FileID_Sort>
4131

> <TS_ChemName>
Imidazolidinyl urea

> <TS_ChemName_Synonyms>


> <TS_CASRN>
39236-46-9

> <CASRN_ChemName_Relationship>
primary

> <TS_Description>
single chemical compound

> <ChemNote>


> <STRUCTURE_Shown>
tested chemical

> <STRUCTURE_Formula>
C11H16N8O8

> <STRUCTURE_MW>
388.2935

> <STRUCTURE_ChemType>
defined organic

> <STRUCTURE_DefinedOrganicForm>
parent

> <STRUCTURE_IUPAC>
1,1'-methanediylbis{3-[3-(hydroxymethyl)-2,5-dioxoimidazolidin-4-yl]urea}

> <STRUCTURE_SMILES>
OCN2C(=O)NC(=O)C2NC(=O)NCNC(=O)NC1C(=O)NC(=O)N1CO

> <STRUCTURE_SMILES_Desalt>
OCN2C(=O)NC(=O)C2NC(=O)NCNC(=O)NC1C(=O)NC(=O)N1CO

> <Substance_modify_yyyymmdd>
20080429

$$$$
