3923-79-3
ChemmineR-0915142007XD

 10 10  0  0  0  0  0  0  0  0  1 V2000
    3.0142   -3.3652    0.0000 N   0  0  0  0  0  0  0  0  0  0  0  0
    2.3402   -1.3152    0.0000 N   0  0  0  0  0  0  0  0  0  0  0  0
    3.4120   -2.1015    0.0000 C   0  0  0  0  0  0  0  0  0  0  0  0
    1.6662   -3.3652    0.0000 C   0  0  0  0  0  0  0  0  0  0  0  0
    1.2684   -2.1015    0.0000 C   0  0  0  0  0  0  0  0  0  0  0  0
    4.6804   -1.6990    0.0000 O   0  0  0  0  0  0  0  0  0  0  0  0
    0.0000   -1.6990    0.0000 O   0  0  0  0  0  0  0  0  0  0  0  0
    0.8986   -4.4557    0.0000 O   0  0  0  0  0  0  0  0  0  0  0  0
    3.7817   -4.4557    0.0000 C   0  0  0  0  0  0  0  0  0  0  0  0
    2.3402    0.0000    0.0000 C   0  0  0  0  0  0  0  0  0  0  0  0
  1  3  1  0  0  0  0
  1  4  1  0  0  0  0
  1  9  1  0  0  0  0
  2  3  1  0  0  0  0
  2  5  1  0  0  0  0
  2 10  1  0  0  0  0
  3  6  2  0  0  0  0
  4  5  1  0  0  0  0
  4  8  1  0  0  0  0
  5  7  1  0  0  0  0
M  END
> <ID>
10581

> <Formula>
C5H10N2O3

> <FW>
146.1445

> <DSSTox_CID>
24934

> <DSSTox_RID>
80599

> <DSSTox_GSID>
44934

> <DSSTox_FileID_Sort>
5281

> <TS_ChemName>
4,5-Dihydroxy-1,3-dimethylimidazolidin-2-one

> <TS_ChemName_Synonyms>
4,5-Dihydroxy-1,3-dimethylimidazolidin-2-one (2-Imidazolidinone, 4,5-dihydroxy-1,3-dimethyl-)

> <TS_CASRN>
3923-79-3

> <CASRN_ChemName_Relationship>
primary

> <TS_Description>
single chemical compound

> <ChemNote>


> <STRUCTURE_Shown>
tested chemical

> <STRUCTURE_Formula>
C5H10N2O3

> <STRUCTURE_MW>
146.1445

> <STRUCTURE_ChemType>
defined organic

> <STRUCTURE_DefinedOrganicForm>
parent

> <STRUCTURE_IUPAC>
4,5-dihydroxy-1,3-dimethylimidazolidin-2-one

> <STRUCTURE_SMILES>
CN1C(=O)N(C)C(O)C1O

> <STRUCTURE_SMILES_Desalt>
CN1C(=O)N(C)C(O)C1O

> <Substance_modify_yyyymmdd>
20091116

$$$$
