3926-62-3
ChemmineR-0915142007XD

  6  4  0  0  0  0  0  0  0  0  2 V2000
    2.0012   -1.1530    0.0000 C    0  0  0  0  0  0  0  0  0  0  0  0
    2.6601   -2.3059    0.0000 O    0  0  0  0  0  0  0  0  0  0  0  0
    2.6601    0.0000    0.0000 O    0  5  0  0  0  0  0  0  0  0  0  0
    0.6712   -1.1530    0.0000 C    0  0  0  0  0  0  0  0  0  0  0  0
    0.0000    0.0000    0.0000 Cl   0  0  0  0  0  0  0  0  0  0  0  0
    4.1177   -1.2024    0.0000 Na   0  3  0  0  0  0  0  0  0  0  0  0
  1  2  2  0  0  0  0
  1  3  1  0  0  0  0
  1  4  1  0  0  0  0
  4  5  1  0  0  0  0
M  END
> <ID>
5241

> <Formula>
C2H2ClNaO2

> <FW>
116.4788 (93.4896+22.9892)

> <DSSTox_CID>
7550

> <DSSTox_RID>
78501

> <DSSTox_GSID>
27550

> <DSSTox_FileID_Sort>
3184

> <TS_ChemName>
Sodium chloroacetate

> <TS_ChemName_Synonyms>


> <TS_CASRN>
3926-62-3

> <CASRN_ChemName_Relationship>
primary

> <TS_Description>
single chemical compound

> <ChemNote>
parent [79-11-8]

> <STRUCTURE_Shown>
tested chemical

> <STRUCTURE_Formula>
C2H2ClNaO2

> <STRUCTURE_MW>
116.4788

> <STRUCTURE_ChemType>
defined organic

> <STRUCTURE_DefinedOrganicForm>
salt

> <STRUCTURE_IUPAC>
sodium chloroacetate

> <STRUCTURE_SMILES>
[Na+].[O-]C(=O)CCl

> <STRUCTURE_SMILES_Desalt>
ClCC(=O)O

> <Substance_modify_yyyymmdd>
20080429

$$$$
