393-11-3
ChemmineR-0915142007XD

 14 14  0  0  0  0  0  0  0  0  2 V2000
    5.3209   -5.7586    0.0000 N   0  0  0  0  0  0  0  0  0  0  0  0
    4.6529   -4.6069    0.0000 C   0  0  0  0  0  0  0  0  0  0  0  0
    5.3209   -3.4551    0.0000 C   0  0  0  0  0  0  0  0  0  0  0  0
    4.6529   -2.3034    0.0000 C   0  0  0  0  0  0  0  0  0  0  0  0
    3.3227   -2.3034    0.0000 C   0  0  0  0  0  0  0  0  0  0  0  0
    2.6605   -3.4551    0.0000 C   0  0  0  0  0  0  0  0  0  0  0  0
    3.3227   -4.6069    0.0000 C   0  0  0  0  0  0  0  0  0  0  0  0
    1.3302   -3.4551    0.0000 C   0  0  0  0  0  0  0  0  0  0  0  0
    1.3302   -2.1249    0.0000 F   0  0  0  0  0  0  0  0  0  0  0  0
    1.3302   -4.7854    0.0000 F   0  0  0  0  0  0  0  0  0  0  0  0
    0.0000   -3.4551    0.0000 F   0  0  0  0  0  0  0  0  0  0  0  0
    2.6605   -1.1517    0.0000 N   0  3  0  0  0  0  0  0  0  0  0  0
    3.3227    0.0000    0.0000 O   0  5  0  0  0  0  0  0  0  0  0  0
    1.3302   -1.1517    0.0000 O   0  0  0  0  0  0  0  0  0  0  0  0
  1  2  1  0  0  0  0
  2  3  2  0  0  0  0
  2  7  1  0  0  0  0
  3  4  1  0  0  0  0
  4  5  2  0  0  0  0
  5  6  1  0  0  0  0
  5 12  1  0  0  0  0
  6  7  2  0  0  0  0
  6  8  1  0  0  0  0
  8  9  1  0  0  0  0
  8 10  1  0  0  0  0
  8 11  1  0  0  0  0
 12 13  1  0  0  0  0
 12 14  2  0  0  0  0
M  END
> <ID>
16131

> <Formula>
C7H5F3N2O2

> <FW>
206.122

> <DSSTox_CID>
31520

> <DSSTox_RID>
97405

> <DSSTox_GSID>
57731

> <DSSTox_FileID_Sort>
8472

> <TS_ChemName>
3-Trifluoromethyl-4-nitroanilide

> <TS_ChemName_Synonyms>


> <TS_CASRN>
393-11-3

> <CASRN_ChemName_Relationship>
primary

> <TS_Description>
single chemical compound

> <ChemNote>


> <STRUCTURE_Shown>
tested chemical

> <STRUCTURE_Formula>
C7H5F3N2O2

> <STRUCTURE_MW>
206.122

> <STRUCTURE_ChemType>
defined organic

> <STRUCTURE_DefinedOrganicForm>
parent

> <STRUCTURE_IUPAC>
4-nitro-3-(trifluoromethyl)aniline

> <STRUCTURE_SMILES>
O=[N+]([O-])c1ccc(N)cc1C(F)(F)F

> <STRUCTURE_SMILES_Desalt>
O=[N+]([O-])c1ccc(N)cc1C(F)(F)F

> <Substance_modify_yyyymmdd>
20131018

$$$$
