39300-45-3
ChemmineR-0915142007XD

 26 26  0  0  0  0  0  0  0  0  2 V2000
    8.0539   -3.3305    0.0000 C   0  0  0  0  0  0  0  0  0  0  0  0
    8.0539   -2.0008    0.0000 C   0  0  0  0  0  0  0  0  0  0  0  0
    6.9016   -1.3297    0.0000 C   0  0  0  0  0  0  0  0  0  0  0  0
    6.9016    0.0000    0.0000 C   0  0  0  0  0  0  0  0  0  0  0  0
    6.9016   -3.9890    0.0000 O   0  0  0  0  0  0  0  0  0  0  0  0
    9.2063   -3.9890    0.0000 O   0  0  0  0  0  0  0  0  0  0  0  0
    8.0539   -7.3068    0.0000 C   0  0  0  0  0  0  0  0  0  0  0  0
    9.2063   -7.9653    0.0000 C   0  0  0  0  0  0  0  0  0  0  0  0
   10.3587   -7.3068    0.0000 C   0  0  0  0  0  0  0  0  0  0  0  0
   10.3587   -5.9771    0.0000 C   0  0  0  0  0  0  0  0  0  0  0  0
    9.2063   -5.3060    0.0000 C   0  0  0  0  0  0  0  0  0  0  0  0
    8.0539   -5.9771    0.0000 C   0  0  0  0  0  0  0  0  0  0  0  0
    6.9016   -5.3060    0.0000 C   0  0  0  0  0  0  0  0  0  0  0  0
    5.7619   -5.9771    0.0000 C   0  0  0  0  0  0  0  0  0  0  0  0
    4.6095   -5.3060    0.0000 C   0  0  0  0  0  0  0  0  0  0  0  0
    3.4571   -5.9771    0.0000 C   0  0  0  0  0  0  0  0  0  0  0  0
    2.3047   -5.3060    0.0000 C   0  0  0  0  0  0  0  0  0  0  0  0
    1.1524   -5.9771    0.0000 C   0  0  0  0  0  0  0  0  0  0  0  0
    1.1524   -7.3068    0.0000 C   0  0  0  0  0  0  0  0  0  0  0  0
    9.2063   -9.3076    0.0000 N   0  3  0  0  0  0  0  0  0  0  0  0
   10.3587   -9.9661    0.0000 O   0  5  0  0  0  0  0  0  0  0  0  0
    8.0539   -9.9661    0.0000 O   0  0  0  0  0  0  0  0  0  0  0  0
   11.5110   -5.3060    0.0000 N   0  3  0  0  0  0  0  0  0  0  0  0
   11.5110   -3.9890    0.0000 O   0  5  0  0  0  0  0  0  0  0  0  0
   12.6634   -5.9771    0.0000 O   0  0  0  0  0  0  0  0  0  0  0  0
    0.0000   -5.3060    0.0000 C   0  0  0  0  0  0  0  0  0  0  0  0
  1  2  1  0  0  0  0
  1  6  1  0  0  0  0
  1  5  2  0  0  0  0
  2  3  2  0  0  0  0
  3  4  1  0  0  0  0
  6 11  1  0  0  0  0
  7 12  2  0  0  0  0
  7  8  1  0  0  0  0
  8  9  2  0  0  0  0
  8 20  1  0  0  0  0
  9 10  1  0  0  0  0
 10 11  2  0  0  0  0
 10 23  1  0  0  0  0
 11 12  1  0  0  0  0
 12 13  1  0  0  0  0
 13 14  1  0  0  0  0
 14 15  1  0  0  0  0
 15 16  1  0  0  0  0
 16 17  1  0  0  0  0
 17 18  1  0  0  0  0
 18 19  1  0  0  0  0
 18 26  1  0  0  0  0
 20 21  1  0  0  0  0
 20 22  2  0  0  0  0
 23 24  1  0  0  0  0
 23 25  2  0  0  0  0
M  END
> <ID>
7713

> <Formula>
C18H24N2O6

> <FW>
364.393

> <DSSTox_CID>
20352

> <DSSTox_RID>
79482

> <DSSTox_GSID>
40352

> <DSSTox_FileID_Sort>
4164

> <TS_ChemName>
Dinocap

> <TS_ChemName_Synonyms>


> <TS_CASRN>
39300-45-3

> <CASRN_ChemName_Relationship>
primary

> <TS_Description>
mixture or formulation

> <ChemNote>
mixture of 2-(isooctyl)-4,6-dinitrophenyl (2E)-but-2-enoate and 4-(isooctyl)-2,6-dinitrophenyl (2E)-but-2-enoate where isooctyl is a mixture of methylheptyl; ethylhexyl and propylpentyl; structure shown 2-(6-methylheptyl)-4,6-dinitrophenyl (2E)-but-2-enoa

> <STRUCTURE_Shown>
representative component

> <STRUCTURE_Formula>
C18H24N2O6

> <STRUCTURE_MW>
364.393

> <STRUCTURE_ChemType>
defined organic

> <STRUCTURE_DefinedOrganicForm>
parent

> <STRUCTURE_IUPAC>
2-(6-methylheptyl)-4,6-dinitrophenyl (2E)-but-2-enoate

> <STRUCTURE_SMILES>
O=C(Oc1c(cc(cc1[N+]([O-])=O)[N+]([O-])=O)CCCCCC(C)C)\C=C\C

> <STRUCTURE_SMILES_Desalt>
O=C(Oc1c(cc(cc1[N+]([O-])=O)[N+]([O-])=O)CCCCCC(C)C)\C=C\C

> <Substance_modify_yyyymmdd>
20080429

$$$$
