3930-20-9
ChemmineR-0915142007XD

 18 18  0  0  0  0  0  0  0  0  1 V2000
    1.1513   -1.1513    0.0000 S   0  0  0  0  0  0  0  0  0  0  0  0
    1.8190   -2.3025    0.0000 O   0  0  0  0  0  0  0  0  0  0  0  0
    0.0000   -1.8190    0.0000 C   0  0  0  0  0  0  0  0  0  0  0  0
    0.4835    0.0000    0.0000 O   0  0  0  0  0  0  0  0  0  0  0  0
    2.3025   -0.4950    0.0000 N   0  0  0  0  0  0  0  0  0  0  0  0
    3.4538   -1.1513    0.0000 C   0  0  0  0  0  0  0  0  0  0  0  0
    4.6051   -0.4950    0.0000 C   0  0  0  0  0  0  0  0  0  0  0  0
    5.7563   -1.1513    0.0000 C   0  0  0  0  0  0  0  0  0  0  0  0
    5.7563   -2.4867    0.0000 C   0  0  0  0  0  0  0  0  0  0  0  0
    6.9076   -3.1545    0.0000 C   0  0  0  0  0  0  0  0  0  0  0  0
    6.9076   -4.4784    0.0000 O   0  0  0  0  0  0  0  0  0  0  0  0
    8.0589   -2.4867    0.0000 C   0  0  0  0  0  0  0  0  0  0  0  0
    9.2101   -3.1545    0.0000 N   0  0  0  0  0  0  0  0  0  0  0  0
   10.3614   -2.4867    0.0000 C   0  0  0  0  0  0  0  0  0  0  0  0
   10.3614   -1.1513    0.0000 C   0  0  0  0  0  0  0  0  0  0  0  0
   11.5127   -3.1545    0.0000 C   0  0  0  0  0  0  0  0  0  0  0  0
    4.6051   -3.1545    0.0000 C   0  0  0  0  0  0  0  0  0  0  0  0
    3.4538   -2.4867    0.0000 C   0  0  0  0  0  0  0  0  0  0  0  0
  1  2  2  0  0  0  0
  1  3  1  0  0  0  0
  1  4  2  0  0  0  0
  1  5  1  0  0  0  0
  5  6  1  0  0  0  0
  6  7  2  0  0  0  0
  6 18  1  0  0  0  0
  7  8  1  0  0  0  0
  8  9  2  0  0  0  0
  9 10  1  0  0  0  0
  9 17  1  0  0  0  0
 10 11  1  0  0  0  0
 10 12  1  0  0  0  0
 12 13  1  0  0  0  0
 13 14  1  0  0  0  0
 14 15  1  0  0  0  0
 14 16  1  0  0  0  0
 17 18  2  0  0  0  0
M  END
> <ID>
3209

> <Formula>
C12H20N2O3S

> <FW>
272.3638

> <DSSTox_CID>
3589

> <DSSTox_RID>
77096

> <DSSTox_GSID>
23589

> <DSSTox_FileID_Sort>
1779

> <TS_ChemName>
Sotalol

> <TS_ChemName_Synonyms>


> <TS_CASRN>
3930-20-9

> <CASRN_ChemName_Relationship>
primary

> <TS_Description>
single chemical compound

> <ChemNote>


> <STRUCTURE_Shown>
tested chemical

> <STRUCTURE_Formula>
C12H20N2O3S

> <STRUCTURE_MW>
272.3638

> <STRUCTURE_ChemType>
defined organic

> <STRUCTURE_DefinedOrganicForm>
parent

> <STRUCTURE_IUPAC>
N-{4-[1-hydroxy-2-(propan-2-ylamino)ethyl]phenyl}methanesulfonamide

> <STRUCTURE_SMILES>
O=S(C)(=O)Nc1ccc(cc1)C(O)CNC(C)C

> <STRUCTURE_SMILES_Desalt>
O=S(C)(=O)Nc1ccc(cc1)C(O)CNC(C)C

> <Substance_modify_yyyymmdd>
20080429

$$$$
