3934-20-1
ChemmineR-0915142007XD

  8  8  0  0  0  0  0  0  0  0  1 V2000
    1.1535   -0.6690    0.0000 C    0  0  0  0  0  0  0  0  0  0  0  0
    2.3070    0.0000    0.0000 C    0  0  0  0  0  0  0  0  0  0  0  0
    1.1535   -2.0024    0.0000 C    0  0  0  0  0  0  0  0  0  0  0  0
    3.4604   -2.0024    0.0000 C    0  0  0  0  0  0  0  0  0  0  0  0
    0.0000   -2.6576    0.0000 Cl   0  0  0  0  0  0  0  0  0  0  0  0
    4.6139   -2.6576    0.0000 Cl   0  0  0  0  0  0  0  0  0  0  0  0
    3.4604   -0.6690    0.0000 N    0  0  0  0  0  0  0  0  0  0  0  0
    2.3070   -2.6576    0.0000 N    0  0  0  0  0  0  0  0  0  0  0  0
  1  2  2  0  0  0  0
  1  3  1  0  0  0  0
  2  7  1  0  0  0  0
  3  5  1  0  0  0  0
  3  8  2  0  0  0  0
  4  6  1  0  0  0  0
  4  7  2  0  0  0  0
  4  8  1  0  0  0  0
M  END
> <ID>
14156

> <Formula>
C4H2Cl2N2

> <FW>
148.9781

> <DSSTox_CID>
29149

> <DSSTox_RID>
83368

> <DSSTox_GSID>
49293

> <DSSTox_FileID_Sort>
8043

> <TS_ChemName>
Pyrimidine,2,4-dichloro-

> <TS_ChemName_Synonyms>


> <TS_CASRN>
3934-20-1

> <CASRN_ChemName_Relationship>
primary

> <TS_Description>
single chemical compound

> <ChemNote>


> <STRUCTURE_Shown>
tested chemical

> <STRUCTURE_Formula>
C4H2Cl2N2

> <STRUCTURE_MW>
148.9781

> <STRUCTURE_ChemType>
defined organic

> <STRUCTURE_DefinedOrganicForm>
parent

> <STRUCTURE_IUPAC>
2,4-dichloropyrimidine

> <STRUCTURE_SMILES>
Clc1ccnc(Cl)n1

> <STRUCTURE_SMILES_Desalt>
Clc1ccnc(Cl)n1

> <Substance_modify_yyyymmdd>
20111204

$$$$
