3936-02-5
ChemmineR-0915142007XD

 43 46  0  0  1  0  0  0  0  0  2 V2000
    6.9310   -2.7439    0.0000 C    0  0  0  0  0  0  0  0  0  0  0  0
    4.6503   -4.0802    0.0000 C    0  0  0  0  0  0  0  0  0  0  0  0
    3.4922   -4.7572    0.0000 C    0  0  0  0  0  0  0  0  0  0  0  0
    6.9310   -4.0802    0.0000 C    0  0  0  0  0  0  0  0  0  0  0  0
    5.7906   -4.7572    0.0000 C    0  0  0  0  0  0  0  0  0  0  0  0
    8.2138   -2.3341    0.0000 C    0  0  0  0  0  0  0  0  0  0  0  0
    3.4922   -6.0757    0.0000 C    0  0  0  0  0  0  0  0  0  0  0  0
    4.6503   -2.7439    0.0000 C    0  0  0  0  0  0  0  0  0  0  0  0
    5.7906   -2.0846    0.0000 C    0  0  0  0  0  0  0  0  0  0  0  0
    8.9978   -3.4209    0.0000 C    0  0  0  0  0  0  0  0  0  0  0  0
    2.3341   -4.0802    0.0000 C    0  0  0  0  0  0  0  0  0  0  0  0
    8.2138   -4.4722    0.0000 C    0  0  0  0  0  0  0  0  0  0  0  0
    2.3341   -6.7528    0.0000 C    0  0  0  0  0  0  0  0  0  0  0  0
    8.5701   -1.0334    0.0000 C    0  0  0  0  0  0  0  0  0  0  0  0
    5.7906   -6.0757    0.0000 C    0  0  0  0  0  0  0  0  0  0  0  0
    1.1938   -4.7572    0.0000 C    0  0  0  0  0  0  0  0  0  0  0  0
    1.1938   -6.0757    0.0000 C    0  0  0  0  0  0  0  0  0  0  0  0
    4.6503   -6.7528    0.0000 C    0  0  0  0  0  0  0  0  0  0  0  0
    4.6325   -5.2027    0.0000 F    0  0  0  0  0  0  0  0  0  0  0  0
    7.6258   -0.0713    0.0000 O    0  0  0  0  0  0  0  0  0  0  0  0
    0.0000   -6.7706    0.0000 O    0  0  0  0  0  0  0  0  0  0  0  0
    9.5501   -2.3341    0.0000 O    0  0  0  0  0  0  0  0  0  0  0  0
    6.9310   -1.3898    0.0000 C    0  0  0  0  0  0  0  0  0  0  0  0
    3.4566   -2.0668    0.0000 O    0  0  0  0  0  0  0  0  0  0  0  0
    3.4922   -3.4209    0.0000 C    0  0  0  0  0  0  0  0  0  0  0  0
   10.3341   -3.4031    0.0000 C    0  0  0  0  0  0  0  0  0  0  0  0
    9.8530   -0.7127    0.0000 C    0  0  0  0  0  0  0  0  0  0  0  0
   10.7973   -1.6570    0.0000 O    0  0  0  0  0  0  0  0  0  0  0  0
    5.7906   -3.4209    0.0000 H    0  0  0  0  0  0  0  0  0  0  0  0
    6.9310   -5.4165    0.0000 H    0  0  0  0  0  0  0  0  0  0  0  0
   12.0802   -1.3363    0.0000 C    0  0  0  0  0  0  0  0  0  0  0  0
   13.0067   -2.2806    0.0000 C    0  0  0  0  0  0  0  0  0  0  0  0
   14.3073   -1.9599    0.0000 C    0  0  0  0  0  0  0  0  0  0  0  0
   12.6503   -3.5635    0.0000 C    0  0  0  0  0  0  0  0  0  0  0  0
   15.2338   -2.9042    0.0000 C    0  0  0  0  0  0  0  0  0  0  0  0
   13.5946   -4.5256    0.0000 C    0  0  0  0  0  0  0  0  0  0  0  0
   14.8775   -4.1871    0.0000 C    0  0  0  0  0  0  0  0  0  0  0  0
   12.4543   -0.0535    0.0000 O    0  0  0  0  0  0  0  0  0  0  0  0
   16.5167   -2.5835    0.0000 S    0  0  0  0  0  0  0  0  0  0  0  0
   17.8174   -2.2450    0.0000 O    0  5  0  0  0  0  0  0  0  0  0  0
   16.1960   -1.2828    0.0000 O    0  0  0  0  0  0  0  0  0  0  0  0
   16.8552   -3.8664    0.0000 O    0  0  0  0  0  0  0  0  0  0  0  0
   14.3964    0.0000    0.0000 Na   0  3  0  0  0  0  0  0  0  0  0  0
  1  4  1  0  0  0  0
  1  6  1  0  0  0  0
  1  9  1  0  0  0  0
  1 23  1  1  0  0  0
  2  8  1  0  0  0  0
  2  3  1  0  0  0  0
  2 19  1  6  0  0  0
  2  5  1  0  0  0  0
  3  7  1  0  0  0  0
  3 11  1  0  0  0  0
  3 25  1  1  0  0  0
  4  5  1  0  0  0  0
  4 12  1  0  0  0  0
  4 30  1  6  0  0  0
  5 15  1  0  0  0  0
  5 29  1  1  0  0  0
  6 10  1  0  0  0  0
  6 14  1  0  0  0  0
  6 22  1  6  0  0  0
  7 13  2  0  0  0  0
  7 18  1  0  0  0  0
  8  9  1  0  0  0  0
  8 24  1  1  0  0  0
 10 26  1  6  0  0  0
 10 12  1  0  0  0  0
 11 16  2  0  0  0  0
 13 17  1  0  0  0  0
 14 20  2  0  0  0  0
 14 27  1  0  0  0  0
 15 18  1  0  0  0  0
 16 17  1  0  0  0  0
 17 21  2  0  0  0  0
 27 28  1  0  0  0  0
 28 31  1  0  0  0  0
 31 32  1  0  0  0  0
 31 38  2  0  0  0  0
 32 33  1  0  0  0  0
 32 34  2  0  0  0  0
 33 35  2  0  0  0  0
 34 36  1  0  0  0  0
 35 37  1  0  0  0  0
 35 39  1  0  0  0  0
 36 37  2  0  0  0  0
 39 40  1  0  0  0  0
 39 41  2  0  0  0  0
 39 42  2  0  0  0  0
M  END
> <ID>
11916

> <Formula>
C29H32FNaO9S

> <FW>
598.6122 (575.6229+22.9892)

> <DSSTox_CID>
26722

> <DSSTox_RID>
81852

> <DSSTox_GSID>
46722

> <DSSTox_FileID_Sort>
6533

> <TS_ChemName>
Dexamethazone metasulfobenzoate sodium

> <TS_ChemName_Synonyms>


> <TS_CASRN>
3936-02-5

> <CASRN_ChemName_Relationship>
primary

> <TS_Description>
single chemical compound

> <ChemNote>
stereochem; tautomers; parent [16978-57-7]

> <STRUCTURE_Shown>
tested chemical

> <STRUCTURE_Formula>
C29H32FNaO9S

> <STRUCTURE_MW>
598.6122

> <STRUCTURE_ChemType>
defined organic

> <STRUCTURE_DefinedOrganicForm>
salt

> <STRUCTURE_IUPAC>
sodium 3-({[(11beta,16alpha)-9-fluoro-11,17-dihydroxy-16-methyl-3,20-dioxopregna-1,4-dien-21-yl]oxy}carbonyl)benzenesulfonate

> <STRUCTURE_SMILES>
[Na+].[O-]S(=O)(=O)c1cccc(c1)C(=O)OCC(=O)[C@@]5(O)[C@H](C)C[C@@H]4[C@]5(C)C[C@H](O)[C@@]3(F)[C@H]4CCC2=CC(=O)C=C[C@@]23C

> <STRUCTURE_SMILES_Desalt>
O=S(=O)(O)c1cccc(c1)C(=O)OCC(=O)[C@@]5(O)[C@H](C)C[C@@H]4[C@]5(C)C[C@H](O)[C@@]3(F)[C@H]4CCC2=CC(=O)C=C[C@@]23C

> <Substance_modify_yyyymmdd>
20110804

$$$$
