39377-38-3
ChemmineR-0915142007XD

 13  9  0  0  0  0  0  0  0  0  2 V2000
    2.8645   -1.9856    0.0000 C    0  0  0  0  0  0  0  0  0  0  0  0
    4.0154   -2.6432    0.0000 C    0  0  0  0  0  0  0  0  0  0  0  0
    1.6820   -2.6432    0.0000 C    0  0  0  0  0  0  0  0  0  0  0  0
    2.8645   -0.6576    0.0000 S    0  0  0  0  0  0  0  0  0  0  0  0
    5.1725   -1.9856    0.0000 C    0  0  0  0  0  0  0  0  0  0  0  0
    1.6820   -3.9711    0.0000 O    0  0  0  0  0  0  0  0  0  0  0  0
    0.5628   -1.9856    0.0000 O    0  5  0  0  0  0  0  0  0  0  0  0
    1.6820    0.0000    0.0000 Au   0  0  0  0  0  0  0  0  0  0  0  0
    5.1725   -0.6576    0.0000 O    0  0  0  0  0  0  0  0  0  0  0  0
    6.3234   -2.6432    0.0000 O    0  5  0  0  0  0  0  0  0  0  0  0
    3.6360   -4.1165    0.0000 O    0  0  0  0  0  0  0  0  0  0  0  0
    0.0000   -3.7624    0.0000 Na   0  3  0  0  0  0  0  0  0  0  0  0
    5.6847   -3.8952    0.0000 Na   0  3  0  0  0  0  0  0  0  0  0  0
  1  2  1  0  0  0  0
  1  3  1  0  0  0  0
  1  4  1  0  0  0  0
  2  5  1  0  0  0  0
  3  6  2  0  0  0  0
  3  7  1  0  0  0  0
  4  8  1  0  0  0  0
  5  9  2  0  0  0  0
  5 10  1  0  0  0  0
M  END
> <ID>
13973

> <Formula>
C4H5AuNa2O5S

> <FW>
408.0906 (344.0969+18.0153+22.9892+22.9892)

> <DSSTox_CID>
28912

> <DSSTox_RID>
83180

> <DSSTox_GSID>
48986

> <DSSTox_FileID_Sort>
7856

> <TS_ChemName>
Sodium aurothiomalate hydrate

> <TS_ChemName_Synonyms>


> <TS_CASRN>
39377-38-3

> <CASRN_ChemName_Relationship>
primary

> <TS_Description>
single chemical compound

> <ChemNote>


> <STRUCTURE_Shown>
tested chemical

> <STRUCTURE_Formula>
C4H5AuNa2O5S

> <STRUCTURE_MW>
408.0906

> <STRUCTURE_ChemType>
organometallic

> <STRUCTURE_DefinedOrganicForm>


> <STRUCTURE_IUPAC>
sodium [2-(sulfanyl-kappaS)butanedioato(3-)]aurate(2-) hydrate (2:1:1)

> <STRUCTURE_SMILES>
[Na+].[Na+].O.[O-]C(=O)CC(S[Au])C(=O)[O-]

> <STRUCTURE_SMILES_Desalt>
O=C(O)CC(S[Au])C(O)=O

> <Substance_modify_yyyymmdd>
20111204

$$$$
