39430-51-8
ChemmineR-0915142007XD

 33 30  0  0  0  0  0  0  0  0  1 V2000
    2.6789   -4.6810    0.0000 C    0  0  0  0  0  0  0  0  0  0  0  0
    4.0043   -4.6810    0.0000 O    0  0  0  0  0  0  0  0  0  0  0  0
    2.0021   -3.5249    0.0000 O    0  0  0  0  0  0  0  0  0  0  0  0
    2.0021   -5.8231    0.0000 C    0  0  0  0  0  0  0  0  0  0  0  0
    0.6768   -1.2267    0.0000 C    0  0  0  0  0  0  0  0  0  0  0  0
    0.0141   -2.3687    0.0000 O    0  0  0  0  0  0  0  0  0  0  0  0
    2.0162   -1.2267    0.0000 O    0  0  0  0  0  0  0  0  0  0  0  0
    0.0000   -0.0564    0.0000 C    0  0  0  0  0  0  0  0  0  0  0  0
    2.6507   -2.3687    0.0000 Cr   0  0  0  0  0  0  0  0  0  0  0  0
    4.6669   -1.1985    0.0000 C    0  0  0  0  0  0  0  0  0  0  0  0
    3.9902   -0.0564    0.0000 O    0  0  0  0  0  0  0  0  0  0  0  0
    3.9902   -2.3687    0.0000 O    0  0  0  0  0  0  0  0  0  0  0  0
    6.0064   -1.2267    0.0000 C    0  0  0  0  0  0  0  0  0  0  0  0
   10.6451   -2.0021    0.0000 O    0  0  0  0  0  0  0  0  0  0  0  0
   12.9434   -0.6768    0.0000 C    0  0  0  0  0  0  0  0  0  0  0  0
   12.9434   -2.0021    0.0000 O    0  0  0  0  0  0  0  0  0  0  0  0
   11.7872   -0.0141    0.0000 O    0  0  0  0  0  0  0  0  0  0  0  0
   14.0995   -0.0141    0.0000 C    0  0  0  0  0  0  0  0  0  0  0  0
    8.3328   -0.6768    0.0000 C    0  0  0  0  0  0  0  0  0  0  0  0
    8.3328   -1.9880    0.0000 O    0  0  0  0  0  0  0  0  0  0  0  0
    9.5031   -0.0141    0.0000 O    0  0  0  0  0  0  0  0  0  0  0  0
    7.1767    0.0000    0.0000 C    0  0  0  0  0  0  0  0  0  0  0  0
   10.6451   -0.6768    0.0000 Cr   0  0  0  0  0  0  0  0  0  0  0  0
    9.5172   -5.6398    0.0000 O    0  0  0  0  0  0  0  0  0  0  0  0
   11.8154   -4.3145    0.0000 C    0  0  0  0  0  0  0  0  0  0  0  0
   11.8154   -5.6398    0.0000 O    0  0  0  0  0  0  0  0  0  0  0  0
   10.6592   -3.6518    0.0000 O    0  0  0  0  0  0  0  0  0  0  0  0
   12.9715   -3.6518    0.0000 C    0  0  0  0  0  0  0  0  0  0  0  0
    7.2049   -4.3145    0.0000 C    0  0  0  0  0  0  0  0  0  0  0  0
    7.2049   -5.6257    0.0000 O    0  0  0  0  0  0  0  0  0  0  0  0
    8.3751   -3.6518    0.0000 O    0  0  0  0  0  0  0  0  0  0  0  0
    6.0487   -3.6377    0.0000 C    0  0  0  0  0  0  0  0  0  0  0  0
    9.5172   -4.3145    0.0000 Cr   0  0  0  0  0  0  0  0  0  0  0  0
  1  2  2  0  0  0  0
  1  3  1  0  0  0  0
  1  4  1  0  0  0  0
  3  9  1  0  0  0  0
  5  6  2  0  0  0  0
  5  7  1  0  0  0  0
  5  8  1  0  0  0  0
  7  9  1  0  0  0  0
  9 12  1  0  0  0  0
 10 11  2  0  0  0  0
 10 12  1  0  0  0  0
 10 13  1  0  0  0  0
 14 23  1  0  0  0  0
 15 16  2  0  0  0  0
 15 17  1  0  0  0  0
 15 18  1  0  0  0  0
 17 23  1  0  0  0  0
 19 20  2  0  0  0  0
 19 21  1  0  0  0  0
 19 22  1  0  0  0  0
 21 23  1  0  0  0  0
 24 33  1  0  0  0  0
 25 26  2  0  0  0  0
 25 27  1  0  0  0  0
 25 28  1  0  0  0  0
 27 33  1  0  0  0  0
 29 30  2  0  0  0  0
 29 31  1  0  0  0  0
 29 32  1  0  0  0  0
 31 33  1  0  0  0  0
M  END
> <ID>
10582

> <Formula>
C14H23Cr3O16

> <FW>
603.3111 (229.1282+187.0915+187.0915)

> <DSSTox_CID>
24935

> <DSSTox_RID>
80600

> <DSSTox_GSID>
44935

> <DSSTox_FileID_Sort>
5282

> <TS_ChemName>
Chromium acetate, basic

> <TS_ChemName_Synonyms>
Acetic acid, chromium salt, basic

> <TS_CASRN>
39430-51-8

> <CASRN_ChemName_Relationship>
primary

> <TS_Description>
single chemical compound

> <ChemNote>


> <STRUCTURE_Shown>
tested chemical

> <STRUCTURE_Formula>
C14H23Cr3O16

> <STRUCTURE_MW>
603.3111

> <STRUCTURE_ChemType>
organometallic

> <STRUCTURE_DefinedOrganicForm>


> <STRUCTURE_IUPAC>
bis(acetato-kappaO)(hydroxy)chromium - tris(acetato-kappaO)chromium (2:1)

> <STRUCTURE_SMILES>
O=C(C)O[Cr](OC(C)=O)OC(=O)C.CC(=O)O[Cr](O)OC(C)=O.CC(=O)O[Cr](O)OC(C)=O

> <STRUCTURE_SMILES_Desalt>
O=C(C)O[Cr](OC(C)=O)OC(=O)C

> <Substance_modify_yyyymmdd>
20091116

$$$$
