39515-41-8
ChemmineR-0915142007XD

 26 28  0  0  0  0  0  0  0  0  1 V2000
    1.3321   -5.9824    0.0000 C   0  0  0  0  0  0  0  0  0  0  0  0
    1.9981   -4.8288    0.0000 C   0  0  0  0  0  0  0  0  0  0  0  0
    2.6641   -5.9824    0.0000 C   0  0  0  0  0  0  0  0  0  0  0  0
    3.8178   -6.6366    0.0000 C   0  0  0  0  0  0  0  0  0  0  0  0
    4.9715   -5.9824    0.0000 O   0  0  0  0  0  0  0  0  0  0  0  0
    6.1252   -9.3007    0.0000 N   0  0  0  0  0  0  0  0  0  0  0  0
    6.1252   -7.9686    0.0000 C   0  0  0  0  0  0  0  0  0  0  0  0
    6.1252   -6.6366    0.0000 C   0  0  0  0  0  0  0  0  0  0  0  0
    7.2788   -5.9824    0.0000 C   0  0  0  0  0  0  0  0  0  0  0  0
    3.8178   -7.9686    0.0000 O   0  0  0  0  0  0  0  0  0  0  0  0
    7.2788   -4.6504    0.0000 C   0  0  0  0  0  0  0  0  0  0  0  0
    8.4325   -3.9962    0.0000 C   0  0  0  0  0  0  0  0  0  0  0  0
    8.4325   -2.6641    0.0000 O   0  0  0  0  0  0  0  0  0  0  0  0
    0.0000   -5.9824    0.0000 C   0  0  0  0  0  0  0  0  0  0  0  0
    2.6641   -3.6751    0.0000 C   0  0  0  0  0  0  0  0  0  0  0  0
    1.3321   -3.6751    0.0000 C   0  0  0  0  0  0  0  0  0  0  0  0
    0.6779   -7.1361    0.0000 C   0  0  0  0  0  0  0  0  0  0  0  0
    9.5862   -1.9862    0.0000 C   0  0  0  0  0  0  0  0  0  0  0  0
    8.4325   -6.6366    0.0000 C   0  0  0  0  0  0  0  0  0  0  0  0
    9.5862   -5.9824    0.0000 C   0  0  0  0  0  0  0  0  0  0  0  0
    9.5862   -4.6504    0.0000 C   0  0  0  0  0  0  0  0  0  0  0  0
    9.5862   -0.6660    0.0000 C   0  0  0  0  0  0  0  0  0  0  0  0
   10.7398   -2.6641    0.0000 C   0  0  0  0  0  0  0  0  0  0  0  0
   11.8935   -1.9862    0.0000 C   0  0  0  0  0  0  0  0  0  0  0  0
   10.7398    0.0000    0.0000 C   0  0  0  0  0  0  0  0  0  0  0  0
   11.8935   -0.6660    0.0000 C   0  0  0  0  0  0  0  0  0  0  0  0
  1  2  1  0  0  0  0
  1  3  1  0  0  0  0
  1 14  1  0  0  0  0
  1 17  1  0  0  0  0
  2 15  1  0  0  0  0
  2 16  1  0  0  0  0
  2  3  1  0  0  0  0
  3  4  1  0  0  0  0
  4  5  1  0  0  0  0
  4 10  2  0  0  0  0
  5  8  1  0  0  0  0
  6  7  3  0  0  0  0
  7  8  1  0  0  0  0
  8  9  1  0  0  0  0
  9 11  1  0  0  0  0
  9 19  2  0  0  0  0
 11 12  2  0  0  0  0
 12 13  1  0  0  0  0
 12 21  1  0  0  0  0
 13 18  1  0  0  0  0
 18 22  1  0  0  0  0
 18 23  2  0  0  0  0
 19 20  1  0  0  0  0
 20 21  2  0  0  0  0
 22 25  2  0  0  0  0
 23 24  1  0  0  0  0
 24 26  2  0  0  0  0
 25 26  1  0  0  0  0
M  END
> <ID>
3465

> <Formula>
C22H23NO3

> <FW>
349.4229

> <DSSTox_CID>
4002

> <DSSTox_RID>
77256

> <DSSTox_GSID>
24002

> <DSSTox_FileID_Sort>
1939

> <TS_ChemName>
Fenpropathrin

> <TS_ChemName_Synonyms>
Fenpropathrin (Danitol)

> <TS_CASRN>
39515-41-8

> <CASRN_ChemName_Relationship>
primary

> <TS_Description>
single chemical compound

> <ChemNote>
mixture of (R,S) isomers; structure shown without stereochem

> <STRUCTURE_Shown>
tested chemical

> <STRUCTURE_Formula>
C22H23NO3

> <STRUCTURE_MW>
349.4229

> <STRUCTURE_ChemType>
defined organic

> <STRUCTURE_DefinedOrganicForm>
parent

> <STRUCTURE_IUPAC>
cyano(3-phenoxyphenyl)methyl 2,2,3,3-tetramethylcyclopropanecarboxylate

> <STRUCTURE_SMILES>
CC3(C)C(C(=O)OC(C#N)c2cccc(Oc1ccccc1)c2)C3(C)C

> <STRUCTURE_SMILES_Desalt>
CC3(C)C(C(=O)OC(C#N)c2cccc(Oc1ccccc1)c2)C3(C)C

> <Substance_modify_yyyymmdd>
20080429

$$$$
