39512-49-7
ChemmineR-0915142007XD

 14 15  0  0  0  0  0  0  0  0  1 V2000
    1.9935   -3.6372    0.0000 O    0  0  0  0  0  0  0  0  0  0  0  0
    1.9935   -2.3038    0.0000 C    0  0  0  0  0  0  0  0  0  0  0  0
    2.6602   -1.1552    0.0000 C    0  0  0  0  0  0  0  0  0  0  0  0
    1.9935    0.0000    0.0000 C    0  0  0  0  0  0  0  0  0  0  0  0
    0.6667    0.0000    0.0000 N    0  0  0  0  0  0  0  0  0  0  0  0
    0.0000   -1.1552    0.0000 C    0  0  0  0  0  0  0  0  0  0  0  0
    0.6667   -2.3038    0.0000 C    0  0  0  0  0  0  0  0  0  0  0  0
    3.1487   -2.9705    0.0000 C    0  0  0  0  0  0  0  0  0  0  0  0
    3.1487   -4.2973    0.0000 C    0  0  0  0  0  0  0  0  0  0  0  0
    4.2973   -4.9640    0.0000 C    0  0  0  0  0  0  0  0  0  0  0  0
    5.4525   -4.2973    0.0000 C    0  0  0  0  0  0  0  0  0  0  0  0
    6.6011   -4.9640    0.0000 Cl   0  0  0  0  0  0  0  0  0  0  0  0
    5.4525   -2.9705    0.0000 C    0  0  0  0  0  0  0  0  0  0  0  0
    4.2973   -2.3038    0.0000 C    0  0  0  0  0  0  0  0  0  0  0  0
  1  2  1  0  0  0  0
  2  3  1  0  0  0  0
  2  7  1  0  0  0  0
  2  8  1  0  0  0  0
  3  4  1  0  0  0  0
  4  5  1  0  0  0  0
  5  6  1  0  0  0  0
  6  7  1  0  0  0  0
  8  9  2  0  0  0  0
  8 14  1  0  0  0  0
  9 10  1  0  0  0  0
 10 11  2  0  0  0  0
 11 12  1  0  0  0  0
 11 13  1  0  0  0  0
 13 14  2  0  0  0  0
M  END
> <ID>
16133

> <Formula>
C11H14ClNO

> <FW>
211.688

> <DSSTox_CID>
31522

> <DSSTox_RID>
97407

> <DSSTox_GSID>
57733

> <DSSTox_FileID_Sort>
8474

> <TS_ChemName>
4-(4-Chlorophenyl)-4-piperidinol

> <TS_ChemName_Synonyms>


> <TS_CASRN>
39512-49-7

> <CASRN_ChemName_Relationship>
primary

> <TS_Description>
single chemical compound

> <ChemNote>


> <STRUCTURE_Shown>
tested chemical

> <STRUCTURE_Formula>
C11H14ClNO

> <STRUCTURE_MW>
211.688

> <STRUCTURE_ChemType>
defined organic

> <STRUCTURE_DefinedOrganicForm>
parent

> <STRUCTURE_IUPAC>
4-(4-chlorophenyl)piperidin-4-ol

> <STRUCTURE_SMILES>
OC1(CCNCC1)c2ccc(Cl)cc2

> <STRUCTURE_SMILES_Desalt>
OC1(CCNCC1)c2ccc(Cl)cc2

> <Substance_modify_yyyymmdd>
20131121

$$$$
