39515-51-0
ChemmineR-0915142007XD

 15 16  0  0  0  0  0  0  0  0  1 V2000
    8.0499    0.0000    0.0000 C   0  0  0  0  0  0  0  0  0  0  0  0
    9.1999   -0.6716    0.0000 O   0  0  0  0  0  0  0  0  0  0  0  0
    6.9000   -0.6716    0.0000 C   0  0  0  0  0  0  0  0  0  0  0  0
    5.7500    0.0000    0.0000 C   0  0  0  0  0  0  0  0  0  0  0  0
    6.9000   -1.9964    0.0000 C   0  0  0  0  0  0  0  0  0  0  0  0
    4.6000   -0.6716    0.0000 C   0  0  0  0  0  0  0  0  0  0  0  0
    5.7500   -2.6680    0.0000 C   0  0  0  0  0  0  0  0  0  0  0  0
    4.6000   -1.9964    0.0000 C   0  0  0  0  0  0  0  0  0  0  0  0
    3.4500    0.0000    0.0000 O   0  0  0  0  0  0  0  0  0  0  0  0
    2.3000   -0.6716    0.0000 C   0  0  0  0  0  0  0  0  0  0  0  0
    1.1500    0.0000    0.0000 C   0  0  0  0  0  0  0  0  0  0  0  0
    2.3000   -1.9964    0.0000 C   0  0  0  0  0  0  0  0  0  0  0  0
    0.0000   -0.6716    0.0000 C   0  0  0  0  0  0  0  0  0  0  0  0
    1.1500   -2.6680    0.0000 C   0  0  0  0  0  0  0  0  0  0  0  0
    0.0000   -1.9964    0.0000 C   0  0  0  0  0  0  0  0  0  0  0  0
  1  2  2  0  0  0  0
  1  3  1  0  0  0  0
  3  4  2  0  0  0  0
  3  5  1  0  0  0  0
  4  6  1  0  0  0  0
  5  7  2  0  0  0  0
  6  8  2  0  0  0  0
  6  9  1  0  0  0  0
  7  8  1  0  0  0  0
  9 10  1  0  0  0  0
 10 11  2  0  0  0  0
 10 12  1  0  0  0  0
 11 13  1  0  0  0  0
 12 14  2  0  0  0  0
 13 15  2  0  0  0  0
 14 15  1  0  0  0  0
M  END
> <ID>
5578

> <Formula>
C13H10O2

> <FW>
198.2173

> <DSSTox_CID>
8005

> <DSSTox_RID>
78636

> <DSSTox_GSID>
28005

> <DSSTox_FileID_Sort>
3318

> <TS_ChemName>
3-Phenoxybenzaldehyde

> <TS_ChemName_Synonyms>


> <TS_CASRN>
39515-51-0

> <CASRN_ChemName_Relationship>
primary

> <TS_Description>
single chemical compound

> <ChemNote>


> <STRUCTURE_Shown>
tested chemical

> <STRUCTURE_Formula>
C13H10O2

> <STRUCTURE_MW>
198.2173

> <STRUCTURE_ChemType>
defined organic

> <STRUCTURE_DefinedOrganicForm>
parent

> <STRUCTURE_IUPAC>
3-phenoxybenzaldehyde

> <STRUCTURE_SMILES>
O=Cc2cc(Oc1ccccc1)ccc2

> <STRUCTURE_SMILES_Desalt>
O=Cc2cc(Oc1ccccc1)ccc2

> <Substance_modify_yyyymmdd>
20080429

$$$$
