39515-40-7
ChemmineR-0915142007XD

 28 30  0  0  0  0  0  0  0  0  1 V2000
    4.1478   -1.0618    0.0000 C   0  0  0  0  0  0  0  0  0  0  0  0
    3.4841   -2.2232    0.0000 C   0  0  0  0  0  0  0  0  0  0  0  0
    4.8280   -2.2232    0.0000 C   0  0  0  0  0  0  0  0  0  0  0  0
    6.0226   -2.8703    0.0000 C   0  0  0  0  0  0  0  0  0  0  0  0
    2.3559   -2.8371    0.0000 C   0  0  0  0  0  0  0  0  0  0  0  0
    7.1840   -2.2232    0.0000 O   0  0  0  0  0  0  0  0  0  0  0  0
    8.3620   -5.4087    0.0000 N   0  0  0  0  0  0  0  0  0  0  0  0
    8.3620   -4.1976    0.0000 C   0  0  0  0  0  0  0  0  0  0  0  0
    8.3620   -2.8703    0.0000 C   0  0  0  0  0  0  0  0  0  0  0  0
    9.5233   -2.2398    0.0000 C   0  0  0  0  0  0  0  0  0  0  0  0
    6.0226   -4.1976    0.0000 O   0  0  0  0  0  0  0  0  0  0  0  0
    1.1448   -2.2232    0.0000 C   0  0  0  0  0  0  0  0  0  0  0  0
   10.7013   -2.9200    0.0000 C   0  0  0  0  0  0  0  0  0  0  0  0
   11.8959   -2.2896    0.0000 C   0  0  0  0  0  0  0  0  0  0  0  0
   13.0407   -2.8869    0.0000 O   0  0  0  0  0  0  0  0  0  0  0  0
    4.8280    0.0000    0.0000 C   0  0  0  0  0  0  0  0  0  0  0  0
    3.6169    0.0000    0.0000 C   0  0  0  0  0  0  0  0  0  0  0  0
   14.2684   -2.2232    0.0000 C   0  0  0  0  0  0  0  0  0  0  0  0
    9.5233   -0.9125    0.0000 C   0  0  0  0  0  0  0  0  0  0  0  0
   10.7013   -0.1991    0.0000 C   0  0  0  0  0  0  0  0  0  0  0  0
   11.8959   -0.9125    0.0000 C   0  0  0  0  0  0  0  0  0  0  0  0
    0.0000   -2.8371    0.0000 C   0  0  0  0  0  0  0  0  0  0  0  0
    1.1448   -0.8627    0.0000 C   0  0  0  0  0  0  0  0  0  0  0  0
   14.2684   -0.9125    0.0000 C   0  0  0  0  0  0  0  0  0  0  0  0
   15.4132   -2.8869    0.0000 C   0  0  0  0  0  0  0  0  0  0  0  0
   16.5912   -2.2896    0.0000 C   0  0  0  0  0  0  0  0  0  0  0  0
   15.3800   -0.2323    0.0000 C   0  0  0  0  0  0  0  0  0  0  0  0
   16.5912   -0.8959    0.0000 C   0  0  0  0  0  0  0  0  0  0  0  0
  1  2  1  0  0  0  0
  1  3  1  0  0  0  0
  1 16  1  0  0  0  0
  1 17  1  0  0  0  0
  2  5  1  0  0  0  0
  2  3  1  0  0  0  0
  3  4  1  0  0  0  0
  4  6  1  0  0  0  0
  4 11  2  0  0  0  0
  5 12  2  0  0  0  0
  6  9  1  0  0  0  0
  7  8  3  0  0  0  0
  8  9  1  0  0  0  0
  9 10  1  0  0  0  0
 10 13  1  0  0  0  0
 10 19  2  0  0  0  0
 12 22  1  0  0  0  0
 12 23  1  0  0  0  0
 13 14  2  0  0  0  0
 14 15  1  0  0  0  0
 14 21  1  0  0  0  0
 15 18  1  0  0  0  0
 18 24  1  0  0  0  0
 18 25  2  0  0  0  0
 19 20  1  0  0  0  0
 20 21  2  0  0  0  0
 24 27  2  0  0  0  0
 25 26  1  0  0  0  0
 26 28  2  0  0  0  0
 27 28  1  0  0  0  0
M  END
> <ID>
6503

> <Formula>
C24H25NO3

> <FW>
375.4602

> <DSSTox_CID>
12536

> <DSSTox_RID>
78973

> <DSSTox_GSID>
32536

> <DSSTox_FileID_Sort>
3655

> <TS_ChemName>
Cyphenothrin

> <TS_ChemName_Synonyms>


> <TS_CASRN>
39515-40-7

> <CASRN_ChemName_Relationship>
primary

> <TS_Description>
single chemical compound

> <ChemNote>
mixture of (R,S) isomers; structure shown without stereochem

> <STRUCTURE_Shown>
tested chemical

> <STRUCTURE_Formula>
C24H25NO3

> <STRUCTURE_MW>
375.4602

> <STRUCTURE_ChemType>
defined organic

> <STRUCTURE_DefinedOrganicForm>
parent

> <STRUCTURE_IUPAC>
cyano(3-phenoxyphenyl)methyl 2,2-dimethyl-3-(2-methylprop-1-en-1-yl)cyclopropanecarboxylate

> <STRUCTURE_SMILES>
C/C(C)=C/C3C(C(=O)OC(C#N)c2cccc(Oc1ccccc1)c2)C3(C)C

> <STRUCTURE_SMILES_Desalt>
C/C(C)=C/C3C(C(=O)OC(C#N)c2cccc(Oc1ccccc1)c2)C3(C)C

> <Substance_modify_yyyymmdd>
20080429

$$$$
