39562-70-4
ChemmineR-0915142007XD

 26 27  0  0  0  0  0  0  0  0  2 V2000
    1.1529   -4.6598    0.0000 C   0  0  0  0  0  0  0  0  0  0  0  0
    0.0000   -3.9907    0.0000 C   0  0  0  0  0  0  0  0  0  0  0  0
    2.3057   -3.9907    0.0000 C   0  0  0  0  0  0  0  0  0  0  0  0
    2.3057   -2.6604    0.0000 C   0  0  0  0  0  0  0  0  0  0  0  0
    3.4586   -1.9994    0.0000 O   0  0  0  0  0  0  0  0  0  0  0  0
    1.1529   -1.9994    0.0000 O   0  0  0  0  0  0  0  0  0  0  0  0
    0.0000   -2.6604    0.0000 C   0  0  0  0  0  0  0  0  0  0  0  0
    3.4586   -4.6598    0.0000 C   0  0  0  0  0  0  0  0  0  0  0  0
    4.6034   -3.9907    0.0000 C   0  0  0  0  0  0  0  0  0  0  0  0
    5.7562   -4.6598    0.0000 C   0  0  0  0  0  0  0  0  0  0  0  0
    6.9091   -3.9907    0.0000 C   0  0  0  0  0  0  0  0  0  0  0  0
    6.9091   -2.6604    0.0000 C   0  0  0  0  0  0  0  0  0  0  0  0
    5.7562   -1.9994    0.0000 C   0  0  0  0  0  0  0  0  0  0  0  0
    5.7562   -0.6691    0.0000 N   0  3  0  0  0  0  0  0  0  0  0  0
    6.9091    0.0000    0.0000 O   0  5  0  0  0  0  0  0  0  0  0  0
    4.6034    0.0000    0.0000 O   0  0  0  0  0  0  0  0  0  0  0  0
    4.6034   -2.6604    0.0000 C   0  0  0  0  0  0  0  0  0  0  0  0
    3.4586   -5.9900    0.0000 C   0  0  0  0  0  0  0  0  0  0  0  0
    4.6034   -6.6511    0.0000 C   0  0  0  0  0  0  0  0  0  0  0  0
    4.6034   -7.9813    0.0000 O   0  0  0  0  0  0  0  0  0  0  0  0
    5.7562   -5.9900    0.0000 O   0  0  0  0  0  0  0  0  0  0  0  0
    6.9091   -6.6511    0.0000 C   0  0  0  0  0  0  0  0  0  0  0  0
    8.0619   -5.9900    0.0000 C   0  0  0  0  0  0  0  0  0  0  0  0
    2.3057   -6.6511    0.0000 C   0  0  0  0  0  0  0  0  0  0  0  0
    2.3057   -7.9813    0.0000 C   0  0  0  0  0  0  0  0  0  0  0  0
    1.1529   -5.9900    0.0000 N   0  0  0  0  0  0  0  0  0  0  0  0
  1  2  1  0  0  0  0
  1  3  2  0  0  0  0
  1 26  1  0  0  0  0
  3  4  1  0  0  0  0
  3  8  1  0  0  0  0
  4  5  2  0  0  0  0
  4  6  1  0  0  0  0
  6  7  1  0  0  0  0
  8  9  1  0  0  0  0
  8 18  1  0  0  0  0
  9 10  2  0  0  0  0
  9 17  1  0  0  0  0
 10 11  1  0  0  0  0
 11 12  2  0  0  0  0
 12 13  1  0  0  0  0
 13 14  1  0  0  0  0
 13 17  2  0  0  0  0
 14 15  1  0  0  0  0
 14 16  2  0  0  0  0
 18 19  1  0  0  0  0
 18 24  2  0  0  0  0
 19 20  2  0  0  0  0
 19 21  1  0  0  0  0
 21 22  1  0  0  0  0
 22 23  1  0  0  0  0
 24 25  1  0  0  0  0
 24 26  1  0  0  0  0
M  END
> <ID>
3026

> <Formula>
C18H20N2O6

> <FW>
360.3612

> <DSSTox_CID>
3373

> <DSSTox_RID>
77001

> <DSSTox_GSID>
23373

> <DSSTox_FileID_Sort>
1685

> <TS_ChemName>
Nitrendipine

> <TS_ChemName_Synonyms>


> <TS_CASRN>
39562-70-4

> <CASRN_ChemName_Relationship>
primary

> <TS_Description>
single chemical compound

> <ChemNote>


> <STRUCTURE_Shown>
tested chemical

> <STRUCTURE_Formula>
C18H20N2O6

> <STRUCTURE_MW>
360.3612

> <STRUCTURE_ChemType>
defined organic

> <STRUCTURE_DefinedOrganicForm>
parent

> <STRUCTURE_IUPAC>
ethyl methyl 2,6-dimethyl-4-(3-nitrophenyl)-1,4-dihydropyridine-3,5-dicarboxylate

> <STRUCTURE_SMILES>
CC=1NC(C)=C(C(C=1C(=O)OCC)c2cccc(c2)[N+]([O-])=O)C(=O)OC

> <STRUCTURE_SMILES_Desalt>
CC=1NC(C)=C(C(C=1C(=O)OCC)c2cccc(c2)[N+]([O-])=O)C(=O)OC

> <Substance_modify_yyyymmdd>
20080429

$$$$
