396-01-0
ChemmineR-0915142007XD

 19 21  0  0  0  0  0  0  0  0  1 V2000
    6.9115   -0.6635    0.0000 N   0  0  0  0  0  0  0  0  0  0  0  0
    6.9115   -1.9905    0.0000 C   0  0  0  0  0  0  0  0  0  0  0  0
    5.7596   -2.6540    0.0000 C   0  0  0  0  0  0  0  0  0  0  0  0
    5.7596   -3.9903    0.0000 C   0  0  0  0  0  0  0  0  0  0  0  0
    6.9115   -4.6538    0.0000 N   0  0  0  0  0  0  0  0  0  0  0  0
    8.0635   -3.9903    0.0000 C   0  0  0  0  0  0  0  0  0  0  0  0
    8.0635   -2.6540    0.0000 N   0  0  0  0  0  0  0  0  0  0  0  0
    9.2154   -4.6538    0.0000 N   0  0  0  0  0  0  0  0  0  0  0  0
    4.6077   -4.6538    0.0000 N   0  0  0  0  0  0  0  0  0  0  0  0
    3.4558   -3.9903    0.0000 C   0  0  0  0  0  0  0  0  0  0  0  0
    3.4558   -2.6540    0.0000 C   0  0  0  0  0  0  0  0  0  0  0  0
    4.6077   -1.9905    0.0000 N   0  0  0  0  0  0  0  0  0  0  0  0
    2.3038   -1.9905    0.0000 C   0  0  0  0  0  0  0  0  0  0  0  0
    1.1519   -2.6540    0.0000 C   0  0  0  0  0  0  0  0  0  0  0  0
    0.0000   -1.9905    0.0000 C   0  0  0  0  0  0  0  0  0  0  0  0
    0.0000   -0.6635    0.0000 C   0  0  0  0  0  0  0  0  0  0  0  0
    1.1519    0.0000    0.0000 C   0  0  0  0  0  0  0  0  0  0  0  0
    2.3038   -0.6635    0.0000 C   0  0  0  0  0  0  0  0  0  0  0  0
    2.3038   -4.6538    0.0000 N   0  0  0  0  0  0  0  0  0  0  0  0
  1  2  1  0  0  0  0
  2  3  2  0  0  0  0
  2  7  1  0  0  0  0
  3  4  1  0  0  0  0
  3 12  1  0  0  0  0
  4  5  2  0  0  0  0
  4  9  1  0  0  0  0
  5  6  1  0  0  0  0
  6  7  2  0  0  0  0
  6  8  1  0  0  0  0
  9 10  2  0  0  0  0
 10 11  1  0  0  0  0
 10 19  1  0  0  0  0
 11 12  2  0  0  0  0
 11 13  1  0  0  0  0
 13 14  2  0  0  0  0
 13 18  1  0  0  0  0
 14 15  1  0  0  0  0
 15 16  2  0  0  0  0
 16 17  1  0  0  0  0
 17 18  2  0  0  0  0
M  END
> <ID>
1319

> <Formula>
C12H11N7

> <FW>
253.2626

> <DSSTox_CID>
1373

> <DSSTox_RID>
76117

> <DSSTox_GSID>
21373

> <DSSTox_FileID_Sort>
801

> <TS_ChemName>
Triamterene

> <TS_ChemName_Synonyms>


> <TS_CASRN>
396-01-0

> <CASRN_ChemName_Relationship>
primary

> <TS_Description>
single chemical compound

> <ChemNote>


> <STRUCTURE_Shown>
tested chemical

> <STRUCTURE_Formula>
C12H11N7

> <STRUCTURE_MW>
253.2626

> <STRUCTURE_ChemType>
defined organic

> <STRUCTURE_DefinedOrganicForm>
parent

> <STRUCTURE_IUPAC>
6-phenylpteridine-2,4,7-triamine

> <STRUCTURE_SMILES>
Nc2nc(N)nc1nc(N)c(nc12)c3ccccc3

> <STRUCTURE_SMILES_Desalt>
Nc2nc(N)nc1nc(N)c(nc12)c3ccccc3

> <Substance_modify_yyyymmdd>
20080429

$$$$
