39624-66-3
ChemmineR-0915142007XD

 30 31  0  0  1  0  0  0  0  0  1 V2000
    7.7033   -8.0690    0.0000 C   0  0  0  0  0  0  0  0  0  0  0  0
    7.7033   -6.7360    0.0000 O   0  0  0  0  0  0  0  0  0  0  0  0
    6.5590   -6.0754    0.0000 C   0  0  0  0  0  0  0  0  0  0  0  0
    5.4029   -6.7360    0.0000 C   0  0  0  0  0  0  0  0  0  0  0  0
    4.2468   -6.0754    0.0000 C   0  0  0  0  0  0  0  0  0  0  0  0
    4.2468   -4.7423    0.0000 C   0  0  0  0  0  0  0  0  0  0  0  0
    5.4029   -4.0699    0.0000 C   0  0  0  0  0  0  0  0  0  0  0  0
    6.5590   -4.7423    0.0000 C   0  0  0  0  0  0  0  0  0  0  0  0
    7.7033   -4.0699    0.0000 O   0  0  0  0  0  0  0  0  0  0  0  0
    8.8594   -4.7423    0.0000 C   0  0  0  0  0  0  0  0  0  0  0  0
    3.2087   -3.9165    0.0000 C   0  0  0  0  0  0  0  0  0  0  0  0
    1.9111   -4.2115    0.0000 C   0  0  0  0  0  0  0  0  0  0  0  0
    1.3330   -5.4029    0.0000 N   0  0  0  0  0  0  0  0  0  0  0  0
    0.0000   -5.4029    0.0000 C   0  0  0  0  0  0  0  0  0  0  0  0
    1.9111   -6.6062    0.0000 C   0  0  0  0  0  0  0  0  0  0  0  0
    3.2087   -6.9011    0.0000 C   0  0  0  0  0  0  0  0  0  0  0  0
    3.4801   -2.6307    0.0000 C   0  0  0  0  0  0  0  0  0  0  0  0
    2.5481   -1.6869    0.0000 C   0  0  0  0  0  0  0  0  0  0  0  0
    2.8194   -0.4129    0.0000 C   0  0  0  0  0  0  0  0  0  0  0  0
    4.1171    0.0000    0.0000 C   0  0  0  0  0  0  0  0  0  0  0  0
    5.0490   -0.9437    0.0000 C   0  0  0  0  0  0  0  0  0  0  0  0
    4.7777   -2.2178    0.0000 C   0  0  0  0  0  0  0  0  0  0  0  0
    5.0608   -9.4964    0.0000 O   0  0  0  0  0  0  0  0  0  0  0  0
    5.7214  -10.6407    0.0000 C   0  0  0  0  0  0  0  0  0  0  0  0
    7.0545  -10.6407    0.0000 O   0  0  0  0  0  0  0  0  0  0  0  0
    5.0608  -11.7968    0.0000 C   0  0  0  0  0  0  0  0  0  0  0  0
    3.7278  -11.7968    0.0000 C   0  0  0  0  0  0  0  0  0  0  0  0
    3.0672  -10.6407    0.0000 C   0  0  0  0  0  0  0  0  0  0  0  0
    1.7341  -10.6407    0.0000 O   0  0  0  0  0  0  0  0  0  0  0  0
    3.7278   -9.4964    0.0000 O   0  0  0  0  0  0  0  0  0  0  0  0
  1  2  1  0  0  0  0
  2  3  1  0  0  0  0
  3  4  2  0  0  0  0
  3  8  1  0  0  0  0
  4  5  1  0  0  0  0
  5  6  2  0  0  0  0
  5 16  1  0  0  0  0
  6  7  1  0  0  0  0
  6 11  1  0  0  0  0
  7  8  2  0  0  0  0
  8  9  1  0  0  0  0
  9 10  1  0  0  0  0
 11 12  1  0  0  0  0
 11 17  1  6  0  0  0
 12 13  1  0  0  0  0
 13 14  1  0  0  0  0
 13 15  1  0  0  0  0
 15 16  1  0  0  0  0
 17 18  2  0  0  0  0
 17 22  1  0  0  0  0
 18 19  1  0  0  0  0
 19 20  2  0  0  0  0
 20 21  1  0  0  0  0
 21 22  2  0  0  0  0
 23 24  1  0  0  0  0
 24 25  2  0  0  0  0
 24 26  1  0  0  0  0
 26 27  2  0  0  0  0
 27 28  1  0  0  0  0
 28 29  1  0  0  0  0
 28 30  2  0  0  0  0
M  END
> <ID>
11209

> <Formula>
C23H27NO6

> <FW>
413.4636 (297.3914+116.0722)

> <DSSTox_CID>
25803

> <DSSTox_RID>
81141

> <DSSTox_GSID>
45803

> <DSSTox_FileID_Sort>
5822

> <TS_ChemName>
Trepipam maleate

> <TS_ChemName_Synonyms>


> <TS_CASRN>
39624-66-3

> <CASRN_ChemName_Relationship>
primary

> <TS_Description>
single chemical compound

> <ChemNote>
stereochem; parent [56030-50-3]

> <STRUCTURE_Shown>
tested chemical

> <STRUCTURE_Formula>
C23H27NO6

> <STRUCTURE_MW>
413.4636

> <STRUCTURE_ChemType>
defined organic

> <STRUCTURE_DefinedOrganicForm>
complex

> <STRUCTURE_IUPAC>
(1R)-7,8-dimethoxy-3-methyl-1-phenyl-2,3,4,5-tetrahydro-1H-3-benzazepine (2Z)-but-2-enedioate (1:1)

> <STRUCTURE_SMILES>
O=C(O)/C=C\C(=O)O.COc1cc2CCN(C)C[C@@H](c2cc1OC)c3ccccc3

> <STRUCTURE_SMILES_Desalt>
COc1cc2CCN(C)C[C@@H](c2cc1OC)c3ccccc3

> <Substance_modify_yyyymmdd>
20110909

$$$$
