3963-95-9
ChemmineR-0915142007XD

 35 37  0  0  1  0  0  0  0  0  1 V2000
    6.8841   -3.9716    0.0000 C    0  0  0  0  0  0  0  0  0  0  0  0
    4.6048   -3.9831    0.0000 C    0  0  0  0  0  0  0  0  0  0  0  0
    6.8841   -2.6477    0.0000 C    0  0  0  0  0  0  0  0  0  0  0  0
    9.1635   -3.9831    0.0000 C    0  0  0  0  0  0  0  0  0  0  0  0
    5.7560   -4.6278    0.0000 C    0  0  0  0  0  0  0  0  0  0  0  0
    8.0238   -4.6278    0.0000 C    0  0  0  0  0  0  0  0  0  0  0  0
    9.1635   -2.6477    0.0000 C    0  0  0  0  0  0  0  0  0  0  0  0
    4.6048   -2.6477    0.0000 C    0  0  0  0  0  0  0  0  0  0  0  0
    3.4651   -4.6393    0.0000 C    0  0  0  0  0  0  0  0  0  0  0  0
    3.4651   -1.9801    0.0000 C    0  0  0  0  0  0  0  0  0  0  0  0
    8.0238   -1.9916    0.0000 C    0  0  0  0  0  0  0  0  0  0  0  0
    2.3139   -3.9831    0.0000 C    0  0  0  0  0  0  0  0  0  0  0  0
    5.7560   -1.9916    0.0000 C    0  0  0  0  0  0  0  0  0  0  0  0
    2.3139   -2.6362    0.0000 C    0  0  0  0  0  0  0  0  0  0  0  0
   10.3492   -4.6739    0.0000 C    0  0  0  0  0  0  0  0  0  0  0  0
    8.0238   -0.6562    0.0000 N    0  0  0  0  0  0  0  0  0  0  0  0
    8.0238   -5.9632    0.0000 O    0  0  0  0  0  0  0  0  0  0  0  0
    3.4651   -5.9632    0.0000 O    0  0  0  0  0  0  0  0  0  0  0  0
    1.1627   -4.6393    0.0000 C    0  0  0  0  0  0  0  0  0  0  0  0
    3.4651   -0.6447    0.0000 C    0  0  0  0  0  0  0  0  0  0  0  0
    6.8841   -5.3070    0.0000 O    0  0  0  0  0  0  0  0  0  0  0  0
   10.3492   -5.9977    0.0000 O    0  0  0  0  0  0  0  0  0  0  0  0
    5.7560   -5.9632    0.0000 O    0  0  0  0  0  0  0  0  0  0  0  0
   10.3492   -1.9455    0.0000 O    0  0  0  0  0  0  0  0  0  0  0  0
    5.7560   -0.6562    0.0000 O    0  0  0  0  0  0  0  0  0  0  0  0
   11.5120   -4.0407    0.0000 N    0  0  0  0  0  0  0  0  0  0  0  0
    1.1627   -1.9570    0.0000 C    0  0  0  0  0  0  0  0  0  0  0  0
    1.1627   -5.9747    0.0000 O    0  0  0  0  0  0  0  0  0  0  0  0
    0.0000   -2.6132    0.0000 C    0  0  0  0  0  0  0  0  0  0  0  0
    0.0000   -4.0062    0.0000 C    0  0  0  0  0  0  0  0  0  0  0  0
    9.1635    0.0000    0.0000 C    0  0  0  0  0  0  0  0  0  0  0  0
    6.8841    0.0000    0.0000 C    0  0  0  0  0  0  0  0  0  0  0  0
    6.8841   -1.3239    0.0000 H    0  0  0  0  0  0  0  0  0  0  0  0
    4.6278   -1.3124    0.0000 H    0  0  0  0  0  0  0  0  0  0  0  0
    6.4927   -7.5749    0.0000 Cl   0  0  0  0  0  0  0  0  0  0  0  0
  1  3  1  0  0  0  0
  1  5  1  0  0  0  0
  1  6  1  0  0  0  0
  1 21  1  6  0  0  0
  2  5  2  0  0  0  0
  2  8  1  0  0  0  0
  2  9  1  0  0  0  0
  3 11  1  0  0  0  0
  3 13  1  0  0  0  0
  3 33  1  6  0  0  0
  4  6  1  0  0  0  0
  4  7  2  0  0  0  0
  4 15  1  0  0  0  0
  5 23  1  0  0  0  0
  6 17  2  0  0  0  0
  7 24  1  0  0  0  0
  7 11  1  0  0  0  0
  8 10  1  0  0  0  0
  8 34  1  6  0  0  0
  8 13  1  0  0  0  0
  9 12  1  0  0  0  0
  9 18  2  0  0  0  0
 10 20  2  0  0  0  0
 10 14  1  0  0  0  0
 11 16  1  6  0  0  0
 12 14  2  0  0  0  0
 12 19  1  0  0  0  0
 13 25  1  6  0  0  0
 14 27  1  0  0  0  0
 15 22  2  0  0  0  0
 15 26  1  0  0  0  0
 16 31  1  0  0  0  0
 16 32  1  0  0  0  0
 19 28  1  0  0  0  0
 19 30  2  0  0  0  0
 27 29  2  0  0  0  0
 29 30  1  0  0  0  0
M  END
> <ID>
10911

> <Formula>
C22H23ClN2O8

> <FW>
478.8796 (442.4187+36.4609)

> <DSSTox_CID>
25382

> <DSSTox_RID>
80840

> <DSSTox_GSID>
45382

> <DSSTox_FileID_Sort>
5521

> <TS_ChemName>
Methacycline hydrochloride

> <TS_ChemName_Synonyms>


> <TS_CASRN>
3963-95-9

> <CASRN_ChemName_Relationship>
primary

> <TS_Description>
single chemical compound

> <ChemNote>
stereochem; parent [914-00-1]

> <STRUCTURE_Shown>
tested chemical

> <STRUCTURE_Formula>
C22H23ClN2O8

> <STRUCTURE_MW>
478.8796

> <STRUCTURE_ChemType>
defined organic

> <STRUCTURE_DefinedOrganicForm>
complex

> <STRUCTURE_IUPAC>
(4S,4aR,5S,5aR,12aS)-4-(dimethylamino)-3,5,10,12,12a-pentahydroxy-6-methylidene-1,11-dioxo-1,4,4a,5,5a,6,11,12a-octahydrotetracene-2-carboxamide hydrochloride (1:1)

> <STRUCTURE_SMILES>
Cl.NC(=O)C=3C(=O)[C@@]4(O)C(O)=C2C(=O)c1c(O)cccc1C(=C)[C@H]2[C@H](O)[C@H]4[C@@H](C=3O)N(C)C

> <STRUCTURE_SMILES_Desalt>
NC(=O)C=3C(=O)[C@@]4(O)C(O)=C2C(=O)c1c(O)cccc1C(=C)[C@H]2[C@H](O)[C@H]4[C@@H](C=3O)N(C)C

> <Substance_modify_yyyymmdd>
20100107

$$$$
