3965-55-7
ChemmineR-0915142007XD

 19 18  0  0  0  0  0  0  0  0  2 V2000
    1.0881   -1.1929    0.0000 Na   0  3  0  0  0  0  0  0  0  0  0  0
    4.6023   -2.6598    0.0000 C    0  0  0  0  0  0  0  0  0  0  0  0
    5.7549   -3.3208    0.0000 C    0  0  0  0  0  0  0  0  0  0  0  0
    5.7549   -4.6507    0.0000 C    0  0  0  0  0  0  0  0  0  0  0  0
    4.6023   -5.3197    0.0000 C    0  0  0  0  0  0  0  0  0  0  0  0
    3.4578   -4.6507    0.0000 C    0  0  0  0  0  0  0  0  0  0  0  0
    3.4578   -3.3208    0.0000 C    0  0  0  0  0  0  0  0  0  0  0  0
    4.6023   -1.3299    0.0000 S    0  0  0  0  0  0  0  0  0  0  0  0
    5.9322   -1.3299    0.0000 O    0  0  0  0  0  0  0  0  0  0  0  0
    3.2724   -1.3299    0.0000 O    0  5  0  0  0  0  0  0  0  0  0  0
    4.6023    0.0000    0.0000 O    0  0  0  0  0  0  0  0  0  0  0  0
    0.0000   -5.3197    0.0000 C    0  0  0  0  0  0  0  0  0  0  0  0
    1.1526   -4.6507    0.0000 O    0  0  0  0  0  0  0  0  0  0  0  0
    2.3052   -5.3197    0.0000 C    0  0  0  0  0  0  0  0  0  0  0  0
    2.3052   -6.6496    0.0000 O    0  0  0  0  0  0  0  0  0  0  0  0
    8.0601   -7.3105    0.0000 C    0  0  0  0  0  0  0  0  0  0  0  0
    6.9075   -6.6496    0.0000 O    0  0  0  0  0  0  0  0  0  0  0  0
    6.9075   -5.3197    0.0000 C    0  0  0  0  0  0  0  0  0  0  0  0
    8.0601   -4.6507    0.0000 O    0  0  0  0  0  0  0  0  0  0  0  0
  2  3  2  0  0  0  0
  2  7  1  0  0  0  0
  2  8  1  0  0  0  0
  3  4  1  0  0  0  0
  4  5  2  0  0  0  0
  4 18  1  0  0  0  0
  5  6  1  0  0  0  0
  6  7  2  0  0  0  0
  6 14  1  0  0  0  0
  8  9  2  0  0  0  0
  8 10  1  0  0  0  0
  8 11  2  0  0  0  0
 12 13  1  0  0  0  0
 13 14  1  0  0  0  0
 14 15  2  0  0  0  0
 16 17  1  0  0  0  0
 17 18  1  0  0  0  0
 18 19  2  0  0  0  0
M  END
> <ID>
5242

> <Formula>
C10H9NaO7S

> <FW>
296.2290 (22.9892+273.2398)

> <DSSTox_CID>
7551

> <DSSTox_RID>
78502

> <DSSTox_GSID>
27551

> <DSSTox_FileID_Sort>
3185

> <TS_ChemName>
Sodium 3,5-bis(methoxycarbonyl)benzenesulfonate

> <TS_ChemName_Synonyms>
Sodium 3,5-bis(methoxycarbonyl)benzenesulfonate (1,3-Benzenedicarboxylic acid, 5-sulfo-, 1,3-dimethyl ester, sodium salt)

> <TS_CASRN>
3965-55-7

> <CASRN_ChemName_Relationship>
primary

> <TS_Description>
single chemical compound

> <ChemNote>


> <STRUCTURE_Shown>
tested chemical

> <STRUCTURE_Formula>
C10H9NaO7S

> <STRUCTURE_MW>
296.229

> <STRUCTURE_ChemType>
defined organic

> <STRUCTURE_DefinedOrganicForm>
salt

> <STRUCTURE_IUPAC>
sodium 3,5-bis(methoxycarbonyl)benzenesulfonate

> <STRUCTURE_SMILES>
[Na+].O=S([O-])(=O)c1cc(cc(c1)C(=O)OC)C(=O)OC

> <STRUCTURE_SMILES_Desalt>
OS(=O)(=O)c1cc(cc(c1)C(=O)OC)C(=O)OC

> <Substance_modify_yyyymmdd>
20080429

$$$$
