3970-62-5
ChemmineR-0915142007XD

  8  7  0  0  0  0  0  0  0  0  1 V2000
    0.0000   -2.6616    0.0000 C   0  0  0  0  0  0  0  0  0  0  0  0
    1.1558   -1.9893    0.0000 C   0  0  0  0  0  0  0  0  0  0  0  0
    2.3116   -1.3308    0.0000 C   0  0  0  0  0  0  0  0  0  0  0  0
    3.4490   -1.9893    0.0000 C   0  0  0  0  0  0  0  0  0  0  0  0
    4.6048   -1.3308    0.0000 C   0  0  0  0  0  0  0  0  0  0  0  0
    2.3116    0.0000    0.0000 O   0  0  0  0  0  0  0  0  0  0  0  0
    0.4835   -0.8335    0.0000 C   0  0  0  0  0  0  0  0  0  0  0  0
    1.8143   -3.1451    0.0000 C   0  0  0  0  0  0  0  0  0  0  0  0
  1  2  1  0  0  0  0
  2  3  1  0  0  0  0
  2  7  1  0  0  0  0
  2  8  1  0  0  0  0
  3  4  1  0  0  0  0
  3  6  1  0  0  0  0
  4  5  1  0  0  0  0
M  END
> <ID>
6586

> <Formula>
C7H16O

> <FW>
116.2013

> <DSSTox_CID>
12813

> <DSSTox_RID>
79039

> <DSSTox_GSID>
32813

> <DSSTox_FileID_Sort>
3721

> <TS_ChemName>
2,2-Dimethyl-3-pentanol

> <TS_ChemName_Synonyms>


> <TS_CASRN>
3970-62-5

> <CASRN_ChemName_Relationship>
primary

> <TS_Description>
single chemical compound

> <ChemNote>


> <STRUCTURE_Shown>
tested chemical

> <STRUCTURE_Formula>
C7H16O

> <STRUCTURE_MW>
116.2013

> <STRUCTURE_ChemType>
defined organic

> <STRUCTURE_DefinedOrganicForm>
parent

> <STRUCTURE_IUPAC>
2,2-dimethylpentan-3-ol

> <STRUCTURE_SMILES>
CC(C)(C)C(O)CC

> <STRUCTURE_SMILES_Desalt>
CC(C)(C)C(O)CC

> <Substance_modify_yyyymmdd>
20080429

$$$$
