39731-05-0
ChemmineR-0915142007XD

 25 26  0  0  0  0  0  0  0  0  1 V2000
    2.2899   -5.8039    0.0000 C   0  0  0  0  0  0  0  0  0  0  0  0
    2.2899   -7.1250    0.0000 C   0  0  0  0  0  0  0  0  0  0  0  0
    1.1449   -5.1522    0.0000 C   0  0  0  0  0  0  0  0  0  0  0  0
    1.1449   -7.8384    0.0000 C   0  0  0  0  0  0  0  0  0  0  0  0
    0.0000   -5.8039    0.0000 C   0  0  0  0  0  0  0  0  0  0  0  0
    0.0000   -7.1250    0.0000 C   0  0  0  0  0  0  0  0  0  0  0  0
    3.5581   -5.4252    0.0000 C   0  0  0  0  0  0  0  0  0  0  0  0
    4.3067   -6.5173    0.0000 C   0  0  0  0  0  0  0  0  0  0  0  0
    3.5581   -7.5654    0.0000 N   0  0  0  0  0  0  0  0  0  0  0  0
    5.6718   -6.5173    0.0000 C   0  0  0  0  0  0  0  0  0  0  0  0
    6.3235   -5.3283    0.0000 O   0  0  0  0  0  0  0  0  0  0  0  0
    6.3235   -7.6622    0.0000 O   0  0  0  0  0  0  0  0  0  0  0  0
    7.6446   -7.6622    0.0000 C   0  0  0  0  0  0  0  0  0  0  0  0
    8.3140   -8.8072    0.0000 C   0  0  0  0  0  0  0  0  0  0  0  0
    8.3140   -6.5173    0.0000 C   0  0  0  0  0  0  0  0  0  0  0  0
    1.1449   -3.8311    0.0000 O   0  0  0  0  0  0  0  0  0  0  0  0
    2.2899   -3.1794    0.0000 C   0  0  0  0  0  0  0  0  0  0  0  0
    2.2899   -1.8143    0.0000 C   0  0  0  0  0  0  0  0  0  0  0  0
    3.4348   -1.1449    0.0000 C   0  0  0  0  0  0  0  0  0  0  0  0
    4.6238   -1.8143    0.0000 N   0  0  0  0  0  0  0  0  0  0  0  0
    1.1449   -1.1449    0.0000 O   0  0  0  0  0  0  0  0  0  0  0  0
    5.7511   -1.1449    0.0000 C   0  0  0  0  0  0  0  0  0  0  0  0
    5.0553    0.0000    0.0000 C   0  0  0  0  0  0  0  0  0  0  0  0
    6.8960   -0.4932    0.0000 C   0  0  0  0  0  0  0  0  0  0  0  0
    6.4204   -2.2899    0.0000 C   0  0  0  0  0  0  0  0  0  0  0  0
  1  3  2  0  0  0  0
  1  7  1  0  0  0  0
  1  2  1  0  0  0  0
  2  4  2  0  0  0  0
  2  9  1  0  0  0  0
  3  5  1  0  0  0  0
  3 16  1  0  0  0  0
  4  6  1  0  0  0  0
  5  6  2  0  0  0  0
  7  8  2  0  0  0  0
  8  9  1  0  0  0  0
  8 10  1  0  0  0  0
 10 11  2  0  0  0  0
 10 12  1  0  0  0  0
 12 13  1  0  0  0  0
 13 14  1  0  0  0  0
 13 15  1  0  0  0  0
 16 17  1  0  0  0  0
 17 18  1  0  0  0  0
 18 19  1  0  0  0  0
 18 21  1  0  0  0  0
 19 20  1  0  0  0  0
 20 22  1  0  0  0  0
 22 23  1  0  0  0  0
 22 24  1  0  0  0  0
 22 25  1  0  0  0  0
M  END
> <ID>
14025

> <Formula>
C19H28N2O4

> <FW>
348.4366

> <DSSTox_CID>
28967

> <DSSTox_RID>
83232

> <DSSTox_GSID>
49041

> <DSSTox_FileID_Sort>
7907

> <TS_ChemName>
SDZ 21009

> <TS_ChemName_Synonyms>


> <TS_CASRN>
39731-05-0

> <CASRN_ChemName_Relationship>
primary

> <TS_Description>
single chemical compound

> <ChemNote>


> <STRUCTURE_Shown>
tested chemical

> <STRUCTURE_Formula>
C19H28N2O4

> <STRUCTURE_MW>
348.4366

> <STRUCTURE_ChemType>
defined organic

> <STRUCTURE_DefinedOrganicForm>
parent

> <STRUCTURE_IUPAC>
propan-2-yl 4-[3-(tert-butylamino)-2-hydroxypropoxy]-1H-indole-2-carboxylate

> <STRUCTURE_SMILES>
CC(C)(C)NCC(O)COc2cccc1nc(cc12)C(=O)OC(C)C

> <STRUCTURE_SMILES_Desalt>
CC(C)(C)NCC(O)COc2cccc1nc(cc12)C(=O)OC(C)C

> <Substance_modify_yyyymmdd>
20111204

$$$$
