39800-16-3
ChemmineR-0915142007XD

 16 16  0  0  0  0  0  0  0  0  1 V2000
    2.3139   -2.6811    0.0000 N    0  0  0  0  0  0  0  0  0  0  0  0
    2.3139   -4.0181    0.0000 P    0  0  0  0  0  0  0  0  0  0  0  0
    1.1569   -2.0091    0.0000 C    0  0  0  0  0  0  0  0  0  0  0  0
    1.1569   -4.6763    0.0000 O    0  0  0  0  0  0  0  0  0  0  0  0
    0.0000   -2.6811    0.0000 C    0  0  0  0  0  0  0  0  0  0  0  0
    0.0000   -4.0181    0.0000 C    0  0  0  0  0  0  0  0  0  0  0  0
    3.4708   -4.6763    0.0000 N    0  0  0  0  0  0  0  0  0  0  0  0
    3.4708   -6.0133    0.0000 C    0  0  0  0  0  0  0  0  0  0  0  0
    4.6278   -4.0181    0.0000 C    0  0  0  0  0  0  0  0  0  0  0  0
    5.7847   -4.6763    0.0000 C    0  0  0  0  0  0  0  0  0  0  0  0
    6.9278   -4.0181    0.0000 Cl   0  0  0  0  0  0  0  0  0  0  0  0
    4.6278   -6.6853    0.0000 C    0  0  0  0  0  0  0  0  0  0  0  0
    5.7847   -6.0133    0.0000 Cl   0  0  0  0  0  0  0  0  0  0  0  0
    2.3139   -5.2859    0.0000 O    0  0  0  0  0  0  0  0  0  0  0  0
    1.1569   -0.6720    0.0000 O    0  0  0  0  0  0  0  0  0  0  0  0
    2.3139    0.0000    0.0000 O    0  0  0  0  0  0  0  0  0  0  0  0
  1  2  1  0  0  0  0
  1  3  1  0  0  0  0
  2  4  1  0  0  0  0
  2  7  1  0  0  0  0
  2 14  2  0  0  0  0
  3  5  1  0  0  0  0
  3 15  1  0  0  0  0
  4  6  1  0  0  0  0
  5  6  1  0  0  0  0
  7  8  1  0  0  0  0
  7  9  1  0  0  0  0
  8 12  1  0  0  0  0
  9 10  1  0  0  0  0
 10 11  1  0  0  0  0
 12 13  1  0  0  0  0
 15 16  1  0  0  0  0
M  END
> <ID>
14042

> <Formula>
C7H15Cl2N2O4P

> <FW>
293.0848

> <DSSTox_CID>
28984

> <DSSTox_RID>
83249

> <DSSTox_GSID>
49058

> <DSSTox_FileID_Sort>
7924

> <TS_ChemName>
4-Hydroperoxy cyclophosphamide

> <TS_ChemName_Synonyms>


> <TS_CASRN>
39800-16-3

> <CASRN_ChemName_Relationship>
primary

> <TS_Description>
single chemical compound

> <ChemNote>


> <STRUCTURE_Shown>
tested chemical

> <STRUCTURE_Formula>
C7H15Cl2N2O4P

> <STRUCTURE_MW>
293.0848

> <STRUCTURE_ChemType>
defined organic

> <STRUCTURE_DefinedOrganicForm>
parent

> <STRUCTURE_IUPAC>
2-[bis(2-chloroethyl)amino]-2-oxido-1,3,2-oxazaphosphinan-4-yl hydroperoxide

> <STRUCTURE_SMILES>
O=P1(NC(CCO1)OO)N(CCCl)CCCl

> <STRUCTURE_SMILES_Desalt>
O=P1(NC(CCO1)OO)N(CCCl)CCCl

> <Substance_modify_yyyymmdd>
20111204

$$$$
