39878-70-1
ChemmineR-0915142007XD

 37 40  0  0  1  0  0  0  0  0  1 V2000
    6.1233   -5.3123    0.0000 N    0  0  0  0  0  0  0  0  0  0  0  0
    6.1233   -3.9741    0.0000 C    0  0  0  0  0  0  0  0  0  0  0  0
    4.7851   -5.3123    0.0000 C    0  0  0  0  0  0  0  0  0  0  0  0
    4.7851   -3.9741    0.0000 C    0  0  0  0  0  0  0  0  0  0  0  0
    7.4345   -5.6908    0.0000 C    0  0  0  0  0  0  0  0  0  0  0  0
    7.3940   -3.5550    0.0000 S    0  0  0  0  0  0  0  0  0  0  0  0
    8.1915   -4.6229    0.0000 C    0  0  0  0  0  0  0  0  0  0  0  0
    7.4345   -7.0425    0.0000 C    0  0  0  0  0  0  0  0  0  0  0  0
    9.6514   -6.9344    0.0000 C    0  0  0  0  0  0  0  0  0  0  0  0
    9.6514   -5.5962    0.0000 O    0  0  0  0  0  0  0  0  0  0  0  0
   10.9220   -5.2177    0.0000 C    0  0  0  0  0  0  0  0  0  0  0  0
    8.5700   -7.6778    0.0000 O    0  0  0  0  0  0  0  0  0  0  0  0
    2.3115   -4.6500    0.0000 C    0  0  0  0  0  0  0  0  0  0  0  0
   10.8814   -7.3534    0.0000 C    0  0  0  0  0  0  0  0  0  0  0  0
   11.6925   -6.2855    0.0000 C    0  0  0  0  0  0  0  0  0  0  0  0
    1.1895   -3.9741    0.0000 C    0  0  0  0  0  0  0  0  0  0  0  0
    3.8659   -6.2315    0.0000 O    0  0  0  0  0  0  0  0  0  0  0  0
    6.2585   -7.6778    0.0000 O    0  0  0  0  0  0  0  0  0  0  0  0
   11.3275   -3.9200    0.0000 O    0  0  0  0  0  0  0  0  0  0  0  0
    2.3115   -5.9611    0.0000 O    0  0  0  0  0  0  0  0  0  0  0  0
    1.1895   -2.6224    0.0000 C    0  0  0  0  0  0  0  0  0  0  0  0
    0.0000   -4.6500    0.0000 N    0  0  0  0  0  0  0  0  0  0  0  0
    8.6105   -3.3117    0.0000 C    0  0  0  0  0  0  0  0  0  0  0  0
   13.0307   -6.3937    0.0000 C    0  0  0  0  0  0  0  0  0  0  0  0
   11.4897   -8.5429    0.0000 C    0  0  0  0  0  0  0  0  0  0  0  0
    0.0000   -1.9600    0.0000 C    0  0  0  0  0  0  0  0  0  0  0  0
    2.3115   -1.9600    0.0000 C    0  0  0  0  0  0  0  0  0  0  0  0
   12.7603   -8.7051    0.0000 C    0  0  0  0  0  0  0  0  0  0  0  0
   13.5173   -7.6373    0.0000 C    0  0  0  0  0  0  0  0  0  0  0  0
    2.3115   -0.7029    0.0000 C    0  0  0  0  0  0  0  0  0  0  0  0
    0.0000   -0.7029    0.0000 C    0  0  0  0  0  0  0  0  0  0  0  0
    1.1895    0.0000    0.0000 C    0  0  0  0  0  0  0  0  0  0  0  0
    3.4469   -3.9741    0.0000 N    0  0  0  0  0  0  0  0  0  0  0  0
    4.7851   -2.6224    0.0000 H    0  0  0  0  0  0  0  0  0  0  0  0
    6.1233   -2.6224    0.0000 H    0  0  0  0  0  0  0  0  0  0  0  0
    9.5432   -4.6094    0.0000 C    0  0  0  0  0  0  0  0  0  0  0  0
    1.3382   -7.3804    0.0000 Cl   0  0  0  0  0  0  0  0  0  0  0  0
  1  2  1  0  0  0  0
  1  3  1  0  0  0  0
  1  5  1  0  0  0  0
  2  6  1  0  0  0  0
  2  4  1  0  0  0  0
  2 35  1  6  0  0  0
  3  4  1  0  0  0  0
  3 17  2  0  0  0  0
  4 33  1  1  0  0  0
  4 34  1  6  0  0  0
  5  7  1  0  0  0  0
  5  8  1  6  0  0  0
  6  7  1  0  0  0  0
  7 23  1  0  0  0  0
  7 36  1  0  0  0  0
  8 12  1  0  0  0  0
  8 18  2  0  0  0  0
  9 12  1  0  0  0  0
  9 10  1  0  0  0  0
  9 14  1  0  0  0  0
 10 11  1  0  0  0  0
 11 19  2  0  0  0  0
 11 15  1  0  0  0  0
 13 33  1  0  0  0  0
 13 16  1  0  0  0  0
 13 20  2  0  0  0  0
 14 15  2  0  0  0  0
 14 25  1  0  0  0  0
 15 24  1  0  0  0  0
 16 21  1  0  0  0  0
 16 22  1  0  0  0  0
 21 26  2  0  0  0  0
 21 27  1  0  0  0  0
 24 29  2  0  0  0  0
 25 28  2  0  0  0  0
 26 31  1  0  0  0  0
 27 30  2  0  0  0  0
 28 29  1  0  0  0  0
 30 32  1  0  0  0  0
 31 32  2  0  0  0  0
M  END
> <ID>
10967

> <Formula>
C24H24ClN3O6S

> <FW>
517.9819 (481.5209+36.4609)

> <DSSTox_CID>
25468

> <DSSTox_RID>
80899

> <DSSTox_GSID>
45468

> <DSSTox_FileID_Sort>
5580

> <TS_ChemName>
Talampicillin hydrochloride

> <TS_ChemName_Synonyms>


> <TS_CASRN>
39878-70-1

> <CASRN_ChemName_Relationship>
primary

> <TS_Description>
single chemical compound

> <ChemNote>
stereochem; parent [47747-56-8]

> <STRUCTURE_Shown>
tested chemical

> <STRUCTURE_Formula>
C24H24ClN3O6S

> <STRUCTURE_MW>
517.9819

> <STRUCTURE_ChemType>
defined organic

> <STRUCTURE_DefinedOrganicForm>
complex

> <STRUCTURE_IUPAC>
3-oxo-1,3-dihydro-2-benzofuran-1-yl (2S,5R,6R)-6-{[amino(phenyl)acetyl]amino}-3,3-dimethyl-7-oxo-4-thia-1-azabicyclo[3.2.0]heptane-2-carboxylate hydrochloride (1:1)

> <STRUCTURE_SMILES>
Cl.NC(c1ccccc1)C(=O)N[C@@H]5C(=O)N4[C@@H](C(=O)OC3OC(=O)c2ccccc23)C(C)(C)S[C@@H]45

> <STRUCTURE_SMILES_Desalt>
NC(c1ccccc1)C(=O)N[C@@H]5C(=O)N4[C@@H](C(=O)OC3OC(=O)c2ccccc23)C(C)(C)S[C@@H]45

> <Substance_modify_yyyymmdd>
20100107

$$$$
