4008-48-4
ChemmineR-0915142007XD

 14 15  0  0  0  0  0  0  0  0  2 V2000
    1.1548   -5.9833    0.0000 O   0  0  0  0  0  0  0  0  0  0  0  0
    1.1548   -4.6490    0.0000 C   0  0  0  0  0  0  0  0  0  0  0  0
    0.0000   -3.9968    0.0000 C   0  0  0  0  0  0  0  0  0  0  0  0
    0.0000   -2.6626    0.0000 C   0  0  0  0  0  0  0  0  0  0  0  0
    1.1548   -1.9864    0.0000 C   0  0  0  0  0  0  0  0  0  0  0  0
    2.3095   -2.6626    0.0000 C   0  0  0  0  0  0  0  0  0  0  0  0
    2.3095   -3.9968    0.0000 C   0  0  0  0  0  0  0  0  0  0  0  0
    3.4643   -4.6490    0.0000 N   0  0  0  0  0  0  0  0  0  0  0  0
    4.6191   -3.9789    0.0000 C   0  0  0  0  0  0  0  0  0  0  0  0
    4.6011   -2.6446    0.0000 C   0  0  0  0  0  0  0  0  0  0  0  0
    3.4643   -1.9864    0.0000 C   0  0  0  0  0  0  0  0  0  0  0  0
    1.1548   -0.6582    0.0000 N   0  3  0  0  0  0  0  0  0  0  0  0
    0.0000    0.0000    0.0000 O   0  5  0  0  0  0  0  0  0  0  0  0
    2.2916    0.0000    0.0000 O   0  0  0  0  0  0  0  0  0  0  0  0
  1  2  1  0  0  0  0
  2  3  2  0  0  0  0
  2  7  1  0  0  0  0
  3  4  1  0  0  0  0
  4  5  2  0  0  0  0
  5  6  1  0  0  0  0
  5 12  1  0  0  0  0
  6  7  2  0  0  0  0
  6 11  1  0  0  0  0
  7  8  1  0  0  0  0
  8  9  2  0  0  0  0
  9 10  1  0  0  0  0
 10 11  2  0  0  0  0
 12 13  1  0  0  0  0
 12 14  2  0  0  0  0
M  END
> <ID>
11577

> <Formula>
C9H6N2O3

> <FW>
190.1555

> <DSSTox_CID>
26284

> <DSSTox_RID>
81510

> <DSSTox_GSID>
46284

> <DSSTox_FileID_Sort>
6191

> <TS_ChemName>
Nitroxoline

> <TS_ChemName_Synonyms>


> <TS_CASRN>
4008-48-4

> <CASRN_ChemName_Relationship>
primary

> <TS_Description>
single chemical compound

> <ChemNote>


> <STRUCTURE_Shown>
tested chemical

> <STRUCTURE_Formula>
C9H6N2O3

> <STRUCTURE_MW>
190.1555

> <STRUCTURE_ChemType>
defined organic

> <STRUCTURE_DefinedOrganicForm>
parent

> <STRUCTURE_IUPAC>
5-nitroquinolin-8-ol

> <STRUCTURE_SMILES>
[O-][N+](=O)c1ccc(O)c2ncccc12

> <STRUCTURE_SMILES_Desalt>
[O-][N+](=O)c1ccc(O)c2ncccc12

> <Substance_modify_yyyymmdd>
20110815

$$$$
