4015-32-1
ChemmineR-0915142007XD

 16 17  0  0  0  0  0  0  0  0  1 V2000
    4.6178   -0.6518    0.0000 C   0  0  0  0  0  0  0  0  0  0  0  0
    4.6178   -1.9830    0.0000 C   0  0  0  0  0  0  0  0  0  0  0  0
    3.4530    0.0000    0.0000 C   0  0  0  0  0  0  0  0  0  0  0  0
    3.4530   -2.6487    0.0000 C   0  0  0  0  0  0  0  0  0  0  0  0
    2.3020   -0.6518    0.0000 C   0  0  0  0  0  0  0  0  0  0  0  0
    2.3020   -1.9830    0.0000 C   0  0  0  0  0  0  0  0  0  0  0  0
    5.7688    0.0000    0.0000 N   0  0  0  0  0  0  0  0  0  0  0  0
    6.9337   -0.6518    0.0000 C   0  0  0  0  0  0  0  0  0  0  0  0
    5.7688   -2.6487    0.0000 C   0  0  0  0  0  0  0  0  0  0  0  0
    6.9337   -1.9830    0.0000 N   0  0  0  0  0  0  0  0  0  0  0  0
    1.1510    0.0000    0.0000 O   0  0  0  0  0  0  0  0  0  0  0  0
    1.1510   -2.6487    0.0000 O   0  0  0  0  0  0  0  0  0  0  0  0
    0.0000   -0.6518    0.0000 C   0  0  0  0  0  0  0  0  0  0  0  0
    0.0000   -1.9830    0.0000 C   0  0  0  0  0  0  0  0  0  0  0  0
    5.7688   -3.9799    0.0000 C   0  0  0  0  0  0  0  0  0  0  0  0
    4.6178   -4.6317    0.0000 C   0  0  0  0  0  0  0  0  0  0  0  0
  1  3  2  0  0  0  0
  1  7  1  0  0  0  0
  1  2  1  0  0  0  0
  2  4  2  0  0  0  0
  2  9  1  0  0  0  0
  3  5  1  0  0  0  0
  4  6  1  0  0  0  0
  5  6  2  0  0  0  0
  5 11  1  0  0  0  0
  6 12  1  0  0  0  0
  7  8  2  0  0  0  0
  8 10  1  0  0  0  0
  9 10  2  0  0  0  0
  9 15  1  0  0  0  0
 11 13  1  0  0  0  0
 12 14  1  0  0  0  0
 15 16  1  0  0  0  0
M  END
> <ID>
11526

> <Formula>
C12H14N2O2

> <FW>
218.2518

> <DSSTox_CID>
26232

> <DSSTox_RID>
81459

> <DSSTox_GSID>
46232

> <DSSTox_FileID_Sort>
6140

> <TS_ChemName>
Quazodine

> <TS_ChemName_Synonyms>


> <TS_CASRN>
4015-32-1

> <CASRN_ChemName_Relationship>
primary

> <TS_Description>
single chemical compound

> <ChemNote>


> <STRUCTURE_Shown>
tested chemical

> <STRUCTURE_Formula>
C12H14N2O2

> <STRUCTURE_MW>
218.2518

> <STRUCTURE_ChemType>
defined organic

> <STRUCTURE_DefinedOrganicForm>
parent

> <STRUCTURE_IUPAC>
4-ethyl-6,7-dimethoxyquinazoline

> <STRUCTURE_SMILES>
CCc2ncnc1cc(OC)c(cc12)OC

> <STRUCTURE_SMILES_Desalt>
CCc2ncnc1cc(OC)c(cc12)OC

> <Substance_modify_yyyymmdd>
20110817

$$$$
