401788-99-6
ChemmineR-0915142007XD

 18 17  0  0  0  0  0  0  0  0  2 V2000
    3.3827   -7.8556    0.0000 C   0  0  0  0  0  0  0  0  0  0  0  0
    1.1302    0.0000    0.0000 C   0  0  0  0  0  0  0  0  0  0  0  0
    2.2525   -7.1903    0.0000 C   0  0  0  0  0  0  0  0  0  0  0  0
    2.2525   -5.8837    0.0000 C   0  0  0  0  0  0  0  0  0  0  0  0
    0.0000   -1.9479    0.0000 C   0  0  0  0  0  0  0  0  0  0  0  0
    2.2685   -1.9639    0.0000 C   0  0  0  0  0  0  0  0  0  0  0  0
    1.1302   -5.2264    0.0000 C   0  0  0  0  0  0  0  0  0  0  0  0
    0.0000   -3.2545    0.0000 C   0  0  0  0  0  0  0  0  0  0  0  0
    2.2685   -3.2705    0.0000 C   0  0  0  0  0  0  0  0  0  0  0  0
    1.1302   -1.3066    0.0000 C   0  0  0  0  0  0  0  0  0  0  0  0
    1.1302   -3.9198    0.0000 N   0  3  0  0  0  0  0  0  0  0  0  0
    7.5269   -4.6091    0.0000 F   0  0  0  0  0  0  0  0  0  0  0  0
    5.4027   -6.0921    0.0000 F   0  0  0  0  0  0  0  0  0  0  0  0
    6.0440   -7.2223    0.0000 F   0  0  0  0  0  0  0  0  0  0  0  0
    7.3506   -7.2223    0.0000 F   0  0  0  0  0  0  0  0  0  0  0  0
    6.0440   -4.9618    0.0000 F   0  0  0  0  0  0  0  0  0  0  0  0
    8.0159   -6.0921    0.0000 F   0  0  0  0  0  0  0  0  0  0  0  0
    6.7093   -6.0921    0.0000 P   0  5  0  0  0  0  0  0  0  0  0  0
  1  3  1  0  0  0  0
  2 10  1  0  0  0  0
  3  4  1  0  0  0  0
  4  7  1  0  0  0  0
  5  8  1  0  0  0  0
  5 10  2  0  0  0  0
  6  9  2  0  0  0  0
  6 10  1  0  0  0  0
  7 11  1  0  0  0  0
  8 11  2  0  0  0  0
  9 11  1  0  0  0  0
 12 18  1  0  0  0  0
 13 18  1  0  0  0  0
 14 18  1  0  0  0  0
 15 18  1  0  0  0  0
 16 18  1  0  0  0  0
 17 18  1  0  0  0  0
M  END
> <ID>
14159

> <Formula>
C10H16F6NP

> <FW>
295.2049 (150.2402+144.9647)

> <DSSTox_CID>
29152

> <DSSTox_RID>
83371

> <DSSTox_GSID>
49296

> <DSSTox_FileID_Sort>
8046

> <TS_ChemName>
1-Butyl-4-methylpyridinium hexafluorophosphate

> <TS_ChemName_Synonyms>


> <TS_CASRN>
401788-99-6

> <CASRN_ChemName_Relationship>
primary

> <TS_Description>
single chemical compound

> <ChemNote>


> <STRUCTURE_Shown>
tested chemical

> <STRUCTURE_Formula>
C10H16F6NP

> <STRUCTURE_MW>
295.2049

> <STRUCTURE_ChemType>
defined organic

> <STRUCTURE_DefinedOrganicForm>
complex

> <STRUCTURE_IUPAC>
1-butyl-4-methylpyridinium hexafluorophosphate

> <STRUCTURE_SMILES>
Cc1cc[n+](CCCC)cc1.F[P-](F)(F)(F)(F)F

> <STRUCTURE_SMILES_Desalt>
Cc1cc[n+](CCCC)cc1

> <Substance_modify_yyyymmdd>
20111204

$$$$
