40180-04-9
ChemmineR-0915142007XD

 20 21  0  0  0  0  0  0  0  0  1 V2000
    8.1027   -0.8912    0.0000 C    0  0  0  0  0  0  0  0  0  0  0  0
    9.0964    0.0000    0.0000 C    0  0  0  0  0  0  0  0  0  0  0  0
   10.2436   -0.6658    0.0000 C    0  0  0  0  0  0  0  0  0  0  0  0
    9.9671   -1.9668    0.0000 S    0  0  0  0  0  0  0  0  0  0  0  0
    8.6456   -2.1102    0.0000 C    0  0  0  0  0  0  0  0  0  0  0  0
    7.9798   -3.2575    0.0000 C    0  0  0  0  0  0  0  0  0  0  0  0
    8.6456   -4.4150    0.0000 O    0  0  0  0  0  0  0  0  0  0  0  0
    6.6481   -3.2575    0.0000 C    0  0  0  0  0  0  0  0  0  0  0  0
    5.9823   -4.4150    0.0000 C    0  0  0  0  0  0  0  0  0  0  0  0
    6.6481   -5.5623    0.0000 Cl   0  0  0  0  0  0  0  0  0  0  0  0
    4.6506   -4.4150    0.0000 C    0  0  0  0  0  0  0  0  0  0  0  0
    3.9848   -5.5623    0.0000 Cl   0  0  0  0  0  0  0  0  0  0  0  0
    3.9848   -3.2575    0.0000 C    0  0  0  0  0  0  0  0  0  0  0  0
    2.6633   -3.2575    0.0000 O    0  0  0  0  0  0  0  0  0  0  0  0
    1.9975   -2.1102    0.0000 C    0  0  0  0  0  0  0  0  0  0  0  0
    0.6658   -2.1102    0.0000 C    0  0  0  0  0  0  0  0  0  0  0  0
    0.0000   -3.2575    0.0000 O    0  0  0  0  0  0  0  0  0  0  0  0
    0.0000   -0.9527    0.0000 O    0  0  0  0  0  0  0  0  0  0  0  0
    4.6506   -2.1102    0.0000 C    0  0  0  0  0  0  0  0  0  0  0  0
    5.9823   -2.1102    0.0000 C    0  0  0  0  0  0  0  0  0  0  0  0
  1  2  1  0  0  0  0
  1  5  2  0  0  0  0
  2  3  2  0  0  0  0
  3  4  1  0  0  0  0
  4  5  1  0  0  0  0
  5  6  1  0  0  0  0
  6  7  2  0  0  0  0
  6  8  1  0  0  0  0
  8  9  2  0  0  0  0
  8 20  1  0  0  0  0
  9 10  1  0  0  0  0
  9 11  1  0  0  0  0
 11 12  1  0  0  0  0
 11 13  2  0  0  0  0
 13 14  1  0  0  0  0
 13 19  1  0  0  0  0
 14 15  1  0  0  0  0
 15 16  1  0  0  0  0
 16 17  1  0  0  0  0
 16 18  2  0  0  0  0
 19 20  2  0  0  0  0
M  END
> <ID>
3278

> <Formula>
C13H8Cl2O4S

> <FW>
331.1712

> <DSSTox_CID>
3670

> <DSSTox_RID>
77137

> <DSSTox_GSID>
23670

> <DSSTox_FileID_Sort>
1820

> <TS_ChemName>
Ticrynafen

> <TS_ChemName_Synonyms>
Ticrynafen (Tienilic Acid) (TA)

> <TS_CASRN>
40180-04-9

> <CASRN_ChemName_Relationship>
primary

> <TS_Description>
single chemical compound

> <ChemNote>


> <STRUCTURE_Shown>
tested chemical

> <STRUCTURE_Formula>
C13H8Cl2O4S

> <STRUCTURE_MW>
331.1712

> <STRUCTURE_ChemType>
defined organic

> <STRUCTURE_DefinedOrganicForm>
parent

> <STRUCTURE_IUPAC>
[2,3-dichloro-4-(thiophen-2-ylcarbonyl)phenoxy]acetic acid

> <STRUCTURE_SMILES>
O=C(c1ccc(OCC(=O)O)c(Cl)c1Cl)c2cccs2

> <STRUCTURE_SMILES_Desalt>
O=C(c1ccc(OCC(=O)O)c(Cl)c1Cl)c2cccs2

> <Substance_modify_yyyymmdd>
20080429

$$$$
