40188-45-2
ChemmineR-0915142007XD

 16 16  0  0  0  0  0  0  0  0  1 V2000
    6.6512   -8.0620    0.0000 C   0  0  0  0  0  0  0  0  0  0  0  0
    5.9820   -6.9092    0.0000 C   0  0  0  0  0  0  0  0  0  0  0  0
    4.6518   -6.9092    0.0000 C   0  0  0  0  0  0  0  0  0  0  0  0
    3.9907   -5.7563    0.0000 C   0  0  0  0  0  0  0  0  0  0  0  0
    4.6518   -4.6034    0.0000 O   0  0  0  0  0  0  0  0  0  0  0  0
    2.6605   -5.7563    0.0000 N   0  0  0  0  0  0  0  0  0  0  0  0
    1.9913   -4.6034    0.0000 C   0  0  0  0  0  0  0  0  0  0  0  0
    2.6605   -3.4586    0.0000 C   0  0  0  0  0  0  0  0  0  0  0  0
    1.9913   -2.3057    0.0000 C   0  0  0  0  0  0  0  0  0  0  0  0
    0.6611   -2.3057    0.0000 C   0  0  0  0  0  0  0  0  0  0  0  0
    0.0000   -1.1529    0.0000 O   0  0  0  0  0  0  0  0  0  0  0  0
    0.0000   -3.4586    0.0000 C   0  0  0  0  0  0  0  0  0  0  0  0
    0.6611   -4.6034    0.0000 C   0  0  0  0  0  0  0  0  0  0  0  0
    2.6605   -1.1529    0.0000 C   0  0  0  0  0  0  0  0  0  0  0  0
    3.9907   -1.1529    0.0000 C   0  0  0  0  0  0  0  0  0  0  0  0
    1.9913    0.0000    0.0000 O   0  0  0  0  0  0  0  0  0  0  0  0
  1  2  1  0  0  0  0
  2  3  1  0  0  0  0
  3  4  1  0  0  0  0
  4  5  2  0  0  0  0
  4  6  1  0  0  0  0
  6  7  1  0  0  0  0
  7  8  2  0  0  0  0
  7 13  1  0  0  0  0
  8  9  1  0  0  0  0
  9 10  2  0  0  0  0
  9 14  1  0  0  0  0
 10 11  1  0  0  0  0
 10 12  1  0  0  0  0
 12 13  2  0  0  0  0
 14 15  1  0  0  0  0
 14 16  2  0  0  0  0
M  END
> <ID>
16137

> <Formula>
C12H15NO3

> <FW>
221.2524

> <DSSTox_CID>
31526

> <DSSTox_RID>
97411

> <DSSTox_GSID>
57737

> <DSSTox_FileID_Sort>
8478

> <TS_ChemName>
3'-Acetyl-4'-hydroxybutyranilide

> <TS_ChemName_Synonyms>


> <TS_CASRN>
40188-45-2

> <CASRN_ChemName_Relationship>
primary

> <TS_Description>
single chemical compound

> <ChemNote>


> <STRUCTURE_Shown>
tested chemical

> <STRUCTURE_Formula>
C12H15NO3

> <STRUCTURE_MW>
221.2524

> <STRUCTURE_ChemType>
defined organic

> <STRUCTURE_DefinedOrganicForm>
parent

> <STRUCTURE_IUPAC>
N-(3-acetyl-4-hydroxyphenyl)butanamide

> <STRUCTURE_SMILES>
O=C(C)c1cc(ccc1O)NC(=O)CCC

> <STRUCTURE_SMILES_Desalt>
O=C(C)c1cc(ccc1O)NC(=O)CCC

> <Substance_modify_yyyymmdd>
20131018

$$$$
