40220-08-4
ChemmineR-0915142007XD

 30 30  0  0  0  0  0  0  0  0  1 V2000
    8.0576   -3.9804    0.0000 C   0  0  0  0  0  0  0  0  0  0  0  0
    9.2179   -3.3036    0.0000 C   0  0  0  0  0  0  0  0  0  0  0  0
    8.0576   -5.3180    0.0000 N   0  0  0  0  0  0  0  0  0  0  0  0
    9.2179   -1.9822    0.0000 O   0  0  0  0  0  0  0  0  0  0  0  0
    9.2179   -5.9626    0.0000 C   0  0  0  0  0  0  0  0  0  0  0  0
    6.9134   -5.9626    0.0000 C   0  0  0  0  0  0  0  0  0  0  0  0
   10.3620   -1.3214    0.0000 C   0  0  0  0  0  0  0  0  0  0  0  0
   10.3620   -5.3180    0.0000 O   0  0  0  0  0  0  0  0  0  0  0  0
    9.2179   -7.3163    0.0000 N   0  0  0  0  0  0  0  0  0  0  0  0
    5.7531   -5.3180    0.0000 O   0  0  0  0  0  0  0  0  0  0  0  0
    6.9134   -7.3163    0.0000 N   0  0  0  0  0  0  0  0  0  0  0  0
   11.5223   -1.9822    0.0000 C   0  0  0  0  0  0  0  0  0  0  0  0
   10.3620    0.0000    0.0000 O   0  0  0  0  0  0  0  0  0  0  0  0
   10.3620   -7.9770    0.0000 C   0  0  0  0  0  0  0  0  0  0  0  0
    8.0576   -7.9770    0.0000 C   0  0  0  0  0  0  0  0  0  0  0  0
    5.7531   -7.9770    0.0000 C   0  0  0  0  0  0  0  0  0  0  0  0
   12.6665   -1.3214    0.0000 C   0  0  0  0  0  0  0  0  0  0  0  0
   11.5223   -7.3163    0.0000 C   0  0  0  0  0  0  0  0  0  0  0  0
    8.0576   -9.2984    0.0000 O   0  0  0  0  0  0  0  0  0  0  0  0
    4.6089   -7.3163    0.0000 C   0  0  0  0  0  0  0  0  0  0  0  0
   12.6665   -7.9770    0.0000 O   0  0  0  0  0  0  0  0  0  0  0  0
    3.4486   -7.9770    0.0000 O   0  0  0  0  0  0  0  0  0  0  0  0
   13.8268   -7.3163    0.0000 C   0  0  0  0  0  0  0  0  0  0  0  0
    2.3045   -7.3163    0.0000 C   0  0  0  0  0  0  0  0  0  0  0  0
   14.9710   -7.9770    0.0000 C   0  0  0  0  0  0  0  0  0  0  0  0
   13.8268   -5.9626    0.0000 O   0  0  0  0  0  0  0  0  0  0  0  0
    1.1442   -7.9770    0.0000 C   0  0  0  0  0  0  0  0  0  0  0  0
    2.3045   -5.9626    0.0000 O   0  0  0  0  0  0  0  0  0  0  0  0
   16.1151   -7.3163    0.0000 C   0  0  0  0  0  0  0  0  0  0  0  0
    0.0000   -7.3163    0.0000 C   0  0  0  0  0  0  0  0  0  0  0  0
  1  2  1  0  0  0  0
  1  3  1  0  0  0  0
  2  4  1  0  0  0  0
  3  5  1  0  0  0  0
  3  6  1  0  0  0  0
  4  7  1  0  0  0  0
  5  8  2  0  0  0  0
  5  9  1  0  0  0  0
  6 10  2  0  0  0  0
  6 11  1  0  0  0  0
  7 12  1  0  0  0  0
  7 13  2  0  0  0  0
  9 14  1  0  0  0  0
  9 15  1  0  0  0  0
 11 15  1  0  0  0  0
 11 16  1  0  0  0  0
 12 17  2  0  0  0  0
 14 18  1  0  0  0  0
 15 19  2  0  0  0  0
 16 20  1  0  0  0  0
 18 21  1  0  0  0  0
 20 22  1  0  0  0  0
 21 23  1  0  0  0  0
 22 24  1  0  0  0  0
 23 25  1  0  0  0  0
 23 26  2  0  0  0  0
 24 27  1  0  0  0  0
 24 28  2  0  0  0  0
 25 29  2  0  0  0  0
 27 30  2  0  0  0  0
M  END
> <ID>
10583

> <Formula>
C18H21N3O9

> <FW>
423.374

> <DSSTox_CID>
24936

> <DSSTox_RID>
80601

> <DSSTox_GSID>
44936

> <DSSTox_FileID_Sort>
5283

> <TS_ChemName>
(2,4,6-Trioxo-1,3,5-triazinane-1,3,5-triyl)triethane-2,1-diyl trisprop-2-enoate

> <TS_ChemName_Synonyms>
2-Propenoic acid, (2,4,6-trioxo-1,3,5-triazine-1,3,5(2H,4H,6H)-triyl)tri-2,1-ethanediyl ester

> <TS_CASRN>
40220-08-4

> <CASRN_ChemName_Relationship>
primary

> <TS_Description>
single chemical compound

> <ChemNote>


> <STRUCTURE_Shown>
tested chemical

> <STRUCTURE_Formula>
C18H21N3O9

> <STRUCTURE_MW>
423.374

> <STRUCTURE_ChemType>
defined organic

> <STRUCTURE_DefinedOrganicForm>
parent

> <STRUCTURE_IUPAC>
(2,4,6-trioxo-1,3,5-triazinane-1,3,5-triyl)triethane-2,1-diyl trisprop-2-enoate

> <STRUCTURE_SMILES>
C=CC(=O)OCCN1C(=O)N(CCOC(=O)C=C)C(=O)N(CCOC(=O)C=C)C1=O

> <STRUCTURE_SMILES_Desalt>
C=CC(=O)OCCN1C(=O)N(CCOC(=O)C=C)C(=O)N(CCOC(=O)C=C)C1=O

> <Substance_modify_yyyymmdd>
20091116

$$$$
