402846-78-0
ChemmineR-0915142007XD

 16 15  0  0  0  0  0  0  0  0  2 V2000
    6.6329   -1.0725    0.0000 N   0  3  0  0  0  0  0  0  0  0  0  0
    4.6045   -1.7486    0.0000 N   0  0  0  0  0  0  0  0  0  0  0  0
    5.8519   -2.1682    0.0000 C   0  0  0  0  0  0  0  0  0  0  0  0
    5.8519    0.0000    0.0000 C   0  0  0  0  0  0  0  0  0  0  0  0
    4.6045   -0.4313    0.0000 C   0  0  0  0  0  0  0  0  0  0  0  0
    3.5088   -2.5412    0.0000 C   0  0  0  0  0  0  0  0  0  0  0  0
    2.2964   -1.9700    0.0000 C   0  0  0  0  0  0  0  0  0  0  0  0
    1.2240   -2.7511    0.0000 C   0  0  0  0  0  0  0  0  0  0  0  0
    0.0000   -2.2032    0.0000 C   0  0  0  0  0  0  0  0  0  0  0  0
    6.2832   -3.4155    0.0000 C   0  0  0  0  0  0  0  0  0  0  0  0
    7.9851   -1.0725    0.0000 C   0  0  0  0  0  0  0  0  0  0  0  0
   10.3282   -3.3806    0.0000 B   0  5  0  0  0  0  0  0  0  0  0  0
    9.0109   -3.3806    0.0000 F   0  0  0  0  0  0  0  0  0  0  0  0
   10.3282   -4.7095    0.0000 F   0  0  0  0  0  0  0  0  0  0  0  0
   10.3282   -2.0633    0.0000 F   0  0  0  0  0  0  0  0  0  0  0  0
   11.6571   -3.3806    0.0000 F   0  0  0  0  0  0  0  0  0  0  0  0
  1  3  2  0  0  0  0
  1  4  1  0  0  0  0
  1 11  1  0  0  0  0
  2  3  1  0  0  0  0
  2  5  1  0  0  0  0
  2  6  1  0  0  0  0
  3 10  1  0  0  0  0
  4  5  2  0  0  0  0
  6  7  1  0  0  0  0
  7  8  1  0  0  0  0
  8  9  1  0  0  0  0
 12 13  1  0  0  0  0
 12 14  1  0  0  0  0
 12 15  1  0  0  0  0
 12 16  1  0  0  0  0
M  END
> <ID>
12984

> <Formula>
C9H17BF4N2

> <FW>
240.0493 (153.2441+86.8052)

> <DSSTox_CID>
27885

> <DSSTox_RID>
82638

> <DSSTox_GSID>
47909

> <DSSTox_FileID_Sort>
7315

> <TS_ChemName>
1-Butyl-2,3-dimethylimidazolium tetrafluoroborate

> <TS_ChemName_Synonyms>


> <TS_CASRN>
402846-78-0

> <CASRN_ChemName_Relationship>
primary

> <TS_Description>
single chemical compound

> <ChemNote>
ammonium; parent [108203-89-0]

> <STRUCTURE_Shown>
tested chemical

> <STRUCTURE_Formula>
C9H17BF4N2

> <STRUCTURE_MW>
240.0493

> <STRUCTURE_ChemType>
defined organic

> <STRUCTURE_DefinedOrganicForm>
salt

> <STRUCTURE_IUPAC>
1-butyl-2,3-dimethyl-1H-imidazol-3-ium tetrafluoroborate

> <STRUCTURE_SMILES>
CCCCn1cc[n+](C)c1C.F[B-](F)(F)F

> <STRUCTURE_SMILES_Desalt>
CCCCn1cc[n+](C)c1C

> <Substance_modify_yyyymmdd>
20110419

$$$$
