402910-27-4
ChemmineR-0915142007XD

 24 25  0  0  0  0  0  0  0  0  1 V2000
    4.6086   -2.6715    0.0000 C   0  0  0  0  0  0  0  0  0  0  0  0
    4.6086   -4.0019    0.0000 C   0  0  0  0  0  0  0  0  0  0  0  0
    3.4591   -2.0010    0.0000 C   0  0  0  0  0  0  0  0  0  0  0  0
    3.4591   -4.6618    0.0000 C   0  0  0  0  0  0  0  0  0  0  0  0
    2.3096   -2.6715    0.0000 C   0  0  0  0  0  0  0  0  0  0  0  0
    2.3096   -4.0019    0.0000 C   0  0  0  0  0  0  0  0  0  0  0  0
    1.1495   -2.0010    0.0000 S   0  0  0  0  0  0  0  0  0  0  0  0
    5.7581   -2.0010    0.0000 C   0  0  0  0  0  0  0  0  0  0  0  0
    5.7581   -4.6618    0.0000 O   0  0  0  0  0  0  0  0  0  0  0  0
    5.7581   -5.9816    0.0000 C   0  0  0  0  0  0  0  0  0  0  0  0
    6.9183   -6.6628    0.0000 C   0  0  0  0  0  0  0  0  0  0  0  0
    4.6086   -6.6628    0.0000 C   0  0  0  0  0  0  0  0  0  0  0  0
    6.9183   -7.9826    0.0000 C   0  0  0  0  0  0  0  0  0  0  0  0
    4.6086   -7.9826    0.0000 C   0  0  0  0  0  0  0  0  0  0  0  0
    5.7581   -8.6425    0.0000 C   0  0  0  0  0  0  0  0  0  0  0  0
    5.7581   -9.9729    0.0000 S   0  0  0  0  0  0  0  0  0  0  0  0
    8.0678   -8.6425    0.0000 C   0  0  0  0  0  0  0  0  0  0  0  0
    4.6086  -10.6435    0.0000 C   0  0  0  0  0  0  0  0  0  0  0  0
    1.1495   -0.6705    0.0000 O   0  0  0  0  0  0  0  0  0  0  0  0
    0.0000   -2.6715    0.0000 N   0  0  0  0  0  0  0  0  0  0  0  0
    1.1495   -3.3314    0.0000 O   0  0  0  0  0  0  0  0  0  0  0  0
    5.7581   -0.6705    0.0000 N   0  0  0  0  0  0  0  0  0  0  0  0
    6.9183    0.0000    0.0000 C   0  0  0  0  0  0  0  0  0  0  0  0
    4.6086    0.0000    0.0000 C   0  0  0  0  0  0  0  0  0  0  0  0
  1  2  1  0  0  0  0
  1  3  2  0  0  0  0
  1  8  1  0  0  0  0
  2  4  2  0  0  0  0
  2  9  1  0  0  0  0
  3  5  1  0  0  0  0
  4  6  1  0  0  0  0
  5  6  2  0  0  0  0
  5  7  1  0  0  0  0
  7 19  2  0  0  0  0
  7 20  1  0  0  0  0
  7 21  2  0  0  0  0
  8 22  1  0  0  0  0
  9 10  1  0  0  0  0
 10 11  1  0  0  0  0
 10 12  2  0  0  0  0
 11 13  2  0  0  0  0
 12 14  1  0  0  0  0
 13 15  1  0  0  0  0
 13 17  1  0  0  0  0
 14 15  2  0  0  0  0
 15 16  1  0  0  0  0
 16 18  1  0  0  0  0
 22 23  1  0  0  0  0
 22 24  1  0  0  0  0
M  END
> <ID>
12432

> <Formula>
C17H22N2O3S2

> <FW>
366.4982

> <DSSTox_CID>
27290

> <DSSTox_RID>
82244

> <DSSTox_GSID>
47290

> <DSSTox_FileID_Sort>
6925

> <TS_ChemName>
UK-416244

> <TS_ChemName_Synonyms>


> <TS_CASRN>
402910-27-4

> <CASRN_ChemName_Relationship>
primary

> <TS_Description>
single chemical compound

> <ChemNote>


> <STRUCTURE_Shown>
tested chemical

> <STRUCTURE_Formula>
C17H22N2O3S2

> <STRUCTURE_MW>
366.4982

> <STRUCTURE_ChemType>
defined organic

> <STRUCTURE_DefinedOrganicForm>
parent

> <STRUCTURE_IUPAC>
3-[(dimethylamino)methyl]-4-[3-methyl-4-(methylsulfanyl)phenoxy]benzenesulfonamide

> <STRUCTURE_SMILES>
Cc1cc(ccc1SC)Oc2ccc(cc2CN(C)C)S(N)(=O)=O

> <STRUCTURE_SMILES_Desalt>
Cc1cc(ccc1SC)Oc2ccc(cc2CN(C)C)S(N)(=O)=O

> <Substance_modify_yyyymmdd>
20130910

$$$$
