40372-72-3
ChemmineR-0915142007XD

 30 29  0  0  0  0  0  0  0  0  1 V2000
    0.0000   -3.6382    0.0000 C    0  0  0  0  0  0  0  0  0  0  0  0
    1.1541   -2.9732    0.0000 C    0  0  0  0  0  0  0  0  0  0  0  0
    2.3081   -3.6382    0.0000 O    0  0  0  0  0  0  0  0  0  0  0  0
    3.4622   -2.9732    0.0000 Si   0  0  0  0  0  0  0  0  0  0  0  0
    4.6163   -2.3081    0.0000 C    0  0  0  0  0  0  0  0  0  0  0  0
    5.7508   -2.9732    0.0000 C    0  0  0  0  0  0  0  0  0  0  0  0
    6.9048   -2.3081    0.0000 C    0  0  0  0  0  0  0  0  0  0  0  0
    8.0589   -2.9732    0.0000 S    0  0  0  0  0  0  0  0  0  0  0  0
    9.2130   -2.3081    0.0000 S    0  0  0  0  0  0  0  0  0  0  0  0
   10.3475   -2.9732    0.0000 S    0  0  0  0  0  0  0  0  0  0  0  0
   11.5015   -2.3081    0.0000 S    0  0  0  0  0  0  0  0  0  0  0  0
   12.6556   -2.9732    0.0000 C    0  0  0  0  0  0  0  0  0  0  0  0
   13.8097   -2.3081    0.0000 C    0  0  0  0  0  0  0  0  0  0  0  0
   14.9442   -2.9732    0.0000 C    0  0  0  0  0  0  0  0  0  0  0  0
   16.0982   -2.3081    0.0000 Si   0  0  0  0  0  0  0  0  0  0  0  0
   16.7828   -3.4622    0.0000 O    0  0  0  0  0  0  0  0  0  0  0  0
   18.1130   -3.4622    0.0000 C    0  0  0  0  0  0  0  0  0  0  0  0
   18.7584   -4.6163    0.0000 C    0  0  0  0  0  0  0  0  0  0  0  0
    4.1077   -4.1272    0.0000 O    0  0  0  0  0  0  0  0  0  0  0  0
    5.4378   -4.1272    0.0000 C    0  0  0  0  0  0  0  0  0  0  0  0
    6.1224   -5.2813    0.0000 C    0  0  0  0  0  0  0  0  0  0  0  0
    2.7776   -1.8191    0.0000 O    0  0  0  0  0  0  0  0  0  0  0  0
    1.4475   -1.8191    0.0000 C    0  0  0  0  0  0  0  0  0  0  0  0
    0.8020   -0.6651    0.0000 C    0  0  0  0  0  0  0  0  0  0  0  0
   15.4527   -1.1541    0.0000 O    0  0  0  0  0  0  0  0  0  0  0  0
   14.1226   -1.1541    0.0000 C    0  0  0  0  0  0  0  0  0  0  0  0
   13.4380    0.0000    0.0000 C    0  0  0  0  0  0  0  0  0  0  0  0
   17.2523   -1.6431    0.0000 O    0  0  0  0  0  0  0  0  0  0  0  0
   18.4064   -2.3081    0.0000 C    0  0  0  0  0  0  0  0  0  0  0  0
   19.5604   -1.6431    0.0000 C    0  0  0  0  0  0  0  0  0  0  0  0
  1  2  1  0  0  0  0
  2  3  1  0  0  0  0
  3  4  1  0  0  0  0
  4  5  1  0  0  0  0
  4 19  1  0  0  0  0
  4 22  1  0  0  0  0
  5  6  1  0  0  0  0
  6  7  1  0  0  0  0
  7  8  1  0  0  0  0
  8  9  1  0  0  0  0
  9 10  1  0  0  0  0
 10 11  1  0  0  0  0
 11 12  1  0  0  0  0
 12 13  1  0  0  0  0
 13 14  1  0  0  0  0
 14 15  1  0  0  0  0
 15 16  1  0  0  0  0
 15 25  1  0  0  0  0
 15 28  1  0  0  0  0
 16 17  1  0  0  0  0
 17 18  1  0  0  0  0
 19 20  1  0  0  0  0
 20 21  1  0  0  0  0
 22 23  1  0  0  0  0
 23 24  1  0  0  0  0
 25 26  1  0  0  0  0
 26 27  1  0  0  0  0
 28 29  1  0  0  0  0
 29 30  1  0  0  0  0
M  END
> <ID>
5983

> <Formula>
C18H42O6S4Si2

> <FW>
538.9535

> <DSSTox_CID>
9362

> <DSSTox_RID>
78771

> <DSSTox_GSID>
29362

> <DSSTox_FileID_Sort>
3453

> <TS_ChemName>
3,16-Dioxa-8,9,10,11-tetrathia-4,15-disilaoctadecane, 4,4,15,15-tetraethoxy-

> <TS_ChemName_Synonyms>


> <TS_CASRN>
40372-72-3

> <CASRN_ChemName_Relationship>
primary

> <TS_Description>
single chemical compound

> <ChemNote>


> <STRUCTURE_Shown>
tested chemical

> <STRUCTURE_Formula>
C18H42O6S4Si2

> <STRUCTURE_MW>
538.9535

> <STRUCTURE_ChemType>
organometallic

> <STRUCTURE_DefinedOrganicForm>


> <STRUCTURE_IUPAC>
4,4,15,15-tetraethoxy-3,16-dioxa-8,9,10,11-tetrathia-4,15-disilaoctadecane

> <STRUCTURE_SMILES>
CCO[Si](OCC)(OCC)CCCSSSSCCC[Si](OCC)(OCC)OCC

> <STRUCTURE_SMILES_Desalt>
CCO[Si](OCC)(OCC)CCCSSSSCCC[Si](OCC)(OCC)OCC

> <Substance_modify_yyyymmdd>
20080429

$$$$
