403842-84-2
ChemmineR-0915142007XD

 22 21  0  0  0  0  0  0  0  0  2 V2000
    9.1343   -1.7147    0.0000 N   0  0  0  0  0  0  0  0  0  0  0  0
   11.1856   -1.0416    0.0000 N   0  3  0  0  0  0  0  0  0  0  0  0
   10.4003   -2.1153    0.0000 C   0  0  0  0  0  0  0  0  0  0  0  0
    9.1504   -0.4006    0.0000 C   0  0  0  0  0  0  0  0  0  0  0  0
   10.4163    0.0000    0.0000 C   0  0  0  0  0  0  0  0  0  0  0  0
   12.4996   -1.0577    0.0000 C   0  0  0  0  0  0  0  0  0  0  0  0
    8.0607   -2.4999    0.0000 C   0  0  0  0  0  0  0  0  0  0  0  0
    6.8427   -1.9551    0.0000 C   0  0  0  0  0  0  0  0  0  0  0  0
    5.7691   -2.7243    0.0000 C   0  0  0  0  0  0  0  0  0  0  0  0
    4.5672   -2.1794    0.0000 C   0  0  0  0  0  0  0  0  0  0  0  0
    3.5095   -2.9647    0.0000 C   0  0  0  0  0  0  0  0  0  0  0  0
    2.2916   -2.4198    0.0000 C   0  0  0  0  0  0  0  0  0  0  0  0
    1.2179   -3.2050    0.0000 C   0  0  0  0  0  0  0  0  0  0  0  0
    0.0000   -2.6602    0.0000 C   0  0  0  0  0  0  0  0  0  0  0  0
   14.6951   -3.6217    0.0000 C   0  0  0  0  0  0  0  0  0  0  0  0
   13.3650   -3.6217    0.0000 S   0  0  0  0  0  0  0  0  0  0  0  0
   13.3650   -2.1474    0.0000 O   0  0  0  0  0  0  0  0  0  0  0  0
   12.0669   -3.6217    0.0000 O   0  5  0  0  0  0  0  0  0  0  0  0
   13.3650   -4.9197    0.0000 O   0  0  0  0  0  0  0  0  0  0  0  0
   15.3521   -4.7595    0.0000 F   0  0  0  0  0  0  0  0  0  0  0  0
   15.3521   -2.4358    0.0000 F   0  0  0  0  0  0  0  0  0  0  0  0
   16.0252   -3.6217    0.0000 F   0  0  0  0  0  0  0  0  0  0  0  0
  1  3  1  0  0  0  0
  1  4  1  0  0  0  0
  1  7  1  0  0  0  0
  2  3  2  0  0  0  0
  2  5  1  0  0  0  0
  2  6  1  0  0  0  0
  4  5  2  0  0  0  0
  7  8  1  0  0  0  0
  8  9  1  0  0  0  0
  9 10  1  0  0  0  0
 10 11  1  0  0  0  0
 11 12  1  0  0  0  0
 12 13  1  0  0  0  0
 13 14  1  0  0  0  0
 15 16  1  0  0  0  0
 15 20  1  0  0  0  0
 15 21  1  0  0  0  0
 15 22  1  0  0  0  0
 16 17  2  0  0  0  0
 16 18  1  0  0  0  0
 16 19  2  0  0  0  0
M  END
> <ID>
13021

> <Formula>
C13H23F3N2O3S

> <FW>
344.3935 (195.3239+149.0697)

> <DSSTox_CID>
27922

> <DSSTox_RID>
82675

> <DSSTox_GSID>
47946

> <DSSTox_FileID_Sort>
7352

> <TS_ChemName>
1-Methyl-3-octylimidazolium trifluoromethanesulfonate

> <TS_ChemName_Synonyms>


> <TS_CASRN>
403842-84-2

> <CASRN_ChemName_Relationship>
primary

> <TS_Description>
single chemical compound

> <ChemNote>
ammonium; parent [178631-03-3]

> <STRUCTURE_Shown>
tested chemical

> <STRUCTURE_Formula>
C13H23F3N2O3S

> <STRUCTURE_MW>
344.3935

> <STRUCTURE_ChemType>
defined organic

> <STRUCTURE_DefinedOrganicForm>
salt

> <STRUCTURE_IUPAC>
3-methyl-1-octyl-1H-imidazol-3-ium trifluoromethanesulfonate

> <STRUCTURE_SMILES>
FC(F)(F)S([O-])(=O)=O.C[n+]1ccn(CCCCCCCC)c1

> <STRUCTURE_SMILES_Desalt>
C[n+]1ccn(CCCCCCCC)c1

> <Substance_modify_yyyymmdd>
20110418

$$$$
