40391-99-9
ChemmineR-0915142007XD

 13 12  0  0  0  0  0  0  0  0  1 V2000
    2.3664    0.0000    0.0000 N   0  0  0  0  0  0  0  0  0  0  0  0
    3.4433   -0.4676    0.0000 C   0  0  0  0  0  0  0  0  0  0  0  0
    3.4433   -1.7571    0.0000 C   0  0  0  0  0  0  0  0  0  0  0  0
    2.5364   -2.4514    0.0000 C   0  0  0  0  0  0  0  0  0  0  0  0
    1.8090   -1.3320    0.0000 O   0  0  0  0  0  0  0  0  0  0  0  0
    1.2611   -3.0465    0.0000 P   0  0  0  0  0  0  0  0  0  0  0  0
    0.0000   -3.6039    0.0000 O   0  0  0  0  0  0  0  0  0  0  0  0
    0.2551   -2.0971    0.0000 O   0  0  0  0  0  0  0  0  0  0  0  0
    1.2706   -4.4021    0.0000 O   0  0  0  0  0  0  0  0  0  0  0  0
    3.4811   -3.4574    0.0000 P   0  0  0  0  0  0  0  0  0  0  0  0
    4.5060   -4.3832    0.0000 O   0  0  0  0  0  0  0  0  0  0  0  0
    4.7091   -2.8198    0.0000 O   0  0  0  0  0  0  0  0  0  0  0  0
    3.0135   -4.7233    0.0000 O   0  0  0  0  0  0  0  0  0  0  0  0
  1  2  1  0  0  0  0
  2  3  1  0  0  0  0
  3  4  1  0  0  0  0
  4  5  1  0  0  0  0
  4  6  1  0  0  0  0
  4 10  1  0  0  0  0
  6  7  2  0  0  0  0
  6  8  1  0  0  0  0
  6  9  1  0  0  0  0
 10 11  2  0  0  0  0
 10 12  1  0  0  0  0
 10 13  1  0  0  0  0
M  END
> <ID>
3061

> <Formula>
C3H11NO7P2

> <FW>
235.0695

> <DSSTox_CID>
3414

> <DSSTox_RID>
77017

> <DSSTox_GSID>
23414

> <DSSTox_FileID_Sort>
1701

> <TS_ChemName>
Pamidronic acid

> <TS_ChemName_Synonyms>


> <TS_CASRN>
40391-99-9

> <CASRN_ChemName_Relationship>
primary

> <TS_Description>
single chemical compound

> <ChemNote>


> <STRUCTURE_Shown>
tested chemical

> <STRUCTURE_Formula>
C3H11NO7P2

> <STRUCTURE_MW>
235.0695

> <STRUCTURE_ChemType>
defined organic

> <STRUCTURE_DefinedOrganicForm>
parent

> <STRUCTURE_IUPAC>
(3-amino-1-hydroxypropane-1,1-diyl)bis(phosphonic acid)

> <STRUCTURE_SMILES>
OC(CCN)(P(O)(=O)O)P(=O)(O)O

> <STRUCTURE_SMILES_Desalt>
OC(CCN)(P(O)(=O)O)P(=O)(O)O

> <Substance_modify_yyyymmdd>
20080429

$$$$
