404-86-4
ChemmineR-0915142007XD

 22 22  0  0  0  0  0  0  0  0  1 V2000
   14.9750    0.0000    0.0000 O   0  0  0  0  0  0  0  0  0  0  0  0
   13.8220   -0.6739    0.0000 C   0  0  0  0  0  0  0  0  0  0  0  0
   13.8220   -1.9917    0.0000 C   0  0  0  0  0  0  0  0  0  0  0  0
   12.6689   -2.6656    0.0000 C   0  0  0  0  0  0  0  0  0  0  0  0
   11.5158   -1.9917    0.0000 C   0  0  0  0  0  0  0  0  0  0  0  0
   11.5158   -0.6739    0.0000 C   0  0  0  0  0  0  0  0  0  0  0  0
   12.6689    0.0000    0.0000 C   0  0  0  0  0  0  0  0  0  0  0  0
   10.3627   -2.6656    0.0000 C   0  0  0  0  0  0  0  0  0  0  0  0
    9.2097   -1.9917    0.0000 N   0  0  0  0  0  0  0  0  0  0  0  0
    8.0566   -2.6656    0.0000 C   0  0  0  0  0  0  0  0  0  0  0  0
    6.9185   -1.9917    0.0000 O   0  0  0  0  0  0  0  0  0  0  0  0
    8.0566   -3.9983    0.0000 C   0  0  0  0  0  0  0  0  0  0  0  0
    6.9185   -4.6572    0.0000 C   0  0  0  0  0  0  0  0  0  0  0  0
    5.7654   -3.9983    0.0000 C   0  0  0  0  0  0  0  0  0  0  0  0
    4.6123   -4.6572    0.0000 C   0  0  0  0  0  0  0  0  0  0  0  0
    3.4592   -3.9983    0.0000 C   0  0  0  0  0  0  0  0  0  0  0  0
    2.3062   -4.6572    0.0000 C   0  0  0  0  0  0  0  0  0  0  0  0
    1.1531   -3.9983    0.0000 C   0  0  0  0  0  0  0  0  0  0  0  0
    0.0000   -4.6572    0.0000 C   0  0  0  0  0  0  0  0  0  0  0  0
    1.1531   -2.6656    0.0000 C   0  0  0  0  0  0  0  0  0  0  0  0
   14.9750   -2.6656    0.0000 O   0  0  0  0  0  0  0  0  0  0  0  0
   14.9750   -3.9983    0.0000 C   0  0  0  0  0  0  0  0  0  0  0  0
  1  2  1  0  0  0  0
  2  3  2  0  0  0  0
  2  7  1  0  0  0  0
  3  4  1  0  0  0  0
  3 21  1  0  0  0  0
  4  5  2  0  0  0  0
  5  6  1  0  0  0  0
  5  8  1  0  0  0  0
  6  7  2  0  0  0  0
  8  9  1  0  0  0  0
  9 10  1  0  0  0  0
 10 11  2  0  0  0  0
 10 12  1  0  0  0  0
 12 13  1  0  0  0  0
 13 14  1  0  0  0  0
 14 15  1  0  0  0  0
 15 16  1  0  0  0  0
 16 17  2  0  0  0  0
 17 18  1  0  0  0  0
 18 19  1  0  0  0  0
 18 20  1  0  0  0  0
 21 22  1  0  0  0  0
M  END
> <ID>
237

> <Formula>
C18H27NO3

> <FW>
305.4119

> <DSSTox_CID>
241

> <DSSTox_RID>
75455

> <DSSTox_GSID>
20241

> <DSSTox_FileID_Sort>
139

> <TS_ChemName>
Capsaicin

> <TS_ChemName_Synonyms>


> <TS_CASRN>
404-86-4

> <CASRN_ChemName_Relationship>
primary

> <TS_Description>
single chemical compound

> <ChemNote>
stereochem

> <STRUCTURE_Shown>
tested chemical

> <STRUCTURE_Formula>
C18H27NO3

> <STRUCTURE_MW>
305.4119

> <STRUCTURE_ChemType>
defined organic

> <STRUCTURE_DefinedOrganicForm>
parent

> <STRUCTURE_IUPAC>
(6E)-N-(4-hydroxy-3-methoxybenzyl)-8-methylnon-6-enamide

> <STRUCTURE_SMILES>
Oc1ccc(cc1OC)CNC(=O)CCCC/C=C/C(C)C

> <STRUCTURE_SMILES_Desalt>
Oc1ccc(cc1OC)CNC(=O)CCCC/C=C/C(C)C

> <Substance_modify_yyyymmdd>
20080429

$$$$
