404001-48-5
ChemmineR-0915142007XD

 33 32  0  0  0  0  0  0  0  0  2 V2000
   15.9577   -1.0638    0.0000 N   0  3  0  0  0  0  0  0  0  0  0  0
   13.8522   -1.7066    0.0000 N   0  0  0  0  0  0  0  0  0  0  0  0
   15.1820   -2.1720    0.0000 C   0  0  0  0  0  0  0  0  0  0  0  0
   15.1820    0.0000    0.0000 C   0  0  0  0  0  0  0  0  0  0  0  0
   13.8522   -0.3989    0.0000 C   0  0  0  0  0  0  0  0  0  0  0  0
   12.8105   -2.5045    0.0000 C   0  0  0  0  0  0  0  0  0  0  0  0
   11.5472   -1.9725    0.0000 C   0  0  0  0  0  0  0  0  0  0  0  0
   10.5055   -2.7483    0.0000 C   0  0  0  0  0  0  0  0  0  0  0  0
    9.2200   -2.1720    0.0000 C   0  0  0  0  0  0  0  0  0  0  0  0
    8.1118   -2.9699    0.0000 C   0  0  0  0  0  0  0  0  0  0  0  0
    6.8707   -2.4380    0.0000 C   0  0  0  0  0  0  0  0  0  0  0  0
    5.8290   -3.2137    0.0000 C   0  0  0  0  0  0  0  0  0  0  0  0
    4.5657   -2.7039    0.0000 C   0  0  0  0  0  0  0  0  0  0  0  0
    3.4353   -3.4353    0.0000 C   0  0  0  0  0  0  0  0  0  0  0  0
    2.2607   -2.9034    0.0000 C   0  0  0  0  0  0  0  0  0  0  0  0
   17.2875   -1.0638    0.0000 C   0  0  0  0  0  0  0  0  0  0  0  0
    1.1968   -3.6791    0.0000 C   0  0  0  0  0  0  0  0  0  0  0  0
    0.0000   -3.1472    0.0000 C   0  0  0  0  0  0  0  0  0  0  0  0
   18.2848   -4.1446    0.0000 O   0  0  0  0  0  0  0  0  0  0  0  0
   17.6199   -5.2527    0.0000 S   0  0  0  0  0  0  0  0  0  0  0  0
   16.9550   -6.4052    0.0000 O   0  0  0  0  0  0  0  0  0  0  0  0
   16.4674   -4.6100    0.0000 C   0  0  0  0  0  0  0  0  0  0  0  0
   15.8247   -5.7625    0.0000 F   0  0  0  0  0  0  0  0  0  0  0  0
   17.1324   -3.4797    0.0000 F   0  0  0  0  0  0  0  0  0  0  0  0
   15.3371   -3.9451    0.0000 F   0  0  0  0  0  0  0  0  0  0  0  0
   18.7503   -5.9398    0.0000 N   0  5  0  0  0  0  0  0  0  0  0  0
   19.2157   -4.1446    0.0000 O   0  0  0  0  0  0  0  0  0  0  0  0
   19.8585   -5.2527    0.0000 S   0  0  0  0  0  0  0  0  0  0  0  0
   20.5455   -6.4052    0.0000 O   0  0  0  0  0  0  0  0  0  0  0  0
   21.0110   -4.6100    0.0000 C   0  0  0  0  0  0  0  0  0  0  0  0
   20.3461   -3.4797    0.0000 F   0  0  0  0  0  0  0  0  0  0  0  0
   21.6759   -5.7625    0.0000 F   0  0  0  0  0  0  0  0  0  0  0  0
   22.1635   -3.9451    0.0000 F   0  0  0  0  0  0  0  0  0  0  0  0
  1  3  2  0  0  0  0
  1  4  1  0  0  0  0
  1 16  1  0  0  0  0
  2  3  1  0  0  0  0
  2  5  1  0  0  0  0
  2  6  1  0  0  0  0
  4  5  2  0  0  0  0
  6  7  1  0  0  0  0
  7  8  1  0  0  0  0
  8  9  1  0  0  0  0
  9 10  1  0  0  0  0
 10 11  1  0  0  0  0
 11 12  1  0  0  0  0
 12 13  1  0  0  0  0
 13 14  1  0  0  0  0
 14 15  1  0  0  0  0
 15 17  1  0  0  0  0
 17 18  1  0  0  0  0
 19 20  2  0  0  0  0
 20 21  2  0  0  0  0
 20 22  1  0  0  0  0
 20 26  1  0  0  0  0
 22 23  1  0  0  0  0
 22 24  1  0  0  0  0
 22 25  1  0  0  0  0
 26 28  1  0  0  0  0
 27 28  2  0  0  0  0
 28 29  2  0  0  0  0
 28 30  1  0  0  0  0
 30 31  1  0  0  0  0
 30 32  1  0  0  0  0
 30 33  1  0  0  0  0
M  END
> <ID>
12992

> <Formula>
C18H31F6N3O4S2

> <FW>
531.5769 (251.4302+280.1467)

> <DSSTox_CID>
27893

> <DSSTox_RID>
82646

> <DSSTox_GSID>
47917

> <DSSTox_FileID_Sort>
7323

> <TS_ChemName>
1-Dodecyl-3-methylimidazolium bis(trifluoromethylsulfonyl)imide

> <TS_ChemName_Synonyms>


> <TS_CASRN>
404001-48-5

> <CASRN_ChemName_Relationship>
primary

> <TS_Description>
single chemical compound

> <ChemNote>
ammonium; parent [46928-10-3]

> <STRUCTURE_Shown>
tested chemical

> <STRUCTURE_Formula>
C18H31F6N3O4S2

> <STRUCTURE_MW>
531.5769

> <STRUCTURE_ChemType>
defined organic

> <STRUCTURE_DefinedOrganicForm>
salt

> <STRUCTURE_IUPAC>
1-dodecyl-3-methyl-1H-imidazol-3-ium bis[(trifluoromethyl)sulfonyl]azanide

> <STRUCTURE_SMILES>
FC(F)(F)S(=O)(=O)[N-]S(=O)(=O)C(F)(F)F.C[n+]1ccn(CCCCCCCCCCCC)c1

> <STRUCTURE_SMILES_Desalt>
C[n+]1ccn(CCCCCCCCCCCC)c1

> <Substance_modify_yyyymmdd>
20110419

$$$$
