404001-50-9
ChemmineR-0915142007XD

 37 36  0  0  0  0  0  0  0  0  2 V2000
   21.7751   -4.0701    0.0000 C   0  0  0  0  0  0  0  0  0  0  0  0
   18.3381   -2.4195    0.0000 C   0  0  0  0  0  0  0  0  0  0  0  0
   19.6270   -2.4195    0.0000 C   0  0  0  0  0  0  0  0  0  0  0  0
   20.0566   -3.6631    0.0000 N   0  3  0  0  0  0  0  0  0  0  0  0
   18.9939   -4.4319    0.0000 C   0  0  0  0  0  0  0  0  0  0  0  0
   17.9085   -3.6631    0.0000 N   0  0  0  0  0  0  0  0  0  0  0  0
   16.6649   -4.0927    0.0000 C   0  0  0  0  0  0  0  0  0  0  0  0
   15.6700   -3.2335    0.0000 C   0  0  0  0  0  0  0  0  0  0  0  0
   14.4263   -3.6405    0.0000 C   0  0  0  0  0  0  0  0  0  0  0  0
   13.4540   -2.7586    0.0000 C   0  0  0  0  0  0  0  0  0  0  0  0
   12.1877   -3.1656    0.0000 C   0  0  0  0  0  0  0  0  0  0  0  0
   11.1928   -2.3064    0.0000 C   0  0  0  0  0  0  0  0  0  0  0  0
    9.9492   -2.7134    0.0000 C   0  0  0  0  0  0  0  0  0  0  0  0
    8.9543   -1.8316    0.0000 C   0  0  0  0  0  0  0  0  0  0  0  0
    7.7106   -2.2386    0.0000 C   0  0  0  0  0  0  0  0  0  0  0  0
    6.7157   -1.3793    0.0000 C   0  0  0  0  0  0  0  0  0  0  0  0
    5.4494   -1.7863    0.0000 C   0  0  0  0  0  0  0  0  0  0  0  0
    4.4771   -0.9045    0.0000 C   0  0  0  0  0  0  0  0  0  0  0  0
    3.2335   -1.3341    0.0000 C   0  0  0  0  0  0  0  0  0  0  0  0
    2.2386   -0.4522    0.0000 C   0  0  0  0  0  0  0  0  0  0  0  0
    0.9723   -0.8592    0.0000 C   0  0  0  0  0  0  0  0  0  0  0  0
    0.0000    0.0000    0.0000 C   0  0  0  0  0  0  0  0  0  0  0  0
   16.1900   -6.6026    0.0000 F   0  0  0  0  0  0  0  0  0  0  0  0
   17.5015   -6.6026    0.0000 C   0  0  0  0  0  0  0  0  0  0  0  0
   17.5015   -5.2685    0.0000 F   0  0  0  0  0  0  0  0  0  0  0  0
   17.5015   -7.9141    0.0000 F   0  0  0  0  0  0  0  0  0  0  0  0
   18.8356   -6.6026    0.0000 S   0  0  0  0  0  0  0  0  0  0  0  0
   18.8356   -5.2685    0.0000 O   0  0  0  0  0  0  0  0  0  0  0  0
   18.8356   -7.9141    0.0000 O   0  0  0  0  0  0  0  0  0  0  0  0
   20.1471   -6.6026    0.0000 N   0  5  0  0  0  0  0  0  0  0  0  0
   20.8028   -7.7332    0.0000 S   0  0  0  0  0  0  0  0  0  0  0  0
   21.9560   -7.0775    0.0000 O   0  0  0  0  0  0  0  0  0  0  0  0
   19.6722   -8.3890    0.0000 O   0  0  0  0  0  0  0  0  0  0  0  0
   21.4586   -8.8864    0.0000 C   0  0  0  0  0  0  0  0  0  0  0  0
   22.6118   -8.2081    0.0000 F   0  0  0  0  0  0  0  0  0  0  0  0
   20.3280   -9.5422    0.0000 F   0  0  0  0  0  0  0  0  0  0  0  0
   22.1369  -10.0170    0.0000 F   0  0  0  0  0  0  0  0  0  0  0  0
  1  4  1  0  0  0  0
  2  3  2  0  0  0  0
  2  6  1  0  0  0  0
  3  4  1  0  0  0  0
  4  5  2  0  0  0  0
  5  6  1  0  0  0  0
  6  7  1  0  0  0  0
  7  8  1  0  0  0  0
  8  9  1  0  0  0  0
  9 10  1  0  0  0  0
 10 11  1  0  0  0  0
 11 12  1  0  0  0  0
 12 13  1  0  0  0  0
 13 14  1  0  0  0  0
 14 15  1  0  0  0  0
 15 16  1  0  0  0  0
 16 17  1  0  0  0  0
 17 18  1  0  0  0  0
 18 19  1  0  0  0  0
 19 20  1  0  0  0  0
 20 21  1  0  0  0  0
 21 22  1  0  0  0  0
 23 24  1  0  0  0  0
 24 25  1  0  0  0  0
 24 26  1  0  0  0  0
 24 27  1  0  0  0  0
 27 28  2  0  0  0  0
 27 29  2  0  0  0  0
 27 30  1  0  0  0  0
 30 31  1  0  0  0  0
 31 32  2  0  0  0  0
 31 33  2  0  0  0  0
 31 34  1  0  0  0  0
 34 35  1  0  0  0  0
 34 36  1  0  0  0  0
 34 37  1  0  0  0  0
M  END
> <ID>
14161

> <Formula>
C22H39F6N3O4S2

> <FW>
587.6832 (307.5365+280.1467)

> <DSSTox_CID>
29154

> <DSSTox_RID>
83373

> <DSSTox_GSID>
49298

> <DSSTox_FileID_Sort>
8048

> <TS_ChemName>
1-Hexadecyl-3-methylimidazolium bis(trifluoromethylsulfonyl)imide

> <TS_ChemName_Synonyms>


> <TS_CASRN>
404001-50-9

> <CASRN_ChemName_Relationship>
primary

> <TS_Description>
single chemical compound

> <ChemNote>


> <STRUCTURE_Shown>
tested chemical

> <STRUCTURE_Formula>
C22H39F6N3O4S2

> <STRUCTURE_MW>
587.6832

> <STRUCTURE_ChemType>
defined organic

> <STRUCTURE_DefinedOrganicForm>
complex

> <STRUCTURE_IUPAC>
1-hexadecyl-3-methyl-1H-imidazol-3-ium bis[(trifluoromethyl)sulfonyl]azanide

> <STRUCTURE_SMILES>
FC(F)(F)S(=O)(=O)[N-]S(=O)(=O)C(F)(F)F.C[n+]1ccn(CCCCCCCCCCCCCCCC)c1

> <STRUCTURE_SMILES_Desalt>
C[n+]1ccn(CCCCCCCCCCCCCCCC)c1

> <Substance_modify_yyyymmdd>
20111204

$$$$
