404001-49-6
ChemmineR-0915142007XD

 35 34  0  0  0  0  0  0  0  0  2 V2000
    0.1444  -16.0430    0.0000 C   0  0  0  0  0  0  0  0  0  0  0  0
    9.8183   -1.0428    0.0000 C   0  0  0  0  0  0  0  0  0  0  0  0
    0.0000  -14.7435    0.0000 C   0  0  0  0  0  0  0  0  0  0  0  0
    1.0428  -13.9895    0.0000 C   0  0  0  0  0  0  0  0  0  0  0  0
    0.9145  -12.7061    0.0000 C   0  0  0  0  0  0  0  0  0  0  0  0
    1.9733  -11.9360    0.0000 C   0  0  0  0  0  0  0  0  0  0  0  0
    1.8289  -10.6365    0.0000 C   0  0  0  0  0  0  0  0  0  0  0  0
    2.8717   -9.8986    0.0000 C   0  0  0  0  0  0  0  0  0  0  0  0
    2.7434   -8.5991    0.0000 C   0  0  0  0  0  0  0  0  0  0  0  0
    3.7862   -7.8290    0.0000 C   0  0  0  0  0  0  0  0  0  0  0  0
    3.6578   -6.5616    0.0000 C   0  0  0  0  0  0  0  0  0  0  0  0
    4.7006   -5.7915    0.0000 C   0  0  0  0  0  0  0  0  0  0  0  0
    4.5723   -4.4920    0.0000 C   0  0  0  0  0  0  0  0  0  0  0  0
    5.6151   -3.7380    0.0000 C   0  0  0  0  0  0  0  0  0  0  0  0
    5.4707   -2.4546    0.0000 C   0  0  0  0  0  0  0  0  0  0  0  0
    7.7488    0.0000    0.0000 C   0  0  0  0  0  0  0  0  0  0  0  0
    6.5295   -0.3850    0.0000 C   0  0  0  0  0  0  0  0  0  0  0  0
    7.7488   -2.0856    0.0000 C   0  0  0  0  0  0  0  0  0  0  0  0
    8.5188   -1.0428    0.0000 N   0  3  0  0  0  0  0  0  0  0  0  0
    6.5295   -1.6845    0.0000 N   0  0  0  0  0  0  0  0  0  0  0  0
    7.9253   -9.5616    0.0000 O   0  0  0  0  0  0  0  0  0  0  0  0
    9.7702   -9.2247    0.0000 C   0  0  0  0  0  0  0  0  0  0  0  0
   10.8932   -9.8825    0.0000 F   0  0  0  0  0  0  0  0  0  0  0  0
    8.6472   -8.5830    0.0000 F   0  0  0  0  0  0  0  0  0  0  0  0
   10.4280   -8.1017    0.0000 F   0  0  0  0  0  0  0  0  0  0  0  0
   10.2515  -10.9895    0.0000 O   0  0  0  0  0  0  0  0  0  0  0  0
    9.1285  -10.3478    0.0000 S   0  0  0  0  0  0  0  0  0  0  0  0
    5.4707  -12.4494    0.0000 C   0  0  0  0  0  0  0  0  0  0  0  0
    4.1872  -12.4494    0.0000 F   0  0  0  0  0  0  0  0  0  0  0  0
    5.4707  -13.7489    0.0000 F   0  0  0  0  0  0  0  0  0  0  0  0
    5.4707  -11.1659    0.0000 F   0  0  0  0  0  0  0  0  0  0  0  0
    8.0696  -12.4494    0.0000 N   0  5  0  0  0  0  0  0  0  0  0  0
    6.7702  -13.7489    0.0000 O   0  0  0  0  0  0  0  0  0  0  0  0
    6.7702  -11.1659    0.0000 O   0  0  0  0  0  0  0  0  0  0  0  0
    6.7702  -12.4494    0.0000 S   0  0  0  0  0  0  0  0  0  0  0  0
  1  3  1  0  0  0  0
  2 19  1  0  0  0  0
  3  4  1  0  0  0  0
  4  5  1  0  0  0  0
  5  6  1  0  0  0  0
  6  7  1  0  0  0  0
  7  8  1  0  0  0  0
  8  9  1  0  0  0  0
  9 10  1  0  0  0  0
 10 11  1  0  0  0  0
 11 12  1  0  0  0  0
 12 13  1  0  0  0  0
 13 14  1  0  0  0  0
 14 15  1  0  0  0  0
 15 20  1  0  0  0  0
 16 17  2  0  0  0  0
 16 19  1  0  0  0  0
 17 20  1  0  0  0  0
 18 19  2  0  0  0  0
 18 20  1  0  0  0  0
 21 27  2  0  0  0  0
 22 23  1  0  0  0  0
 22 24  1  0  0  0  0
 22 25  1  0  0  0  0
 22 27  1  0  0  0  0
 26 27  2  0  0  0  0
 27 32  1  0  0  0  0
 28 29  1  0  0  0  0
 28 30  1  0  0  0  0
 28 31  1  0  0  0  0
 28 35  1  0  0  0  0
 32 35  1  0  0  0  0
 33 35  2  0  0  0  0
 34 35  2  0  0  0  0
M  END
> <ID>
14160

> <Formula>
C20H35F6N3O4S2

> <FW>
559.6300 (279.4834+280.1467)

> <DSSTox_CID>
29153

> <DSSTox_RID>
83372

> <DSSTox_GSID>
49297

> <DSSTox_FileID_Sort>
8047

> <TS_ChemName>
1-Methyl-3-tetradecylimidazolium bis(trifluoromethylsulfonyl)imide

> <TS_ChemName_Synonyms>


> <TS_CASRN>
404001-49-6

> <CASRN_ChemName_Relationship>
primary

> <TS_Description>
single chemical compound

> <ChemNote>


> <STRUCTURE_Shown>
tested chemical

> <STRUCTURE_Formula>
C20H35F6N3O4S2

> <STRUCTURE_MW>
559.63

> <STRUCTURE_ChemType>
defined organic

> <STRUCTURE_DefinedOrganicForm>
complex

> <STRUCTURE_IUPAC>
3-methyl-1-tetradecyl-1H-imidazol-3-ium bis[(trifluoromethyl)sulfonyl]azanide

> <STRUCTURE_SMILES>
FC(F)(F)S(=O)(=O)[N-]S(=O)(=O)C(F)(F)F.C[n+]1ccn(CCCCCCCCCCCCCC)c1

> <STRUCTURE_SMILES_Desalt>
C[n+]1ccn(CCCCCCCCCCCCCC)c1

> <Substance_modify_yyyymmdd>
20111204

$$$$
