404001-52-1
ChemmineR-0915142007XD

 26 25  0  0  0  0  0  0  0  0  2 V2000
    0.0000  -11.5257    0.0000 C   0  0  0  0  0  0  0  0  0  0  0  0
   12.6653   -1.6706    0.0000 C   0  0  0  0  0  0  0  0  0  0  0  0
    0.2720  -10.2177    0.0000 C   0  0  0  0  0  0  0  0  0  0  0  0
    1.5540   -9.8162    0.0000 C   0  0  0  0  0  0  0  0  0  0  0  0
    1.8260   -8.5083    0.0000 C   0  0  0  0  0  0  0  0  0  0  0  0
    3.0821   -8.0939    0.0000 C   0  0  0  0  0  0  0  0  0  0  0  0
    3.3541   -6.7988    0.0000 C   0  0  0  0  0  0  0  0  0  0  0  0
    4.6362   -6.3844    0.0000 C   0  0  0  0  0  0  0  0  0  0  0  0
    4.9081   -5.0765    0.0000 C   0  0  0  0  0  0  0  0  0  0  0  0
    6.1772   -4.6750    0.0000 C   0  0  0  0  0  0  0  0  0  0  0  0
    6.4492   -3.3800    0.0000 C   0  0  0  0  0  0  0  0  0  0  0  0
    7.7183   -2.9915    0.0000 C   0  0  0  0  0  0  0  0  0  0  0  0
    7.9903   -1.6706    0.0000 C   0  0  0  0  0  0  0  0  0  0  0  0
   10.9818    0.0000    0.0000 C   0  0  0  0  0  0  0  0  0  0  0  0
    9.6608    0.0000    0.0000 C   0  0  0  0  0  0  0  0  0  0  0  0
   10.3213   -2.0332    0.0000 C   0  0  0  0  0  0  0  0  0  0  0  0
   11.3962   -1.2562    0.0000 N   0  3  0  0  0  0  0  0  0  0  0  0
    9.2464   -1.2562    0.0000 N   0  0  0  0  0  0  0  0  0  0  0  0
    3.8333  -11.6293    0.0000 C   0  0  0  0  0  0  0  0  0  0  0  0
    2.5123  -11.6293    0.0000 F   0  0  0  0  0  0  0  0  0  0  0  0
    3.8333  -12.9502    0.0000 F   0  0  0  0  0  0  0  0  0  0  0  0
    3.8333  -10.2954    0.0000 F   0  0  0  0  0  0  0  0  0  0  0  0
    5.1542  -12.9502    0.0000 O   0  5  0  0  0  0  0  0  0  0  0  0
    5.1542  -10.2954    0.0000 O   0  0  0  0  0  0  0  0  0  0  0  0
    6.5010  -11.6293    0.0000 O   0  0  0  0  0  0  0  0  0  0  0  0
    5.1542  -11.6293    0.0000 S   0  0  0  0  0  0  0  0  0  0  0  0
  1  3  1  0  0  0  0
  2 17  1  0  0  0  0
  3  4  1  0  0  0  0
  4  5  1  0  0  0  0
  5  6  1  0  0  0  0
  6  7  1  0  0  0  0
  7  8  1  0  0  0  0
  8  9  1  0  0  0  0
  9 10  1  0  0  0  0
 10 11  1  0  0  0  0
 11 12  1  0  0  0  0
 12 13  1  0  0  0  0
 13 18  1  0  0  0  0
 14 15  2  0  0  0  0
 14 17  1  0  0  0  0
 15 18  1  0  0  0  0
 16 17  2  0  0  0  0
 16 18  1  0  0  0  0
 19 20  1  0  0  0  0
 19 21  1  0  0  0  0
 19 22  1  0  0  0  0
 19 26  1  0  0  0  0
 23 26  1  0  0  0  0
 24 26  2  0  0  0  0
 25 26  2  0  0  0  0
M  END
> <ID>
14162

> <Formula>
C17H31F3N2O3S

> <FW>
400.4998 (251.4302+149.0697)

> <DSSTox_CID>
29155

> <DSSTox_RID>
83374

> <DSSTox_GSID>
49299

> <DSSTox_FileID_Sort>
8049

> <TS_ChemName>
1-Dodecyl-3-methylimidazolium trifluoromethanesulfonate

> <TS_ChemName_Synonyms>


> <TS_CASRN>
404001-52-1

> <CASRN_ChemName_Relationship>
primary

> <TS_Description>
single chemical compound

> <ChemNote>


> <STRUCTURE_Shown>
tested chemical

> <STRUCTURE_Formula>
C17H31F3N2O3S

> <STRUCTURE_MW>
400.4998

> <STRUCTURE_ChemType>
defined organic

> <STRUCTURE_DefinedOrganicForm>
complex

> <STRUCTURE_IUPAC>
1-dodecyl-3-methyl-1H-imidazol-3-ium trifluoromethanesulfonate

> <STRUCTURE_SMILES>
FC(F)(F)S([O-])(=O)=O.C[n+]1ccn(CCCCCCCCCCCC)c1

> <STRUCTURE_SMILES_Desalt>
C[n+]1ccn(CCCCCCCCCCCC)c1

> <Substance_modify_yyyymmdd>
20111204

$$$$
