4044-65-9
ChemmineR-0915142007XD

 12 12  0  0  0  0  0  0  0  0  1 V2000
    9.2093   -1.3353    0.0000 S   0  0  0  0  0  0  0  0  0  0  0  0
    8.0581   -0.6631    0.0000 C   0  0  0  0  0  0  0  0  0  0  0  0
    6.9070    0.0000    0.0000 N   0  0  0  0  0  0  0  0  0  0  0  0
    5.7558   -0.6631    0.0000 C   0  0  0  0  0  0  0  0  0  0  0  0
    5.7558   -1.9984    0.0000 C   0  0  0  0  0  0  0  0  0  0  0  0
    4.6046   -2.6615    0.0000 C   0  0  0  0  0  0  0  0  0  0  0  0
    3.4535   -1.9984    0.0000 C   0  0  0  0  0  0  0  0  0  0  0  0
    3.4535   -0.6631    0.0000 C   0  0  0  0  0  0  0  0  0  0  0  0
    4.6046    0.0000    0.0000 C   0  0  0  0  0  0  0  0  0  0  0  0
    2.3023   -2.6615    0.0000 N   0  0  0  0  0  0  0  0  0  0  0  0
    1.1512   -1.9984    0.0000 C   0  0  0  0  0  0  0  0  0  0  0  0
    0.0000   -1.3353    0.0000 S   0  0  0  0  0  0  0  0  0  0  0  0
  1  2  2  0  0  0  0
  2  3  2  0  0  0  0
  3  4  1  0  0  0  0
  4  5  2  0  0  0  0
  4  9  1  0  0  0  0
  5  6  1  0  0  0  0
  6  7  2  0  0  0  0
  7  8  1  0  0  0  0
  7 10  1  0  0  0  0
  8  9  2  0  0  0  0
 10 11  2  0  0  0  0
 11 12  2  0  0  0  0
M  END
> <ID>
11763

> <Formula>
C8H4N2S2

> <FW>
192.2608

> <DSSTox_CID>
26532

> <DSSTox_RID>
81697

> <DSSTox_GSID>
46532

> <DSSTox_FileID_Sort>
6378

> <TS_ChemName>
Bitoscanate

> <TS_ChemName_Synonyms>


> <TS_CASRN>
4044-65-9

> <CASRN_ChemName_Relationship>
primary

> <TS_Description>
single chemical compound

> <ChemNote>


> <STRUCTURE_Shown>
tested chemical

> <STRUCTURE_Formula>
C8H4N2S2

> <STRUCTURE_MW>
192.2608

> <STRUCTURE_ChemType>
defined organic

> <STRUCTURE_DefinedOrganicForm>
parent

> <STRUCTURE_IUPAC>
1,4-diisothiocyanatobenzene

> <STRUCTURE_SMILES>
S=C=N/c1ccc(cc1)\N=C=S

> <STRUCTURE_SMILES_Desalt>
S=C=N/c1ccc(cc1)\N=C=S

> <Substance_modify_yyyymmdd>
20110811

$$$$
