40487-42-1
ChemmineR-0915142007XD

 20 20  0  0  0  0  0  0  0  0  2 V2000
    3.4755   -2.0155    0.0000 C   0  0  0  0  0  0  0  0  0  0  0  0
    2.3170   -4.0309    0.0000 C   0  0  0  0  0  0  0  0  0  0  0  0
    3.4755   -3.3565    0.0000 C   0  0  0  0  0  0  0  0  0  0  0  0
    4.6260   -1.3172    0.0000 N   0  3  0  0  0  0  0  0  0  0  0  0
    2.3170   -5.3481    0.0000 N   0  3  0  0  0  0  0  0  0  0  0  0
    1.1506   -3.3565    0.0000 C   0  0  0  0  0  0  0  0  0  0  0  0
    2.3170   -1.3648    0.0000 C   0  0  0  0  0  0  0  0  0  0  0  0
    1.1506   -2.0155    0.0000 C   0  0  0  0  0  0  0  0  0  0  0  0
    4.6260   -4.0150    0.0000 N   0  0  0  0  0  0  0  0  0  0  0  0
    5.7687   -1.9917    0.0000 O   0  5  0  0  0  0  0  0  0  0  0  0
    3.4596   -6.0067    0.0000 O   0  5  0  0  0  0  0  0  0  0  0  0
    1.1426   -6.0067    0.0000 O   0  0  0  0  0  0  0  0  0  0  0  0
    4.6260    0.0000    0.0000 O   0  0  0  0  0  0  0  0  0  0  0  0
    5.9432   -4.0150    0.0000 C   0  0  0  0  0  0  0  0  0  0  0  0
    0.0000   -4.0309    0.0000 C   0  0  0  0  0  0  0  0  0  0  0  0
    0.0000   -1.3569    0.0000 C   0  0  0  0  0  0  0  0  0  0  0  0
    6.5939   -2.8486    0.0000 C   0  0  0  0  0  0  0  0  0  0  0  0
    6.6177   -5.1418    0.0000 C   0  0  0  0  0  0  0  0  0  0  0  0
    7.9190   -2.8486    0.0000 C   0  0  0  0  0  0  0  0  0  0  0  0
    7.9349   -5.1418    0.0000 C   0  0  0  0  0  0  0  0  0  0  0  0
  1  3  1  0  0  0  0
  1  4  1  0  0  0  0
  1  7  2  0  0  0  0
  2  3  2  0  0  0  0
  2  5  1  0  0  0  0
  2  6  1  0  0  0  0
  3  9  1  0  0  0  0
  4 10  1  0  0  0  0
  4 13  2  0  0  0  0
  5 11  1  0  0  0  0
  5 12  2  0  0  0  0
  6  8  2  0  0  0  0
  6 15  1  0  0  0  0
  7  8  1  0  0  0  0
  8 16  1  0  0  0  0
  9 14  1  0  0  0  0
 14 17  1  0  0  0  0
 14 18  1  0  0  0  0
 17 19  1  0  0  0  0
 18 20  1  0  0  0  0
M  END
> <ID>
3579

> <Formula>
C13H19N3O4

> <FW>
281.3077

> <DSSTox_CID>
4245

> <DSSTox_RID>
77339

> <DSSTox_GSID>
24245

> <DSSTox_FileID_Sort>
2022

> <TS_ChemName>
Pendimethalin

> <TS_ChemName_Synonyms>


> <TS_CASRN>
40487-42-1

> <CASRN_ChemName_Relationship>
primary

> <TS_Description>
single chemical compound

> <ChemNote>


> <STRUCTURE_Shown>
tested chemical

> <STRUCTURE_Formula>
C13H19N3O4

> <STRUCTURE_MW>
281.3077

> <STRUCTURE_ChemType>
defined organic

> <STRUCTURE_DefinedOrganicForm>
parent

> <STRUCTURE_IUPAC>
3,4-dimethyl-2,6-dinitro-N-(pentan-3-yl)aniline

> <STRUCTURE_SMILES>
[O-][N+](=O)c1c(C)c(C)cc([N+]([O-])=O)c1NC(CC)CC

> <STRUCTURE_SMILES_Desalt>
[O-][N+](=O)c1c(C)c(C)cc([N+]([O-])=O)c1NC(CC)CC

> <Substance_modify_yyyymmdd>
20080429

$$$$
