40516-48-1
ChemmineR-0915142007XD

 52 54  0  0  1  0  0  0  0  0  1 V2000
    1.1397   -8.5054    0.0000 C   0  0  0  0  0  0  0  0  0  0  0  0
    0.0000   -7.8300    0.0000 C   0  0  0  0  0  0  0  0  0  0  0  0
    0.0000   -6.5004    0.0000 C   0  0  0  0  0  0  0  0  0  0  0  0
    1.1397   -5.8461    0.0000 C   0  0  0  0  0  0  0  0  0  0  0  0
    2.3005   -6.5004    0.0000 C   0  0  0  0  0  0  0  0  0  0  0  0
    2.3005   -7.8300    0.0000 C   0  0  0  0  0  0  0  0  0  0  0  0
    3.6301   -7.8300    0.0000 C   0  0  0  0  0  0  0  0  0  0  0  0
    2.9758   -8.9908    0.0000 C   0  0  0  0  0  0  0  0  0  0  0  0
    1.1397   -4.4954    0.0000 C   0  0  0  0  0  0  0  0  0  0  0  0
    3.4613   -5.8461    0.0000 C   0  0  0  0  0  0  0  0  0  0  0  0
    4.6220   -6.5004    0.0000 C   0  0  0  0  0  0  0  0  0  0  0  0
    5.7828   -5.8461    0.0000 C   0  0  0  0  0  0  0  0  0  0  0  0
    6.9436   -6.5004    0.0000 C   0  0  0  0  0  0  0  0  0  0  0  0
    8.1044   -5.8461    0.0000 C   0  0  0  0  0  0  0  0  0  0  0  0
    9.2441   -6.5004    0.0000 C   0  0  0  0  0  0  0  0  0  0  0  0
   10.4049   -5.8461    0.0000 C   0  0  0  0  0  0  0  0  0  0  0  0
   11.5657   -6.5004    0.0000 C   0  0  0  0  0  0  0  0  0  0  0  0
   12.7264   -5.8461    0.0000 C   0  0  0  0  0  0  0  0  0  0  0  0
   13.8872   -6.5004    0.0000 O   0  0  0  0  0  0  0  0  0  0  0  0
   15.0902   -5.8672    0.0000 C   0  0  0  0  0  0  0  0  0  0  0  0
    5.7828   -4.4954    0.0000 C   0  0  0  0  0  0  0  0  0  0  0  0
   10.4049   -4.4954    0.0000 C   0  0  0  0  0  0  0  0  0  0  0  0
   12.7264   -4.4954    0.0000 O   0  0  0  0  0  0  0  0  0  0  0  0
   16.2721   -6.5004    0.0000 C   0  0  0  0  0  0  0  0  0  0  0  0
   16.2721   -4.0311    0.0000 C   0  0  0  0  0  0  0  0  0  0  0  0
   15.0902   -4.6220    0.0000 C   0  0  0  0  0  0  0  0  0  0  0  0
   17.4751   -4.6220    0.0000 C   0  0  0  0  0  0  0  0  0  0  0  0
   17.4751   -5.8884    0.0000 C   0  0  0  0  0  0  0  0  0  0  0  0
   18.6781   -6.5215    0.0000 C   0  0  0  0  0  0  0  0  0  0  0  0
   19.8600   -5.8884    0.0000 C   0  0  0  0  0  0  0  0  0  0  0  0
   19.8600   -4.6643    0.0000 C   0  0  0  0  0  0  0  0  0  0  0  0
   18.6781   -4.0311    0.0000 O   0  0  0  0  0  0  0  0  0  0  0  0
   16.2721   -2.7648    0.0000 C   0  0  0  0  0  0  0  0  0  0  0  0
   13.9083   -4.0100    0.0000 C   0  0  0  0  0  0  0  0  0  0  0  0
   16.2721   -7.7456    0.0000 C   0  0  0  0  0  0  0  0  0  0  0  0
   21.1052   -4.0311    0.0000 C   0  0  0  0  0  0  0  0  0  0  0  0
   21.1052   -2.7015    0.0000 C   0  0  0  0  0  0  0  0  0  0  0  0
   19.9444   -2.0050    0.0000 C   0  0  0  0  0  0  0  0  0  0  0  0
   19.9444   -0.6754    0.0000 C   0  0  0  0  0  0  0  0  0  0  0  0
   18.8047    0.0000    0.0000 C   0  0  0  0  0  0  0  0  0  0  0  0
   17.6440   -0.6754    0.0000 C   0  0  0  0  0  0  0  0  0  0  0  0
   16.4832    0.0000    0.0000 C   0  0  0  0  0  0  0  0  0  0  0  0
   15.3224   -0.6754    0.0000 C   0  0  0  0  0  0  0  0  0  0  0  0
   14.1616    0.0000    0.0000 C   0  0  0  0  0  0  0  0  0  0  0  0
   13.0008   -0.6754    0.0000 C   0  0  0  0  0  0  0  0  0  0  0  0
   11.8400    0.0000    0.0000 C   0  0  0  0  0  0  0  0  0  0  0  0
   21.0419   -5.2763    0.0000 C   0  0  0  0  0  0  0  0  0  0  0  0
   21.1052    0.0000    0.0000 C   0  0  0  0  0  0  0  0  0  0  0  0
   15.3224   -2.0050    0.0000 C   0  0  0  0  0  0  0  0  0  0  0  0
   10.6792   -0.6754    0.0000 C   0  0  0  0  0  0  0  0  0  0  0  0
    9.5396    0.0000    0.0000 C   0  0  0  0  0  0  0  0  0  0  0  0
   10.6792   -2.0050    0.0000 C   0  0  0  0  0  0  0  0  0  0  0  0
  1  2  1  0  0  0  0
  1  6  1  0  0  0  0
  2  3  1  0  0  0  0
  3  4  1  0  0  0  0
  4  9  1  0  0  0  0
  4  5  2  0  0  0  0
  5  6  1  0  0  0  0
  5 10  1  0  0  0  0
  6  7  1  0  0  0  0
  6  8  1  0  0  0  0
 10 11  2  0  0  0  0
 11 12  1  0  0  0  0
 12 13  2  0  0  0  0
 12 21  1  0  0  0  0
 13 14  1  0  0  0  0
 14 15  2  0  0  0  0
 15 16  1  0  0  0  0
 16 17  2  0  0  0  0
 16 22  1  0  0  0  0
 17 18  1  0  0  0  0
 18 19  1  0  0  0  0
 18 23  2  0  0  0  0
 19 20  1  0  0  0  0
 20 26  1  0  0  0  0
 20 24  2  0  0  0  0
 24 35  1  0  0  0  0
 24 28  1  0  0  0  0
 25 26  2  0  0  0  0
 25 33  1  0  0  0  0
 25 27  1  0  0  0  0
 26 34  1  0  0  0  0
 27 28  2  0  0  0  0
 27 32  1  0  0  0  0
 28 29  1  0  0  0  0
 29 30  1  0  0  0  0
 30 31  1  0  0  0  0
 31 32  1  0  0  0  0
 31 36  1  6  0  0  0
 31 47  1  1  0  0  0
 36 37  1  0  0  0  0
 37 38  1  0  0  0  0
 38 39  1  0  0  0  0
 39 40  1  0  0  0  0
 39 48  1  1  0  0  0
 40 41  1  0  0  0  0
 41 42  1  0  0  0  0
 42 43  1  0  0  0  0
 43 44  1  0  0  0  0
 43 49  1  6  0  0  0
 44 45  1  0  0  0  0
 45 46  1  0  0  0  0
 46 50  1  0  0  0  0
 50 51  1  0  0  0  0
 50 52  1  0  0  0  0
M  END
> <ID>
12082

> <Formula>
C49H76O3

> <FW>
713.1259

> <DSSTox_CID>
26923

> <DSSTox_RID>
82019

> <DSSTox_GSID>
46923

> <DSSTox_FileID_Sort>
6700

> <TS_ChemName>
Tretinoin tocoferil

> <TS_ChemName_Synonyms>


> <TS_CASRN>
40516-48-1

> <CASRN_ChemName_Relationship>
primary

> <TS_Description>
single chemical compound

> <ChemNote>
stereochem

> <STRUCTURE_Shown>
tested chemical

> <STRUCTURE_Formula>
C49H76O3

> <STRUCTURE_MW>
713.1259

> <STRUCTURE_ChemType>
defined organic

> <STRUCTURE_DefinedOrganicForm>
parent

> <STRUCTURE_IUPAC>
O~15~-{(2R)-2,5,7,8-tetramethyl-2-[(4R,8R)-4,8,12-trimethyltridecyl]-3,4-dihydro-2H-chromen-6-yl}retinoic acid

> <STRUCTURE_SMILES>
CC=3CCCC(C)(C)C=3/C=CC(\C)=C\C=CC(/C)=C/C(=O)Oc2c(C)c(C)c1O[C@@](C)(CCc1c2C)CCC[C@H](C)CCC[C@H](C)CCCC(C)C

> <STRUCTURE_SMILES_Desalt>
CC=3CCCC(C)(C)C=3/C=CC(\C)=C\C=CC(/C)=C/C(=O)Oc2c(C)c(C)c1O[C@@](C)(CCc1c2C)CCC[C@H](C)CCC[C@H](C)CCCC(C)C

> <Substance_modify_yyyymmdd>
20110725

$$$$
