405514-94-5
ChemmineR-0915142007XD

 29 27  0  0  0  0  0  0  0  0  2 V2000
   15.4182   -0.7167    0.0000 O   0  0  0  0  0  0  0  0  0  0  0  0
   14.7596   -1.8595    0.0000 S   0  0  0  0  0  0  0  0  0  0  0  0
   14.0817   -3.0023    0.0000 O   0  0  0  0  0  0  0  0  0  0  0  0
   13.5781   -1.2009    0.0000 C   0  0  0  0  0  0  0  0  0  0  0  0
   12.9195   -2.3437    0.0000 F   0  0  0  0  0  0  0  0  0  0  0  0
   14.2560   -0.0387    0.0000 F   0  0  0  0  0  0  0  0  0  0  0  0
   12.4353   -0.5230    0.0000 F   0  0  0  0  0  0  0  0  0  0  0  0
   15.9025   -2.5374    0.0000 N   0  5  0  0  0  0  0  0  0  0  0  0
   16.3673   -0.7167    0.0000 O   0  0  0  0  0  0  0  0  0  0  0  0
   17.0453   -1.8595    0.0000 S   0  0  0  0  0  0  0  0  0  0  0  0
   17.7426   -3.0023    0.0000 O   0  0  0  0  0  0  0  0  0  0  0  0
   18.2074   -1.2009    0.0000 C   0  0  0  0  0  0  0  0  0  0  0  0
   17.5489   -0.0387    0.0000 F   0  0  0  0  0  0  0  0  0  0  0  0
   18.8660   -2.3437    0.0000 F   0  0  0  0  0  0  0  0  0  0  0  0
   19.3696   -0.5230    0.0000 F   0  0  0  0  0  0  0  0  0  0  0  0
    4.4163   -1.6077    0.0000 N   0  3  0  0  0  0  0  0  0  0  0  0
    5.3460   -0.6392    0.0000 C   0  0  0  0  0  0  0  0  0  0  0  0
    3.4865   -0.6779    0.0000 C   0  0  0  0  0  0  0  0  0  0  0  0
    3.5059   -2.5568    0.0000 C   0  0  0  0  0  0  0  0  0  0  0  0
    5.3848   -2.5374    0.0000 C   0  0  0  0  0  0  0  0  0  0  0  0
    6.6438   -0.9491    0.0000 C   0  0  0  0  0  0  0  0  0  0  0  0
    7.5735    0.0000    0.0000 C   0  0  0  0  0  0  0  0  0  0  0  0
    8.8713   -0.3099    0.0000 C   0  0  0  0  0  0  0  0  0  0  0  0
    2.2081   -2.2469    0.0000 C   0  0  0  0  0  0  0  0  0  0  0  0
    1.2978   -3.1960    0.0000 C   0  0  0  0  0  0  0  0  0  0  0  0
    0.0000   -2.8861    0.0000 C   0  0  0  0  0  0  0  0  0  0  0  0
    5.0748   -3.8158    0.0000 C   0  0  0  0  0  0  0  0  0  0  0  0
    6.0240   -4.7456    0.0000 C   0  0  0  0  0  0  0  0  0  0  0  0
    5.7140   -6.0240    0.0000 C   0  0  0  0  0  0  0  0  0  0  0  0
  1  2  2  0  0  0  0
  2  3  2  0  0  0  0
  2  4  1  0  0  0  0
  2  8  1  0  0  0  0
  4  5  1  0  0  0  0
  4  6  1  0  0  0  0
  4  7  1  0  0  0  0
  8 10  1  0  0  0  0
  9 10  2  0  0  0  0
 10 11  2  0  0  0  0
 10 12  1  0  0  0  0
 12 13  1  0  0  0  0
 12 14  1  0  0  0  0
 12 15  1  0  0  0  0
 16 17  1  0  0  0  0
 16 18  1  0  0  0  0
 16 19  1  0  0  0  0
 16 20  1  0  0  0  0
 17 21  1  0  0  0  0
 19 24  1  0  0  0  0
 20 27  1  0  0  0  0
 21 22  1  0  0  0  0
 22 23  1  0  0  0  0
 24 25  1  0  0  0  0
 25 26  1  0  0  0  0
 27 28  1  0  0  0  0
 28 29  1  0  0  0  0
M  END
> <ID>
12980

> <Formula>
C15H30F6N2O4S2

> <FW>
480.5301 (280.1467+200.3835)

> <DSSTox_CID>
27881

> <DSSTox_RID>
82634

> <DSSTox_GSID>
47905

> <DSSTox_FileID_Sort>
7311

> <TS_ChemName>
Tributylmethylammonium bis(trifluoromethylsulfonyl)imde

> <TS_ChemName_Synonyms>


> <TS_CASRN>
405514-94-5

> <CASRN_ChemName_Relationship>
primary

> <TS_Description>
single chemical compound

> <ChemNote>
ammonium; parent [56375-79-2]

> <STRUCTURE_Shown>
tested chemical

> <STRUCTURE_Formula>
C15H30F6N2O4S2

> <STRUCTURE_MW>
480.5301

> <STRUCTURE_ChemType>
defined organic

> <STRUCTURE_DefinedOrganicForm>
salt

> <STRUCTURE_IUPAC>
N,N-dibutyl-N-methylbutan-1-aminium bis[(trifluoromethyl)sulfonyl]azanide

> <STRUCTURE_SMILES>
FC(F)(F)S(=O)(=O)[N-]S(=O)(=O)C(F)(F)F.CCCC[N+](C)(CCCC)CCCC

> <STRUCTURE_SMILES_Desalt>
O=S(=O)(NS(=O)(=O)C(F)(F)F)C(F)(F)F

> <Substance_modify_yyyymmdd>
20110417

$$$$
