40596-69-8
ChemmineR-0915142007XD

 22 21  0  0  0  0  0  0  0  0  1 V2000
   12.7813   -1.3497    0.0000 C   0  0  0  0  0  0  0  0  0  0  0  0
   11.6105   -2.0164    0.0000 C   0  0  0  0  0  0  0  0  0  0  0  0
   10.4072   -1.4147    0.0000 C   0  0  0  0  0  0  0  0  0  0  0  0
    8.0656   -1.4147    0.0000 C   0  0  0  0  0  0  0  0  0  0  0  0
    9.2689   -2.0164    0.0000 C   0  0  0  0  0  0  0  0  0  0  0  0
   12.7813   -0.0488    0.0000 O   0  0  0  0  0  0  0  0  0  0  0  0
   13.9196   -2.0164    0.0000 O   0  0  0  0  0  0  0  0  0  0  0  0
    1.1058   -1.3009    0.0000 C   0  0  0  0  0  0  0  0  0  0  0  0
    0.3740   -2.3904    0.0000 O   0  0  0  0  0  0  0  0  0  0  0  0
    3.4149   -1.4147    0.0000 C   0  0  0  0  0  0  0  0  0  0  0  0
   15.1230   -1.3497    0.0000 C   0  0  0  0  0  0  0  0  0  0  0  0
    6.9110   -2.0164    0.0000 C   0  0  0  0  0  0  0  0  0  0  0  0
    2.2115   -2.0164    0.0000 C   0  0  0  0  0  0  0  0  0  0  0  0
   10.4072   -0.0488    0.0000 C   0  0  0  0  0  0  0  0  0  0  0  0
    1.8375   -0.1789    0.0000 C   0  0  0  0  0  0  0  0  0  0  0  0
    0.0000   -0.5691    0.0000 C   0  0  0  0  0  0  0  0  0  0  0  0
    5.7077   -1.4147    0.0000 C   0  0  0  0  0  0  0  0  0  0  0  0
    4.5694   -2.0164    0.0000 C   0  0  0  0  0  0  0  0  0  0  0  0
    0.9757   -3.5775    0.0000 C   0  0  0  0  0  0  0  0  0  0  0  0
   16.2612   -2.0164    0.0000 C   0  0  0  0  0  0  0  0  0  0  0  0
   15.1230    0.0000    0.0000 C   0  0  0  0  0  0  0  0  0  0  0  0
    5.7077   -0.0488    0.0000 C   0  0  0  0  0  0  0  0  0  0  0  0
  1  2  1  0  0  0  0
  1  6  2  0  0  0  0
  1  7  1  0  0  0  0
  2  3  2  0  0  0  0
  3  5  1  0  0  0  0
  3 14  1  0  0  0  0
  4  5  2  0  0  0  0
  4 12  1  0  0  0  0
  7 11  1  0  0  0  0
  8 13  1  0  0  0  0
  8  9  1  0  0  0  0
  8 15  1  0  0  0  0
  8 16  1  0  0  0  0
  9 19  1  0  0  0  0
 10 18  1  0  0  0  0
 10 13  1  0  0  0  0
 11 20  1  0  0  0  0
 11 21  1  0  0  0  0
 12 17  1  0  0  0  0
 17 18  1  0  0  0  0
 17 22  1  0  0  0  0
M  END
> <ID>
6550

> <Formula>
C19H34O3

> <FW>
310.4715

> <DSSTox_CID>
12627

> <DSSTox_RID>
79012

> <DSSTox_GSID>
32627

> <DSSTox_FileID_Sort>
3694

> <TS_ChemName>
Methoprene

> <TS_ChemName_Synonyms>


> <TS_CASRN>
40596-69-8

> <CASRN_ChemName_Relationship>
primary

> <TS_Description>
single chemical compound

> <ChemNote>
stereochem

> <STRUCTURE_Shown>
tested chemical

> <STRUCTURE_Formula>
C19H34O3

> <STRUCTURE_MW>
310.4715

> <STRUCTURE_ChemType>
defined organic

> <STRUCTURE_DefinedOrganicForm>
parent

> <STRUCTURE_IUPAC>
propan-2-yl (2E,4E)-11-methoxy-3,7,11-trimethyldodeca-2,4-dienoate

> <STRUCTURE_SMILES>
CC(C)OC(=O)\C=C(/C)\C=C\CC(C)CCCC(C)(C)OC

> <STRUCTURE_SMILES_Desalt>
CC(C)OC(=O)\C=C(/C)\C=C\CC(C)CCCC(C)(C)OC

> <Substance_modify_yyyymmdd>
20080429

$$$$
