40601-76-1
ChemmineR-0915142007XD

 51 54  0  0  0  0  0  0  0  0  1 V2000
   10.1444   -6.9084    0.0000 N   0  0  0  0  0  0  0  0  0  0  0  0
   10.1594   -8.2480    0.0000 C   0  0  0  0  0  0  0  0  0  0  0  0
    9.0156   -8.9403    0.0000 N   0  0  0  0  0  0  0  0  0  0  0  0
    7.8416   -8.2781    0.0000 C   0  0  0  0  0  0  0  0  0  0  0  0
    7.8265   -6.9536    0.0000 N   0  0  0  0  0  0  0  0  0  0  0  0
    8.9704   -6.2763    0.0000 C   0  0  0  0  0  0  0  0  0  0  0  0
   11.3334   -8.8952    0.0000 O   0  0  0  0  0  0  0  0  0  0  0  0
    6.7128   -8.9704    0.0000 O   0  0  0  0  0  0  0  0  0  0  0  0
    8.9554   -4.9367    0.0000 O   0  0  0  0  0  0  0  0  0  0  0  0
   11.2883   -6.2161    0.0000 C   0  0  0  0  0  0  0  0  0  0  0  0
   11.6194   -4.9668    0.0000 C   0  0  0  0  0  0  0  0  0  0  0  0
   10.8066   -3.9283    0.0000 C   0  0  0  0  0  0  0  0  0  0  0  0
   12.9589   -4.7712    0.0000 C   0  0  0  0  0  0  0  0  0  0  0  0
   11.3033   -2.6791    0.0000 C   0  0  0  0  0  0  0  0  0  0  0  0
   13.4406   -3.5370    0.0000 C   0  0  0  0  0  0  0  0  0  0  0  0
   12.6278   -2.4985    0.0000 C   0  0  0  0  0  0  0  0  0  0  0  0
   13.1245   -1.2492    0.0000 C   0  0  0  0  0  0  0  0  0  0  0  0
   11.8903   -0.7526    0.0000 C   0  0  0  0  0  0  0  0  0  0  0  0
   14.3587   -1.7309    0.0000 C   0  0  0  0  0  0  0  0  0  0  0  0
   13.6061    0.0000    0.0000 C   0  0  0  0  0  0  0  0  0  0  0  0
   10.4755   -1.6255    0.0000 O   0  0  0  0  0  0  0  0  0  0  0  0
    9.4821   -4.1240    0.0000 C   0  0  0  0  0  0  0  0  0  0  0  0
   13.7867   -5.8247    0.0000 C   0  0  0  0  0  0  0  0  0  0  0  0
    9.0306  -10.2799    0.0000 C   0  0  0  0  0  0  0  0  0  0  0  0
    9.9788  -11.2431    0.0000 C   0  0  0  0  0  0  0  0  0  0  0  0
   11.2732  -10.8969    0.0000 C   0  0  0  0  0  0  0  0  0  0  0  0
    9.6176  -12.5225    0.0000 C   0  0  0  0  0  0  0  0  0  0  0  0
   12.2064  -11.8452    0.0000 C   0  0  0  0  0  0  0  0  0  0  0  0
   10.5508  -13.4707    0.0000 C   0  0  0  0  0  0  0  0  0  0  0  0
   11.8452  -13.1395    0.0000 C   0  0  0  0  0  0  0  0  0  0  0  0
   12.7783  -14.1028    0.0000 C   0  0  0  0  0  0  0  0  0  0  0  0
   13.7265  -13.1696    0.0000 C   0  0  0  0  0  0  0  0  0  0  0  0
   11.8151  -15.0360    0.0000 C   0  0  0  0  0  0  0  0  0  0  0  0
   13.7115  -15.0510    0.0000 C   0  0  0  0  0  0  0  0  0  0  0  0
   13.5008  -11.5291    0.0000 O   0  0  0  0  0  0  0  0  0  0  0  0
   11.6495   -9.6176    0.0000 C   0  0  0  0  0  0  0  0  0  0  0  0
    8.3232  -12.8536    0.0000 C   0  0  0  0  0  0  0  0  0  0  0  0
    6.6676   -6.3064    0.0000 C   0  0  0  0  0  0  0  0  0  0  0  0
    5.3431   -6.3064    0.0000 C   0  0  0  0  0  0  0  0  0  0  0  0
    4.6809   -7.4653    0.0000 C   0  0  0  0  0  0  0  0  0  0  0  0
    4.6658   -5.1625    0.0000 C   0  0  0  0  0  0  0  0  0  0  0  0
    3.3413   -7.4804    0.0000 C   0  0  0  0  0  0  0  0  0  0  0  0
    3.3263   -5.1625    0.0000 C   0  0  0  0  0  0  0  0  0  0  0  0
    2.6640   -6.3214    0.0000 C   0  0  0  0  0  0  0  0  0  0  0  0
    1.3395   -6.3214    0.0000 C   0  0  0  0  0  0  0  0  0  0  0  0
    1.3395   -7.6610    0.0000 C   0  0  0  0  0  0  0  0  0  0  0  0
    1.3395   -4.9819    0.0000 C   0  0  0  0  0  0  0  0  0  0  0  0
    0.0000   -6.3365    0.0000 C   0  0  0  0  0  0  0  0  0  0  0  0
    2.8145   -8.4888    0.0000 O   0  0  0  0  0  0  0  0  0  0  0  0
    5.3431   -8.6242    0.0000 C   0  0  0  0  0  0  0  0  0  0  0  0
    5.2528   -4.0186    0.0000 C   0  0  0  0  0  0  0  0  0  0  0  0
  1  2  1  0  0  0  0
  1  6  1  0  0  0  0
  1 10  1  0  0  0  0
  2  3  1  0  0  0  0
  2  7  2  0  0  0  0
  3  4  1  0  0  0  0
  3 24  1  0  0  0  0
  4  5  1  0  0  0  0
  4  8  2  0  0  0  0
  5  6  1  0  0  0  0
  5 38  1  0  0  0  0
  6  9  2  0  0  0  0
 10 11  1  0  0  0  0
 11 12  2  0  0  0  0
 11 13  1  0  0  0  0
 12 14  1  0  0  0  0
 12 22  1  0  0  0  0
 13 15  2  0  0  0  0
 13 23  1  0  0  0  0
 14 16  2  0  0  0  0
 14 21  1  0  0  0  0
 15 16  1  0  0  0  0
 16 17  1  0  0  0  0
 17 18  1  0  0  0  0
 17 19  1  0  0  0  0
 17 20  1  0  0  0  0
 24 25  1  0  0  0  0
 25 26  2  0  0  0  0
 25 27  1  0  0  0  0
 26 28  1  0  0  0  0
 26 36  1  0  0  0  0
 27 29  2  0  0  0  0
 27 37  1  0  0  0  0
 28 30  2  0  0  0  0
 28 35  1  0  0  0  0
 29 30  1  0  0  0  0
 30 31  1  0  0  0  0
 31 32  1  0  0  0  0
 31 33  1  0  0  0  0
 31 34  1  0  0  0  0
 38 39  1  0  0  0  0
 39 40  2  0  0  0  0
 39 41  1  0  0  0  0
 40 42  1  0  0  0  0
 40 50  1  0  0  0  0
 41 43  2  0  0  0  0
 41 51  1  0  0  0  0
 42 44  2  0  0  0  0
 42 49  1  0  0  0  0
 43 44  1  0  0  0  0
 44 45  1  0  0  0  0
 45 46  1  0  0  0  0
 45 47  1  0  0  0  0
 45 48  1  0  0  0  0
M  END
> <ID>
5581

> <Formula>
C42H57N3O6

> <FW>
699.9185

> <DSSTox_CID>
8008

> <DSSTox_RID>
78637

> <DSSTox_GSID>
28008

> <DSSTox_FileID_Sort>
3319

> <TS_ChemName>
1,3,5-Tris(4-tert-butyl-3-hydroxy-2,6-dimethylbenzyl)-1,3,5-triazinane-2,4,6-trione

> <TS_ChemName_Synonyms>


> <TS_CASRN>
40601-76-1

> <CASRN_ChemName_Relationship>
primary

> <TS_Description>
single chemical compound

> <ChemNote>


> <STRUCTURE_Shown>
tested chemical

> <STRUCTURE_Formula>
C42H57N3O6

> <STRUCTURE_MW>
699.9185

> <STRUCTURE_ChemType>
defined organic

> <STRUCTURE_DefinedOrganicForm>
parent

> <STRUCTURE_IUPAC>
1,3,5-tris(4-tert-butyl-3-hydroxy-2,6-dimethylbenzyl)-1,3,5-triazinane-2,4,6-trione

> <STRUCTURE_SMILES>
CC(C)(C)c4cc(C)c(CN3C(=O)N(Cc1c(C)c(O)c(cc1C)C(C)(C)C)C(=O)N(Cc2c(C)cc(c(O)c2C)C(C)(C)C)C3=O)c(C)c4O

> <STRUCTURE_SMILES_Desalt>
CC(C)(C)c4cc(C)c(CN3C(=O)N(Cc1c(C)c(O)c(cc1C)C(C)(C)C)C(=O)N(Cc2c(C)cc(c(O)c2C)C(C)(C)C)C3=O)c(C)c4O

> <Substance_modify_yyyymmdd>
20080429

$$$$
