4062-60-6
ChemmineR-0915142007XD

 12 11  0  0  0  0  0  0  0  0  1 V2000
    3.4894   -1.8871    0.0000 C   0  0  0  0  0  0  0  0  0  0  0  0
    4.6444   -1.2445    0.0000 C   0  0  0  0  0  0  0  0  0  0  0  0
    2.3426   -1.1794    0.0000 N   0  0  0  0  0  0  0  0  0  0  0  0
    5.7913   -1.9521    0.0000 N   0  0  0  0  0  0  0  0  0  0  0  0
    1.1794   -1.7732    0.0000 C   0  0  0  0  0  0  0  0  0  0  0  0
    1.1469   -3.1315    0.0000 C   0  0  0  0  0  0  0  0  0  0  0  0
    0.0651   -1.0818    0.0000 C   0  0  0  0  0  0  0  0  0  0  0  0
    0.0000   -2.4239    0.0000 C   0  0  0  0  0  0  0  0  0  0  0  0
    6.9707   -1.3258    0.0000 C   0  0  0  0  0  0  0  0  0  0  0  0
    6.9870    0.0000    0.0000 C   0  0  0  0  0  0  0  0  0  0  0  0
    8.0851   -2.0172    0.0000 C   0  0  0  0  0  0  0  0  0  0  0  0
    8.1339   -0.7076    0.0000 C   0  0  0  0  0  0  0  0  0  0  0  0
  1  2  1  0  0  0  0
  1  3  1  0  0  0  0
  2  4  1  0  0  0  0
  3  5  1  0  0  0  0
  4  9  1  0  0  0  0
  5  6  1  0  0  0  0
  5  7  1  0  0  0  0
  5  8  1  0  0  0  0
  9 10  1  0  0  0  0
  9 11  1  0  0  0  0
  9 12  1  0  0  0  0
M  END
> <ID>
10320

> <Formula>
C10H24N2

> <FW>
172.311

> <DSSTox_CID>
24667

> <DSSTox_RID>
80386

> <DSSTox_GSID>
44667

> <DSSTox_FileID_Sort>
5068

> <TS_ChemName>
N,N'-Di-tert-butylethane-1,2-diamine

> <TS_ChemName_Synonyms>
N,N'-Di-tert-butylethane-1,2-diamine (1,2-Ethanediamine, N,N'-bis(1,1-dimethylethyl)-)

> <TS_CASRN>
4062-60-6

> <CASRN_ChemName_Relationship>
primary

> <TS_Description>
single chemical compound

> <ChemNote>


> <STRUCTURE_Shown>
tested chemical

> <STRUCTURE_Formula>
C10H24N2

> <STRUCTURE_MW>
172.311

> <STRUCTURE_ChemType>
defined organic

> <STRUCTURE_DefinedOrganicForm>
parent

> <STRUCTURE_IUPAC>
N,N'-di-tert-butylethane-1,2-diamine

> <STRUCTURE_SMILES>
CC(C)(C)NCCNC(C)(C)C

> <STRUCTURE_SMILES_Desalt>
CC(C)(C)NCCNC(C)(C)C

> <Substance_modify_yyyymmdd>
20091116

$$$$
