40666-16-8
ChemmineR-0915142007XD

 32 33  0  0  1  0  0  0  0  0  1 V2000
   10.2190   -3.2309    0.0000 O   0  0  0  0  0  0  0  0  0  0  0  0
   10.7635   -4.4470    0.0000 C   0  0  0  0  0  0  0  0  0  0  0  0
   12.0704   -4.5922    0.0000 C   0  0  0  0  0  0  0  0  0  0  0  0
   12.8690   -3.5213    0.0000 O   0  0  0  0  0  0  0  0  0  0  0  0
   14.1940   -3.6483    0.0000 C   0  0  0  0  0  0  0  0  0  0  0  0
   14.9564   -2.5774    0.0000 C   0  0  0  0  0  0  0  0  0  0  0  0
   16.2995   -2.7045    0.0000 C   0  0  0  0  0  0  0  0  0  0  0  0
   16.8441   -3.9388    0.0000 C   0  0  0  0  0  0  0  0  0  0  0  0
   16.0454   -5.0097    0.0000 C   0  0  0  0  0  0  0  0  0  0  0  0
   14.7204   -4.8644    0.0000 C   0  0  0  0  0  0  0  0  0  0  0  0
   17.0800   -1.6336    0.0000 C   0  0  0  0  0  0  0  0  0  0  0  0
   18.1509   -2.4322    0.0000 F   0  0  0  0  0  0  0  0  0  0  0  0
   16.0091   -0.8531    0.0000 F   0  0  0  0  0  0  0  0  0  0  0  0
   17.8605   -0.5627    0.0000 F   0  0  0  0  0  0  0  0  0  0  0  0
    9.9830   -5.5179    0.0000 C   0  0  0  0  0  0  0  0  0  0  0  0
    8.6580   -5.3908    0.0000 C   0  0  0  0  0  0  0  0  0  0  0  0
    7.8775   -6.4617    0.0000 C   0  0  0  0  0  0  0  0  0  0  0  0
    8.2768   -7.7323    0.0000 C   0  0  0  0  0  0  0  0  0  0  0  0
    9.5474   -8.1316    0.0000 O   0  0  0  0  0  0  0  0  0  0  0  0
    7.2059   -8.5128    0.0000 C   0  0  0  0  0  0  0  0  0  0  0  0
    6.1350   -7.7323    0.0000 C   0  0  0  0  0  0  0  0  0  0  0  0
    4.8644   -8.1316    0.0000 O   0  0  0  0  0  0  0  0  0  0  0  0
    6.5525   -6.4617    0.0000 C   0  0  0  0  0  0  0  0  0  0  0  0
    5.7720   -5.3908    0.0000 C   0  0  0  0  0  0  0  0  0  0  0  0
    6.3165   -4.1747    0.0000 C   0  0  0  0  0  0  0  0  0  0  0  0
    5.5360   -3.1038    0.0000 C   0  0  0  0  0  0  0  0  0  0  0  0
    4.1929   -3.2309    0.0000 C   0  0  0  0  0  0  0  0  0  0  0  0
    3.4124   -2.1600    0.0000 C   0  0  0  0  0  0  0  0  0  0  0  0
    2.1055   -2.3052    0.0000 C   0  0  0  0  0  0  0  0  0  0  0  0
    1.3069   -1.2161    0.0000 C   0  0  0  0  0  0  0  0  0  0  0  0
    0.0000   -1.3432    0.0000 O   0  0  0  0  0  0  0  0  0  0  0  0
    1.8514    0.0000    0.0000 O   0  0  0  0  0  0  0  0  0  0  0  0
  2  1  1  1  0  0  0
  2  3  1  0  0  0  0
  2 15  1  0  0  0  0
  3  4  1  0  0  0  0
  4  5  1  0  0  0  0
  5  6  2  0  0  0  0
  5 10  1  0  0  0  0
  6  7  1  0  0  0  0
  7  8  2  0  0  0  0
  7 11  1  0  0  0  0
  8  9  1  0  0  0  0
  9 10  2  0  0  0  0
 11 12  1  0  0  0  0
 11 13  1  0  0  0  0
 11 14  1  0  0  0  0
 15 16  2  0  0  0  0
 17 16  1  1  0  0  0
 17 18  1  0  0  0  0
 17 23  1  0  0  0  0
 18 19  1  6  0  0  0
 18 20  1  0  0  0  0
 20 21  1  0  0  0  0
 21 22  1  6  0  0  0
 21 23  1  0  0  0  0
 23 24  1  6  0  0  0
 24 25  1  0  0  0  0
 25 26  2  0  0  0  0
 26 27  1  0  0  0  0
 27 28  1  0  0  0  0
 28 29  1  0  0  0  0
 29 30  1  0  0  0  0
 30 31  1  0  0  0  0
 30 32  2  0  0  0  0
M  END
> <ID>
11426

> <Formula>
C23H29F3O6

> <FW>
458.468

> <DSSTox_CID>
26122

> <DSSTox_RID>
81358

> <DSSTox_GSID>
46122

> <DSSTox_FileID_Sort>
6039

> <TS_ChemName>
Fluprostenol

> <TS_ChemName_Synonyms>


> <TS_CASRN>
40666-16-8

> <CASRN_ChemName_Relationship>
primary

> <TS_Description>
single chemical compound

> <ChemNote>
stereochem

> <STRUCTURE_Shown>
tested chemical

> <STRUCTURE_Formula>
C23H29F3O6

> <STRUCTURE_MW>
458.468

> <STRUCTURE_ChemType>
defined organic

> <STRUCTURE_DefinedOrganicForm>
parent

> <STRUCTURE_IUPAC>
(5Z)-7-[(1R,2R,3R,5S)-3,5-dihydroxy-2-{(1E,3R)-3-hydroxy-4-[3-(trifluoromethyl)phenoxy]but-1-en-1-yl}cyclopentyl]hept-5-enoic acid

> <STRUCTURE_SMILES>
O[C@H]2C[C@@H](O)[C@H](/C=C/[C@@H](O)COc1cc(ccc1)C(F)(F)F)[C@H]2C\C=C/CCCC(=O)O

> <STRUCTURE_SMILES_Desalt>
O[C@H]2C[C@@H](O)[C@H](/C=C/[C@@H](O)COc1cc(ccc1)C(F)(F)F)[C@H]2C\C=C/CCCC(=O)O

> <Substance_modify_yyyymmdd>
20110818

$$$$
