40716-66-3
ChemmineR-0915142007XD

 16 15  0  0  0  0  0  0  0  0  1 V2000
   11.2213   -0.0123    0.0000 C   0  0  0  0  0  0  0  0  0  0  0  0
   10.0979   -0.6543    0.0000 C   0  0  0  0  0  0  0  0  0  0  0  0
    5.6168   -0.6543    0.0000 C   0  0  0  0  0  0  0  0  0  0  0  0
    1.1234   -0.6543    0.0000 C   0  0  0  0  0  0  0  0  0  0  0  0
    2.2467   -0.0123    0.0000 C   0  0  0  0  0  0  0  0  0  0  0  0
    6.7278   -0.0123    0.0000 C   0  0  0  0  0  0  0  0  0  0  0  0
   12.3447   -0.6543    0.0000 C   0  0  0  0  0  0  0  0  0  0  0  0
   11.2213   -1.3085    0.0000 O   0  0  0  0  0  0  0  0  0  0  0  0
    3.3701   -0.6543    0.0000 C   0  0  0  0  0  0  0  0  0  0  0  0
    7.8512   -0.6543    0.0000 C   0  0  0  0  0  0  0  0  0  0  0  0
    4.4935   -0.0123    0.0000 C   0  0  0  0  0  0  0  0  0  0  0  0
    8.9746   -0.0123    0.0000 C   0  0  0  0  0  0  0  0  0  0  0  0
    1.1234   -1.9628    0.0000 C   0  0  0  0  0  0  0  0  0  0  0  0
    0.0000    0.0000    0.0000 C   0  0  0  0  0  0  0  0  0  0  0  0
    5.6168   -1.9628    0.0000 C   0  0  0  0  0  0  0  0  0  0  0  0
    8.6289   -1.7036    0.0000 C   0  0  0  0  0  0  0  0  0  0  0  0
  1  2  1  0  0  0  0
  1  7  2  0  0  0  0
  2  8  1  0  0  0  0
  2 12  1  0  0  0  0
  2 16  1  0  0  0  0
  3  6  2  0  0  0  0
  3 11  1  0  0  0  0
  3 15  1  0  0  0  0
  4  5  2  0  0  0  0
  4 13  1  0  0  0  0
  4 14  1  0  0  0  0
  5  9  1  0  0  0  0
  6 10  1  0  0  0  0
  9 11  1  0  0  0  0
 10 12  1  0  0  0  0
M  END
> <ID>
7966

> <Formula>
C15H26O

> <FW>
222.3663

> <DSSTox_CID>
20783

> <DSSTox_RID>
79598

> <DSSTox_GSID>
40783

> <DSSTox_FileID_Sort>
4280

> <TS_ChemName>
trans-Nerolidol

> <TS_ChemName_Synonyms>


> <TS_CASRN>
40716-66-3

> <CASRN_ChemName_Relationship>
primary

> <TS_Description>
single chemical compound

> <ChemNote>
stereochem

> <STRUCTURE_Shown>
tested chemical

> <STRUCTURE_Formula>
C15H26O

> <STRUCTURE_MW>
222.3663

> <STRUCTURE_ChemType>
defined organic

> <STRUCTURE_DefinedOrganicForm>
parent

> <STRUCTURE_IUPAC>
(6E)-3,7,11-trimethyldodeca-1,6,10-trien-3-ol

> <STRUCTURE_SMILES>
C/C(C)=C\CCC(\C)=C\CCC(C)(O)C=C

> <STRUCTURE_SMILES_Desalt>
C/C(C)=C\CCC(\C)=C\CCC(C)(O)C=C

> <Substance_modify_yyyymmdd>
20080429

$$$$
