4074-88-8
ChemmineR-0915142007XD

 15 14  0  0  0  0  0  0  0  0  1 V2000
    1.1508    0.0000    0.0000 O   0  0  0  0  0  0  0  0  0  0  0  0
    1.1508   -1.3349    0.0000 C   0  0  0  0  0  0  0  0  0  0  0  0
    2.3016   -2.0024    0.0000 O   0  0  0  0  0  0  0  0  0  0  0  0
    3.4524   -1.3349    0.0000 C   0  0  0  0  0  0  0  0  0  0  0  0
    4.6031   -2.0024    0.0000 C   0  0  0  0  0  0  0  0  0  0  0  0
    5.7539   -1.3349    0.0000 O   0  0  0  0  0  0  0  0  0  0  0  0
    6.9047   -2.0024    0.0000 C   0  0  0  0  0  0  0  0  0  0  0  0
    8.0555   -1.3349    0.0000 C   0  0  0  0  0  0  0  0  0  0  0  0
    9.2063   -2.0024    0.0000 O   0  0  0  0  0  0  0  0  0  0  0  0
   10.3571   -1.3349    0.0000 C   0  0  0  0  0  0  0  0  0  0  0  0
   10.3571    0.0000    0.0000 O   0  0  0  0  0  0  0  0  0  0  0  0
   11.5078   -2.0024    0.0000 C   0  0  0  0  0  0  0  0  0  0  0  0
   11.5078   -3.3258    0.0000 C   0  0  0  0  0  0  0  0  0  0  0  0
    0.0000   -2.0024    0.0000 C   0  0  0  0  0  0  0  0  0  0  0  0
    0.0000   -3.3258    0.0000 C   0  0  0  0  0  0  0  0  0  0  0  0
  1  2  2  0  0  0  0
  2  3  1  0  0  0  0
  2 14  1  0  0  0  0
  3  4  1  0  0  0  0
  4  5  1  0  0  0  0
  5  6  1  0  0  0  0
  6  7  1  0  0  0  0
  7  8  1  0  0  0  0
  8  9  1  0  0  0  0
  9 10  1  0  0  0  0
 10 11  2  0  0  0  0
 10 12  1  0  0  0  0
 12 13  2  0  0  0  0
 14 15  2  0  0  0  0
M  END
> <ID>
3985

> <Formula>
C10H14O5

> <FW>
214.2152

> <DSSTox_CID>
5045

> <DSSTox_RID>
77637

> <DSSTox_GSID>
25045

> <DSSTox_FileID_Sort>
2320

> <TS_ChemName>
Diethylene glycol diacrylate

> <TS_ChemName_Synonyms>
Diethylene glycol diacrylate (2-Propenoic acid, oxydi-2,1-ethanediyl ester)

> <TS_CASRN>
4074-88-8

> <CASRN_ChemName_Relationship>
primary

> <TS_Description>
single chemical compound

> <ChemNote>


> <STRUCTURE_Shown>
tested chemical

> <STRUCTURE_Formula>
C10H14O5

> <STRUCTURE_MW>
214.2152

> <STRUCTURE_ChemType>
defined organic

> <STRUCTURE_DefinedOrganicForm>
parent

> <STRUCTURE_IUPAC>
oxydiethane-2,1-diyl bisprop-2-enoate

> <STRUCTURE_SMILES>
O=C(OCCOCCOC(=O)C=C)C=C

> <STRUCTURE_SMILES_Desalt>
O=C(OCCOCCOC(=O)C=C)C=C

> <Substance_modify_yyyymmdd>
20080429

$$$$
