4075-81-4
ChemmineR-0915142007XD

 11  8  0  0  0  0  0  0  0  0  2 V2000
    7.2198   -1.6576    0.0000 C    0  0  0  0  0  0  0  0  0  0  0  0
    8.5367   -1.6576    0.0000 C    0  0  0  0  0  0  0  0  0  0  0  0
    9.2089   -0.4973    0.0000 C    0  0  0  0  0  0  0  0  0  0  0  0
    6.5476   -0.4973    0.0000 O    0  0  0  0  0  0  0  0  0  0  0  0
    6.5476   -2.7903    0.0000 O    0  5  0  0  0  0  0  0  0  0  0  0
    3.7665   -1.9707    0.0000 Ca   0  2  0  0  0  0  0  0  0  0  0  0
    1.9983   -1.1603    0.0000 C    0  0  0  0  0  0  0  0  0  0  0  0
    0.6723   -1.1603    0.0000 C    0  0  0  0  0  0  0  0  0  0  0  0
    0.0000   -2.3114    0.0000 C    0  0  0  0  0  0  0  0  0  0  0  0
    2.6614    0.0000    0.0000 O    0  0  0  0  0  0  0  0  0  0  0  0
    2.6614   -2.3114    0.0000 O    0  5  0  0  0  0  0  0  0  0  0  0
  1  2  1  0  0  0  0
  1  5  1  0  0  0  0
  1  4  2  0  0  0  0
  2  3  1  0  0  0  0
  7  8  1  0  0  0  0
  7 11  1  0  0  0  0
  7 10  2  0  0  0  0
  8  9  1  0  0  0  0
M  END
> <ID>
5247

> <Formula>
C6H10CaO4

> <FW>
186.2192 (73.0711+40.0769+73.0711)

> <DSSTox_CID>
7556

> <DSSTox_RID>
78503

> <DSSTox_GSID>
27556

> <DSSTox_FileID_Sort>
3186

> <TS_ChemName>
Calcium propionate

> <TS_ChemName_Synonyms>
Calcium dipropanoate

> <TS_CASRN>
4075-81-4

> <CASRN_ChemName_Relationship>
primary

> <TS_Description>
single chemical compound

> <ChemNote>
parent [79-09-4]

> <STRUCTURE_Shown>
tested chemical

> <STRUCTURE_Formula>
C6H10CaO4

> <STRUCTURE_MW>
186.2192

> <STRUCTURE_ChemType>
defined organic

> <STRUCTURE_DefinedOrganicForm>
salt

> <STRUCTURE_IUPAC>
calcium dipropanoate

> <STRUCTURE_SMILES>
[Ca+2].CCC(=O)[O-].[O-]C(=O)CC

> <STRUCTURE_SMILES_Desalt>
CCC(=O)O

> <Substance_modify_yyyymmdd>
20080429

$$$$
