40796-97-2
ChemmineR-0915142007XD

 20 22  0  0  1  0  0  0  0  0  1 V2000
    1.5990   -2.1787    0.0000 C    0  0  0  0  0  0  0  0  0  0  0  0
    3.3195   -3.4691    0.0000 C    0  0  0  0  0  0  0  0  0  0  0  0
    2.4873   -2.7772    0.0000 C    0  0  0  0  0  0  0  0  0  0  0  0
    0.9070   -2.7772    0.0000 C    0  0  0  0  0  0  0  0  0  0  0  0
    0.6732   -1.4494    0.0000 N    0  0  0  0  0  0  0  0  0  0  0  0
    3.0951   -2.1413    0.0000 C    0  0  0  0  0  0  0  0  0  0  0  0
    0.0655   -3.9366    0.0000 C    0  0  0  0  0  0  0  0  0  0  0  0
    1.0660   -3.3195    0.0000 C    0  0  0  0  0  0  0  0  0  0  0  0
    0.0000   -0.3086    0.0000 C    0  0  0  0  0  0  0  0  0  0  0  0
    3.9834   -4.6286    0.0000 O    0  0  0  0  0  0  0  0  0  0  0  0
    5.3205   -4.6286    0.0000 C    0  0  0  0  0  0  0  0  0  0  0  0
    5.9938   -5.7881    0.0000 O    0  0  0  0  0  0  0  0  0  0  0  0
    5.9938   -3.4691    0.0000 C    0  0  0  0  0  0  0  0  0  0  0  0
    5.3392   -2.3096    0.0000 C    0  0  0  0  0  0  0  0  0  0  0  0
    7.3309   -3.4691    0.0000 C    0  0  0  0  0  0  0  0  0  0  0  0
    5.9938   -1.1595    0.0000 C    0  0  0  0  0  0  0  0  0  0  0  0
    8.0135   -2.3190    0.0000 C    0  0  0  0  0  0  0  0  0  0  0  0
    7.3309   -1.1595    0.0000 C    0  0  0  0  0  0  0  0  0  0  0  0
    5.3392    0.0000    0.0000 Cl   0  0  0  0  0  0  0  0  0  0  0  0
    9.3507   -2.3190    0.0000 Cl   0  0  0  0  0  0  0  0  0  0  0  0
  1  5  1  1  0  0  0
  1  6  1  0  0  0  0
  1  8  1  0  0  0  0
  2  3  1  0  0  0  0
  2  6  1  0  0  0  0
  2 10  1  6  0  0  0
  3  4  1  0  0  0  0
  4  5  1  6  0  0  0
  4  7  1  0  0  0  0
  5  9  1  0  0  0  0
  7  8  1  0  0  0  0
 10 11  1  0  0  0  0
 11 12  2  0  0  0  0
 11 13  1  0  0  0  0
 13 14  1  0  0  0  0
 13 15  2  0  0  0  0
 14 16  2  0  0  0  0
 15 17  1  0  0  0  0
 16 18  1  0  0  0  0
 16 19  1  0  0  0  0
 17 18  2  0  0  0  0
 17 20  1  0  0  0  0
M  END
> <ID>
9500

> <Formula>
C15H17Cl2NO2

> <FW>
314.207

> <DSSTox_CID>
22632

> <DSSTox_RID>
80063

> <DSSTox_GSID>
42632

> <DSSTox_FileID_Sort>
4745

> <TS_ChemName>
MDL 72222

> <TS_ChemName_Synonyms>


> <TS_CASRN>
40796-97-2

> <CASRN_ChemName_Relationship>
primary

> <TS_Description>
single chemical compound

> <ChemNote>
stereochem

> <STRUCTURE_Shown>
tested chemical

> <STRUCTURE_Formula>
C15H17Cl2NO2

> <STRUCTURE_MW>
314.207

> <STRUCTURE_ChemType>
defined organic

> <STRUCTURE_DefinedOrganicForm>
parent

> <STRUCTURE_IUPAC>
(3-endo)-8-methyl-8-azabicyclo[3.2.1]oct-3-yl 3,5-dichlorobenzoate

> <STRUCTURE_SMILES>
CN3[C@H]1CC[C@@H]3C[C@@H](C1)OC(=O)c2cc(Cl)cc(Cl)c2

> <STRUCTURE_SMILES_Desalt>
CN3[C@H]1CC[C@@H]3C[C@@H](C1)OC(=O)c2cc(Cl)cc(Cl)c2

> <Substance_modify_yyyymmdd>
20081003

$$$$
