4083-64-1
ChemmineR-0915142007XD

 13 13  0  0  0  0  0  0  0  0  1 V2000
    7.3199   -2.4798    0.0000 C   0  0  0  0  0  0  0  0  0  0  0  0
    6.6421   -1.3316    0.0000 N   0  0  0  0  0  0  0  0  0  0  0  0
    7.9737   -3.6360    0.0000 O   0  0  0  0  0  0  0  0  0  0  0  0
    3.9869   -1.3316    0.0000 C   0  0  0  0  0  0  0  0  0  0  0  0
    3.3330   -2.4798    0.0000 C   0  0  0  0  0  0  0  0  0  0  0  0
    2.0014   -2.4798    0.0000 C   0  0  0  0  0  0  0  0  0  0  0  0
    1.3316   -1.3316    0.0000 C   0  0  0  0  0  0  0  0  0  0  0  0
    2.0014   -0.1754    0.0000 C   0  0  0  0  0  0  0  0  0  0  0  0
    3.3330   -0.1754    0.0000 C   0  0  0  0  0  0  0  0  0  0  0  0
    5.3185   -1.3316    0.0000 S   0  0  0  0  0  0  0  0  0  0  0  0
    5.3185   -2.6632    0.0000 O   0  0  0  0  0  0  0  0  0  0  0  0
    5.3185    0.0000    0.0000 O   0  0  0  0  0  0  0  0  0  0  0  0
    0.0000   -1.3316    0.0000 C   0  0  0  0  0  0  0  0  0  0  0  0
  1  2  2  0  0  0  0
  1  3  2  0  0  0  0
  2 10  1  0  0  0  0
  4  5  2  0  0  0  0
  4  9  1  0  0  0  0
  4 10  1  0  0  0  0
  5  6  1  0  0  0  0
  6  7  2  0  0  0  0
  7  8  1  0  0  0  0
  7 13  1  0  0  0  0
  8  9  2  0  0  0  0
 10 11  2  0  0  0  0
 10 12  2  0  0  0  0
M  END
> <ID>
5248

> <Formula>
C8H7NO3S

> <FW>
197.2111

> <DSSTox_CID>
7558

> <DSSTox_RID>
78504

> <DSSTox_GSID>
27558

> <DSSTox_FileID_Sort>
3187

> <TS_ChemName>
4-Methylbenzenesulfonyl isocyanate

> <TS_ChemName_Synonyms>


> <TS_CASRN>
4083-64-1

> <CASRN_ChemName_Relationship>
primary

> <TS_Description>
single chemical compound

> <ChemNote>


> <STRUCTURE_Shown>
tested chemical

> <STRUCTURE_Formula>
C8H7NO3S

> <STRUCTURE_MW>
197.2111

> <STRUCTURE_ChemType>
defined organic

> <STRUCTURE_DefinedOrganicForm>
parent

> <STRUCTURE_IUPAC>
4-methylbenzenesulfonyl isocyanate

> <STRUCTURE_SMILES>
Cc1ccc(cc1)S(=O)(=O)/N=C=O

> <STRUCTURE_SMILES_Desalt>
Cc1ccc(cc1)S(=O)(=O)/N=C=O

> <Substance_modify_yyyymmdd>
20080429

$$$$
