4093-29-2
ChemmineR-0915142007XD

 16 16  0  0  0  0  0  0  0  0  1 V2000
    4.6536   -8.0651    0.0000 C   0  0  0  0  0  0  0  0  0  0  0  0
    3.9922   -6.9118    0.0000 O   0  0  0  0  0  0  0  0  0  0  0  0
    4.6536   -5.7585    0.0000 C   0  0  0  0  0  0  0  0  0  0  0  0
    5.9843   -5.7585    0.0000 O   0  0  0  0  0  0  0  0  0  0  0  0
    3.9922   -4.6052    0.0000 C   0  0  0  0  0  0  0  0  0  0  0  0
    4.6536   -3.4599    0.0000 C   0  0  0  0  0  0  0  0  0  0  0  0
    5.9843   -3.4599    0.0000 O   0  0  0  0  0  0  0  0  0  0  0  0
    6.6537   -2.3066    0.0000 C   0  0  0  0  0  0  0  0  0  0  0  0
    3.9922   -2.3066    0.0000 C   0  0  0  0  0  0  0  0  0  0  0  0
    2.6615   -2.3066    0.0000 C   0  0  0  0  0  0  0  0  0  0  0  0
    1.9921   -1.1533    0.0000 N   0  0  0  0  0  0  0  0  0  0  0  0
    0.6613   -1.1533    0.0000 C   0  0  0  0  0  0  0  0  0  0  0  0
    0.0000    0.0000    0.0000 C   0  0  0  0  0  0  0  0  0  0  0  0
    0.0000   -2.3066    0.0000 O   0  0  0  0  0  0  0  0  0  0  0  0
    1.9921   -3.4599    0.0000 C   0  0  0  0  0  0  0  0  0  0  0  0
    2.6615   -4.6052    0.0000 C   0  0  0  0  0  0  0  0  0  0  0  0
  1  2  1  0  0  0  0
  2  3  1  0  0  0  0
  3  4  2  0  0  0  0
  3  5  1  0  0  0  0
  5  6  2  0  0  0  0
  5 16  1  0  0  0  0
  6  7  1  0  0  0  0
  6  9  1  0  0  0  0
  7  8  1  0  0  0  0
  9 10  2  0  0  0  0
 10 11  1  0  0  0  0
 10 15  1  0  0  0  0
 11 12  1  0  0  0  0
 12 13  1  0  0  0  0
 12 14  2  0  0  0  0
 15 16  2  0  0  0  0
M  END
> <ID>
16139

> <Formula>
C11H13NO4

> <FW>
223.2252

> <DSSTox_CID>
31528

> <DSSTox_RID>
97413

> <DSSTox_GSID>
57739

> <DSSTox_FileID_Sort>
8480

> <TS_ChemName>
Methyl 4-acetamido-o-anisate

> <TS_ChemName_Synonyms>


> <TS_CASRN>
4093-29-2

> <CASRN_ChemName_Relationship>
primary

> <TS_Description>
single chemical compound

> <ChemNote>


> <STRUCTURE_Shown>
tested chemical

> <STRUCTURE_Formula>
C11H13NO4

> <STRUCTURE_MW>
223.2252

> <STRUCTURE_ChemType>
defined organic

> <STRUCTURE_DefinedOrganicForm>
parent

> <STRUCTURE_IUPAC>
methyl 4-acetamido-2-methoxybenzoate

> <STRUCTURE_SMILES>
COc1cc(ccc1C(=O)OC)NC(C)=O

> <STRUCTURE_SMILES_Desalt>
COc1cc(ccc1C(=O)OC)NC(C)=O

> <Substance_modify_yyyymmdd>
20131018

$$$$
