4093-35-0
ChemmineR-0915142007XD

 20 20  0  0  0  0  0  0  0  0  1 V2000
   11.3015   -2.2942    0.0000 C    0  0  0  0  0  0  0  0  0  0  0  0
    9.9679   -2.2942    0.0000 C    0  0  0  0  0  0  0  0  0  0  0  0
    9.3124   -3.4470    0.0000 N    0  0  0  0  0  0  0  0  0  0  0  0
    9.9679   -4.5997    0.0000 C    0  0  0  0  0  0  0  0  0  0  0  0
   11.3015   -4.5997    0.0000 C    0  0  0  0  0  0  0  0  0  0  0  0
    7.9789   -3.4470    0.0000 C    0  0  0  0  0  0  0  0  0  0  0  0
    7.3121   -2.2942    0.0000 C    0  0  0  0  0  0  0  0  0  0  0  0
    5.9785   -2.2942    0.0000 N    0  0  0  0  0  0  0  0  0  0  0  0
    5.3230   -3.4470    0.0000 C    0  0  0  0  0  0  0  0  0  0  0  0
    5.9785   -4.5997    0.0000 O    0  0  0  0  0  0  0  0  0  0  0  0
    3.9894   -3.4470    0.0000 C    0  0  0  0  0  0  0  0  0  0  0  0
    3.3226   -4.5997    0.0000 C    0  0  0  0  0  0  0  0  0  0  0  0
    1.9891   -4.5997    0.0000 C    0  0  0  0  0  0  0  0  0  0  0  0
    1.3336   -3.4470    0.0000 C    0  0  0  0  0  0  0  0  0  0  0  0
    0.0000   -3.4470    0.0000 N    0  0  0  0  0  0  0  0  0  0  0  0
    1.9891   -2.2942    0.0000 C    0  0  0  0  0  0  0  0  0  0  0  0
    3.3226   -2.2942    0.0000 C    0  0  0  0  0  0  0  0  0  0  0  0
    3.9894   -1.1415    0.0000 O    0  0  0  0  0  0  0  0  0  0  0  0
    3.3226    0.0000    0.0000 C    0  0  0  0  0  0  0  0  0  0  0  0
    1.3336   -5.7525    0.0000 Br   0  0  0  0  0  0  0  0  0  0  0  0
  1  2  1  0  0  0  0
  2  3  1  0  0  0  0
  3  4  1  0  0  0  0
  3  6  1  0  0  0  0
  4  5  1  0  0  0  0
  6  7  1  0  0  0  0
  7  8  1  0  0  0  0
  8  9  1  0  0  0  0
  9 10  2  0  0  0  0
  9 11  1  0  0  0  0
 11 12  2  0  0  0  0
 11 17  1  0  0  0  0
 12 13  1  0  0  0  0
 13 14  2  0  0  0  0
 13 20  1  0  0  0  0
 14 15  1  0  0  0  0
 14 16  1  0  0  0  0
 16 17  2  0  0  0  0
 17 18  1  0  0  0  0
 18 19  1  0  0  0  0
M  END
> <ID>
10912

> <Formula>
C14H22BrN3O2

> <FW>
344.2474

> <DSSTox_CID>
25383

> <DSSTox_RID>
80841

> <DSSTox_GSID>
45383

> <DSSTox_FileID_Sort>
5522

> <TS_ChemName>
Bromopride

> <TS_ChemName_Synonyms>


> <TS_CASRN>
4093-35-0

> <CASRN_ChemName_Relationship>
primary

> <TS_Description>
single chemical compound

> <ChemNote>


> <STRUCTURE_Shown>
tested chemical

> <STRUCTURE_Formula>
C14H22BrN3O2

> <STRUCTURE_MW>
344.2474

> <STRUCTURE_ChemType>
defined organic

> <STRUCTURE_DefinedOrganicForm>
parent

> <STRUCTURE_IUPAC>
4-amino-5-bromo-N-[2-(diethylamino)ethyl]-2-methoxybenzamide

> <STRUCTURE_SMILES>
Nc1cc(OC)c(cc1Br)C(=O)NCCN(CC)CC

> <STRUCTURE_SMILES_Desalt>
Nc1cc(OC)c(cc1Br)C(=O)NCCN(CC)CC

> <Substance_modify_yyyymmdd>
20100107

$$$$
