4098-71-9
ChemmineR-0915142007XD

 16 16  0  0  0  0  0  0  0  0  1 V2000
    3.6304   -3.3320    0.0000 C   0  0  0  0  0  0  0  0  0  0  0  0
    3.6304   -4.6582    0.0000 C   0  0  0  0  0  0  0  0  0  0  0  0
    2.4783   -2.6606    0.0000 C   0  0  0  0  0  0  0  0  0  0  0  0
    2.4783   -5.3212    0.0000 C   0  0  0  0  0  0  0  0  0  0  0  0
    1.3262   -3.3320    0.0000 C   0  0  0  0  0  0  0  0  0  0  0  0
    1.3262   -4.6582    0.0000 C   0  0  0  0  0  0  0  0  0  0  0  0
    2.4783   -1.3345    0.0000 N   0  0  0  0  0  0  0  0  0  0  0  0
    4.9648   -4.6582    0.0000 C   0  0  0  0  0  0  0  0  0  0  0  0
    5.6279   -5.8103    0.0000 N   0  0  0  0  0  0  0  0  0  0  0  0
    3.6304   -0.6714    0.0000 C   0  0  0  0  0  0  0  0  0  0  0  0
    6.9624   -5.8103    0.0000 C   0  0  0  0  0  0  0  0  0  0  0  0
    4.3017   -5.8103    0.0000 C   0  0  0  0  0  0  0  0  0  0  0  0
    0.0000   -4.6582    0.0000 C   0  0  0  0  0  0  0  0  0  0  0  0
    0.6631   -5.8103    0.0000 C   0  0  0  0  0  0  0  0  0  0  0  0
    4.7825    0.0000    0.0000 O   0  0  0  0  0  0  0  0  0  0  0  0
    8.2885   -5.8103    0.0000 O   0  0  0  0  0  0  0  0  0  0  0  0
  1  2  1  0  0  0  0
  1  3  1  0  0  0  0
  2  4  1  0  0  0  0
  2  8  1  0  0  0  0
  2 12  1  0  0  0  0
  3  5  1  0  0  0  0
  3  7  1  0  0  0  0
  4  6  1  0  0  0  0
  5  6  1  0  0  0  0
  6 13  1  0  0  0  0
  6 14  1  0  0  0  0
  7 10  2  0  0  0  0
  8  9  1  0  0  0  0
  9 11  2  0  0  0  0
 10 15  2  0  0  0  0
 11 16  2  0  0  0  0
M  END
> <ID>
3379

> <Formula>
C12H18N2O2

> <FW>
222.2835

> <DSSTox_CID>
3826

> <DSSTox_RID>
77200

> <DSSTox_GSID>
23826

> <DSSTox_FileID_Sort>
1883

> <TS_ChemName>
Isophorone diisocyanate

> <TS_ChemName_Synonyms>
Isophorone diisocyanate (Cyclohexane, 5-isocyanato-1-(isocyanatomethyl)-1,3,3-trimethyl-)

> <TS_CASRN>
4098-71-9

> <CASRN_ChemName_Relationship>
primary

> <TS_Description>
single chemical compound

> <ChemNote>


> <STRUCTURE_Shown>
tested chemical

> <STRUCTURE_Formula>
C12H18N2O2

> <STRUCTURE_MW>
222.2835

> <STRUCTURE_ChemType>
defined organic

> <STRUCTURE_DefinedOrganicForm>
parent

> <STRUCTURE_IUPAC>
5-isocyanato-1-(isocyanatomethyl)-1,3,3-trimethylcyclohexane

> <STRUCTURE_SMILES>
O=C=N\C1CC(C)(C)CC(C)(C1)C\N=C=O

> <STRUCTURE_SMILES_Desalt>
O=C=N\C1CC(C)(C)CC(C)(C1)C\N=C=O

> <Substance_modify_yyyymmdd>
20080429

$$$$
