4107-98-6
ChemmineR-0915142007XD

 13 13  0  0  0  0  0  0  0  0  1 V2000
    1.9872   -2.2925    0.0000 N   0  0  0  0  0  0  0  0  0  0  0  0
    3.3220   -2.2925    0.0000 C   0  0  0  0  0  0  0  0  0  0  0  0
    3.9984   -1.1373    0.0000 C   0  0  0  0  0  0  0  0  0  0  0  0
    3.9984   -3.4477    0.0000 C   0  0  0  0  0  0  0  0  0  0  0  0
    5.3272   -1.1373    0.0000 C   0  0  0  0  0  0  0  0  0  0  0  0
    5.3272   -3.4477    0.0000 C   0  0  0  0  0  0  0  0  0  0  0  0
    5.9856   -2.2925    0.0000 C   0  0  0  0  0  0  0  0  0  0  0  0
    1.3348   -1.1373    0.0000 C   0  0  0  0  0  0  0  0  0  0  0  0
    0.0000   -1.1373    0.0000 C   0  0  0  0  0  0  0  0  0  0  0  0
    1.9872    0.0000    0.0000 C   0  0  0  0  0  0  0  0  0  0  0  0
    1.3348   -3.4477    0.0000 C   0  0  0  0  0  0  0  0  0  0  0  0
    1.9872   -4.6029    0.0000 C   0  0  0  0  0  0  0  0  0  0  0  0
    0.0000   -3.4477    0.0000 C   0  0  0  0  0  0  0  0  0  0  0  0
  1  2  1  0  0  0  0
  1  8  1  0  0  0  0
  1 11  1  0  0  0  0
  2  3  2  0  0  0  0
  2  4  1  0  0  0  0
  3  5  1  0  0  0  0
  4  6  2  0  0  0  0
  5  7  2  0  0  0  0
  6  7  1  0  0  0  0
  8  9  1  0  0  0  0
  8 10  1  0  0  0  0
 11 12  1  0  0  0  0
 11 13  1  0  0  0  0
M  END
> <ID>
9119

> <Formula>
C12H19N

> <FW>
177.286

> <DSSTox_CID>
22189

> <DSSTox_RID>
79949

> <DSSTox_GSID>
42189

> <DSSTox_FileID_Sort>
4631

> <TS_ChemName>
N,N-Diisopropylaniline

> <TS_ChemName_Synonyms>


> <TS_CASRN>
4107-98-6

> <CASRN_ChemName_Relationship>
primary

> <TS_Description>
single chemical compound

> <ChemNote>


> <STRUCTURE_Shown>
tested chemical

> <STRUCTURE_Formula>
C12H19N

> <STRUCTURE_MW>
177.286

> <STRUCTURE_ChemType>
defined organic

> <STRUCTURE_DefinedOrganicForm>
parent

> <STRUCTURE_IUPAC>
N,N-di(propan-2-yl)aniline

> <STRUCTURE_SMILES>
CC(C)N(C(C)C)c1ccccc1

> <STRUCTURE_SMILES_Desalt>
CC(C)N(C(C)C)c1ccccc1

> <Substance_modify_yyyymmdd>
20080825

$$$$
