41078-02-8
ChemmineR-0915142007XD

 14 15  0  0  0  0  0  0  0  0  1 V2000
    3.4477   -3.3396    0.0000 C   0  0  0  0  0  0  0  0  0  0  0  0
    2.3005   -4.0124    0.0000 N   0  0  0  0  0  0  0  0  0  0  0  0
    3.4477   -1.9942    0.0000 C   0  0  0  0  0  0  0  0  0  0  0  0
    1.1472   -3.3396    0.0000 C   0  0  0  0  0  0  0  0  0  0  0  0
    1.1472   -1.9822    0.0000 N   0  0  0  0  0  0  0  0  0  0  0  0
    2.3005   -1.3395    0.0000 C   0  0  0  0  0  0  0  0  0  0  0  0
    4.7151   -3.7361    0.0000 N   0  0  0  0  0  0  0  0  0  0  0  0
    4.7151   -1.5977    0.0000 N   0  0  0  0  0  0  0  0  0  0  0  0
    5.4659   -2.6849    0.0000 C   0  0  0  0  0  0  0  0  0  0  0  0
    0.0000   -4.0604    0.0000 O   0  0  0  0  0  0  0  0  0  0  0  0
    2.3005    0.0000    0.0000 O   0  0  0  0  0  0  0  0  0  0  0  0
    2.3005   -5.3338    0.0000 C   0  0  0  0  0  0  0  0  0  0  0  0
    3.4357   -6.0065    0.0000 C   0  0  0  0  0  0  0  0  0  0  0  0
    4.6010   -5.3518    0.0000 C   0  0  0  0  0  0  0  0  0  0  0  0
  1  2  1  0  0  0  0
  1  3  2  0  0  0  0
  1  7  1  0  0  0  0
  2  4  1  0  0  0  0
  2 12  1  0  0  0  0
  3  6  1  0  0  0  0
  3  8  1  0  0  0  0
  4 10  2  0  0  0  0
  4  5  1  0  0  0  0
  5  6  1  0  0  0  0
  6 11  2  0  0  0  0
  7  9  2  0  0  0  0
  8  9  1  0  0  0  0
 12 13  1  0  0  0  0
 13 14  1  0  0  0  0
M  END
> <ID>
10803

> <Formula>
C8H10N4O2

> <FW>
194.1906

> <DSSTox_CID>
25186

> <DSSTox_RID>
80733

> <DSSTox_GSID>
45186

> <DSSTox_FileID_Sort>
5414

> <TS_ChemName>
Enprofylline

> <TS_ChemName_Synonyms>


> <TS_CASRN>
41078-02-8

> <CASRN_ChemName_Relationship>
primary

> <TS_Description>
single chemical compound

> <ChemNote>
tautomers

> <STRUCTURE_Shown>
tested chemical

> <STRUCTURE_Formula>
C8H10N4O2

> <STRUCTURE_MW>
194.1906

> <STRUCTURE_ChemType>
defined organic

> <STRUCTURE_DefinedOrganicForm>
parent

> <STRUCTURE_IUPAC>
3-propyl-3,7-dihydro-1H-purine-2,6-dione

> <STRUCTURE_SMILES>
O=C2NC(=O)N(CCC)c1ncnc12

> <STRUCTURE_SMILES_Desalt>
O=C2NC(=O)N(CCC)c1ncnc12

> <Substance_modify_yyyymmdd>
20100107

$$$$
