41122-70-7
ChemmineR-0915142007XD

 20 21  0  0  0  0  0  0  0  0  1 V2000
    0.0000   -0.6717    0.0000 C   0  0  0  0  0  0  0  0  0  0  0  0
    1.1532   -1.3307    0.0000 C   0  0  0  0  0  0  0  0  0  0  0  0
    1.1532   -2.6613    0.0000 C   0  0  0  0  0  0  0  0  0  0  0  0
    2.3065   -3.3330    0.0000 C   0  0  0  0  0  0  0  0  0  0  0  0
    2.3065   -4.6636    0.0000 C   0  0  0  0  0  0  0  0  0  0  0  0
    3.4597   -5.3226    0.0000 C   0  0  0  0  0  0  0  0  0  0  0  0
    4.6130   -4.6636    0.0000 C   0  0  0  0  0  0  0  0  0  0  0  0
    4.6130   -3.3330    0.0000 C   0  0  0  0  0  0  0  0  0  0  0  0
    5.7662   -2.6613    0.0000 C   0  0  0  0  0  0  0  0  0  0  0  0
    6.9068   -3.3330    0.0000 C   0  0  0  0  0  0  0  0  0  0  0  0
    6.9068   -4.6636    0.0000 C   0  0  0  0  0  0  0  0  0  0  0  0
    5.7662   -5.3226    0.0000 C   0  0  0  0  0  0  0  0  0  0  0  0
    8.0600   -2.6613    0.0000 C   0  0  0  0  0  0  0  0  0  0  0  0
    8.0600   -1.3307    0.0000 C   0  0  0  0  0  0  0  0  0  0  0  0
    9.2132   -0.6717    0.0000 C   0  0  0  0  0  0  0  0  0  0  0  0
   10.3665   -1.3307    0.0000 C   0  0  0  0  0  0  0  0  0  0  0  0
   11.5197   -0.6717    0.0000 C   0  0  0  0  0  0  0  0  0  0  0  0
   12.6729    0.0000    0.0000 N   0  0  0  0  0  0  0  0  0  0  0  0
   10.3665   -2.6613    0.0000 C   0  0  0  0  0  0  0  0  0  0  0  0
    9.2132   -3.3330    0.0000 C   0  0  0  0  0  0  0  0  0  0  0  0
  1  2  1  0  0  0  0
  2  3  1  0  0  0  0
  3  4  1  0  0  0  0
  4  5  1  0  0  0  0
  5  6  1  0  0  0  0
  6  7  1  0  0  0  0
  7  8  2  0  0  0  0
  7 12  1  0  0  0  0
  8  9  1  0  0  0  0
  9 10  2  0  0  0  0
 10 11  1  0  0  0  0
 10 13  1  0  0  0  0
 11 12  2  0  0  0  0
 13 14  2  0  0  0  0
 13 20  1  0  0  0  0
 14 15  1  0  0  0  0
 15 16  2  0  0  0  0
 16 17  1  0  0  0  0
 16 19  1  0  0  0  0
 17 18  3  0  0  0  0
 19 20  2  0  0  0  0
M  END
> <ID>
4177

> <Formula>
C19H21N

> <FW>
263.3767

> <DSSTox_CID>
5404

> <DSSTox_RID>
77774

> <DSSTox_GSID>
25404

> <DSSTox_FileID_Sort>
2457

> <TS_ChemName>
4-Hexyl-4'-cyanobiphenyl

> <TS_ChemName_Synonyms>


> <TS_CASRN>
41122-70-7

> <CASRN_ChemName_Relationship>
primary

> <TS_Description>
single chemical compound

> <ChemNote>


> <STRUCTURE_Shown>
tested chemical

> <STRUCTURE_Formula>
C19H21N

> <STRUCTURE_MW>
263.3767

> <STRUCTURE_ChemType>
defined organic

> <STRUCTURE_DefinedOrganicForm>
parent

> <STRUCTURE_IUPAC>
4'-hexylbiphenyl-4-carbonitrile

> <STRUCTURE_SMILES>
N#Cc1ccc(cc1)c2ccc(CCCCCC)cc2

> <STRUCTURE_SMILES_Desalt>
N#Cc1ccc(cc1)c2ccc(CCCCCC)cc2

> <Substance_modify_yyyymmdd>
20080429

$$$$
