41136-22-5
ChemmineR-0915142007XD

 31 33  0  0  1  0  0  0  0  0  2 V2000
    5.9993   -3.5643    0.0000 N    0  0  0  0  0  0  0  0  0  0  0  0
    4.4348   -3.5643    0.0000 C    0  0  0  0  0  0  0  0  0  0  0  0
    5.9993   -2.1174    0.0000 C    0  0  0  0  0  0  0  0  0  0  0  0
    4.4348   -2.1174    0.0000 C    0  0  0  0  0  0  0  0  0  0  0  0
    7.1285   -4.2230    0.0000 C    0  0  0  0  0  0  0  0  0  0  0  0
    0.4117   -5.3641    0.0000 N    0  0  0  0  0  0  0  0  0  0  0  0
    7.1285   -1.4351    0.0000 S    0  0  0  0  0  0  0  0  0  0  0  0
    0.0000   -4.0936    0.0000 N    0  0  0  0  0  0  0  0  0  0  0  0
    1.1410   -3.2937    0.0000 N    0  0  0  0  0  0  0  0  0  0  0  0
    8.3519   -3.5525    0.0000 C    0  0  0  0  0  0  0  0  0  0  0  0
    1.7292   -5.3641    0.0000 N    0  0  0  0  0  0  0  0  0  0  0  0
   10.7046   -2.1880    0.0000 C    0  0  0  0  0  0  0  0  0  0  0  0
    9.6694   -1.4351    0.0000 S    0  0  0  0  0  0  0  0  0  0  0  0
   11.7633   -1.4351    0.0000 N    0  0  0  0  0  0  0  0  0  0  0  0
    3.3525   -2.1174    0.0000 N    0  0  0  0  0  0  0  0  0  0  0  0
   11.3751   -0.1412    0.0000 N    0  0  0  0  0  0  0  0  0  0  0  0
    2.2703   -4.1642    0.0000 C    0  0  0  0  0  0  0  0  0  0  0  0
    7.1285   -5.5523    0.0000 C    0  0  0  0  0  0  0  0  0  0  0  0
    2.2233   -1.3410    0.0000 C    0  0  0  0  0  0  0  0  0  0  0  0
    1.1410   -1.9645    0.0000 C    0  0  0  0  0  0  0  0  0  0  0  0
   10.0458   -0.1412    0.0000 C    0  0  0  0  0  0  0  0  0  0  0  0
    8.3519   -2.1174    0.0000 C    0  0  0  0  0  0  0  0  0  0  0  0
    3.6584   -4.5053    0.0000 O    0  0  0  0  0  0  0  0  0  0  0  0
   10.7046   -3.4937    0.0000 S    0  0  0  0  0  0  0  0  0  0  0  0
    9.5165   -4.1524    0.0000 C    0  0  0  0  0  0  0  0  0  0  0  0
    8.2696   -6.2463    0.0000 O    0  0  0  0  0  0  0  0  0  0  0  0
    2.2233    0.0000    0.0000 O    0  0  0  0  0  0  0  0  0  0  0  0
    6.0698   -6.2463    0.0000 O    0  5  0  0  0  0  0  0  0  0  0  0
    4.4348   -1.0352    0.0000 H    0  0  0  0  0  0  0  0  0  0  0  0
    5.9993   -1.0822    0.0000 H    0  0  0  0  0  0  0  0  0  0  0  0
    7.0815   -7.5285    0.0000 Na   0  3  0  0  0  0  0  0  0  0  0  0
  1  2  1  0  0  0  0
  1  3  1  0  0  0  0
  1  5  1  0  0  0  0
  2 23  2  0  0  0  0
  2  4  1  0  0  0  0
  3  4  1  0  0  0  0
  3  7  1  0  0  0  0
  3 30  1  6  0  0  0
  4 15  1  1  0  0  0
  4 29  1  6  0  0  0
  5 10  2  0  0  0  0
  5 18  1  0  0  0  0
  6  8  2  0  0  0  0
  6 11  1  0  0  0  0
  7 22  1  0  0  0  0
  8  9  1  0  0  0  0
  9 20  1  0  0  0  0
  9 17  1  0  0  0  0
 10 22  1  0  0  0  0
 10 25  1  0  0  0  0
 11 17  2  0  0  0  0
 12 24  1  0  0  0  0
 12 13  1  0  0  0  0
 12 14  2  0  0  0  0
 13 21  1  0  0  0  0
 14 16  1  0  0  0  0
 15 19  1  0  0  0  0
 16 21  2  0  0  0  0
 18 26  2  0  0  0  0
 18 28  1  0  0  0  0
 19 20  1  0  0  0  0
 19 27  2  0  0  0  0
 24 25  1  0  0  0  0
M  END
> <ID>
13592

> <Formula>
C13H11N8NaO4S3

> <FW>
462.4624 (439.4732+22.9892)

> <DSSTox_CID>
28520

> <DSSTox_RID>
82792

> <DSSTox_GSID>
48594

> <DSSTox_FileID_Sort>
7469

> <TS_ChemName>
Ceftezole sodium

> <TS_ChemName_Synonyms>


> <TS_CASRN>
41136-22-5

> <CASRN_ChemName_Relationship>
primary

> <TS_Description>
single chemical compound

> <ChemNote>
stereochem; parent [26973-24-0]

> <STRUCTURE_Shown>
tested chemical

> <STRUCTURE_Formula>
C13H11N8NaO4S3

> <STRUCTURE_MW>
462.4624

> <STRUCTURE_ChemType>
defined organic

> <STRUCTURE_DefinedOrganicForm>
salt

> <STRUCTURE_IUPAC>
sodium (6R,7R)-8-oxo-7-[(1H-tetrazol-1-ylacetyl)amino]-3-[(1,3,4-thiadiazol-2-ylsulfanyl)methyl]-5-thia-1-azabicyclo[4.2.0]oct-2-ene-2-carboxylate

> <STRUCTURE_SMILES>
[Na+].[O-]C(=O)C=3N4C(=O)[C@@H](NC(=O)Cn1cnnn1)[C@H]4SCC=3CSc2nncs2

> <STRUCTURE_SMILES_Desalt>
O=C(O)C=3N4C(=O)[C@@H](NC(=O)Cn1cnnn1)[C@H]4SCC=3CSc2nncs2

> <Substance_modify_yyyymmdd>
20111014

$$$$
