41198-08-7
ChemmineR-0915142007XD

 18 18  0  0  0  0  0  0  0  0  1 V2000
    1.1537   -3.3320    0.0000 C    0  0  0  0  0  0  0  0  0  0  0  0
    1.1537   -2.0008    0.0000 C    0  0  0  0  0  0  0  0  0  0  0  0
    2.3074   -1.3312    0.0000 C    0  0  0  0  0  0  0  0  0  0  0  0
    3.4611   -2.0008    0.0000 C    0  0  0  0  0  0  0  0  0  0  0  0
    3.4611   -3.3320    0.0000 C    0  0  0  0  0  0  0  0  0  0  0  0
    2.3074   -3.9855    0.0000 C    0  0  0  0  0  0  0  0  0  0  0  0
    4.6067   -1.3312    0.0000 O    0  0  0  0  0  0  0  0  0  0  0  0
    5.7604   -2.0008    0.0000 P    0  0  0  0  0  0  0  0  0  0  0  0
    6.9140   -2.6543    0.0000 S    0  0  0  0  0  0  0  0  0  0  0  0
    6.4219   -0.8471    0.0000 O    0  0  0  0  0  0  0  0  0  0  0  0
    5.0907   -3.1545    0.0000 O    0  0  0  0  0  0  0  0  0  0  0  0
    2.3074    0.0000    0.0000 Cl   0  0  0  0  0  0  0  0  0  0  0  0
    0.0000   -3.9855    0.0000 Br   0  0  0  0  0  0  0  0  0  0  0  0
    6.9140   -3.9855    0.0000 C    0  0  0  0  0  0  0  0  0  0  0  0
    5.7604   -4.3082    0.0000 C    0  0  0  0  0  0  0  0  0  0  0  0
    8.0677   -4.6551    0.0000 C    0  0  0  0  0  0  0  0  0  0  0  0
    8.0677   -5.9863    0.0000 C    0  0  0  0  0  0  0  0  0  0  0  0
    5.0907   -5.4457    0.0000 C    0  0  0  0  0  0  0  0  0  0  0  0
  1 13  1  0  0  0  0
  1  6  1  0  0  0  0
  1  2  2  0  0  0  0
  2  3  1  0  0  0  0
  3 12  1  0  0  0  0
  3  4  2  0  0  0  0
  4  5  1  0  0  0  0
  4  7  1  0  0  0  0
  5  6  2  0  0  0  0
  7  8  1  0  0  0  0
  8  9  1  0  0  0  0
  8 10  2  0  0  0  0
  8 11  1  0  0  0  0
  9 14  1  0  0  0  0
 11 15  1  0  0  0  0
 14 16  1  0  0  0  0
 15 18  1  0  0  0  0
 16 17  1  0  0  0  0
M  END
> <ID>
6467

> <Formula>
C11H15BrClO3PS

> <FW>
373.6308

> <DSSTox_CID>
12464

> <DSSTox_RID>
78950

> <DSSTox_GSID>
32464

> <DSSTox_FileID_Sort>
3632

> <TS_ChemName>
Profenofos

> <TS_ChemName_Synonyms>
Profenofos (O-(4-Bromo-2-chlorophenyl)-O-ethyl-S-propyl phosphorothioate)

> <TS_CASRN>
41198-08-7

> <CASRN_ChemName_Relationship>
primary

> <TS_Description>
single chemical compound

> <ChemNote>


> <STRUCTURE_Shown>
tested chemical

> <STRUCTURE_Formula>
C11H15BrClO3PS

> <STRUCTURE_MW>
373.6308

> <STRUCTURE_ChemType>
defined organic

> <STRUCTURE_DefinedOrganicForm>
parent

> <STRUCTURE_IUPAC>
O-(4-bromo-2-chlorophenyl) O-ethyl S-propyl phosphorothioate

> <STRUCTURE_SMILES>
Brc1cc(Cl)c(OP(=O)(OCC)SCCC)cc1

> <STRUCTURE_SMILES_Desalt>
Brc1cc(Cl)c(OP(=O)(OCC)SCCC)cc1

> <Substance_modify_yyyymmdd>
20080429

$$$$
