412009-62-2
ChemmineR-0915142007XD

 24 23  0  0  0  0  0  0  0  0  2 V2000
   16.0989   -4.2164    0.0000 C   0  0  0  0  0  0  0  0  0  0  0  0
   14.8096   -4.2164    0.0000 S   0  0  0  0  0  0  0  0  0  0  0  0
   14.8096   -2.8051    0.0000 O   0  0  0  0  0  0  0  0  0  0  0  0
   13.5377   -4.2164    0.0000 O   0  5  0  0  0  0  0  0  0  0  0  0
   14.8096   -5.4883    0.0000 O   0  0  0  0  0  0  0  0  0  0  0  0
   16.7610   -5.3663    0.0000 F   0  0  0  0  0  0  0  0  0  0  0  0
   16.7610   -3.0839    0.0000 F   0  0  0  0  0  0  0  0  0  0  0  0
   17.4230   -4.2164    0.0000 F   0  0  0  0  0  0  0  0  0  0  0  0
   13.6248   -1.0628    0.0000 N   0  3  0  0  0  0  0  0  0  0  0  0
   11.5340   -1.7075    0.0000 N   0  0  0  0  0  0  0  0  0  0  0  0
   12.8408   -2.1779    0.0000 C   0  0  0  0  0  0  0  0  0  0  0  0
   12.8408    0.0000    0.0000 C   0  0  0  0  0  0  0  0  0  0  0  0
   11.5340   -0.4007    0.0000 C   0  0  0  0  0  0  0  0  0  0  0  0
   10.4887   -2.5089    0.0000 C   0  0  0  0  0  0  0  0  0  0  0  0
    9.2342   -1.9862    0.0000 C   0  0  0  0  0  0  0  0  0  0  0  0
    8.1888   -2.7528    0.0000 C   0  0  0  0  0  0  0  0  0  0  0  0
    6.9344   -2.1779    0.0000 C   0  0  0  0  0  0  0  0  0  0  0  0
    5.8367   -2.9619    0.0000 C   0  0  0  0  0  0  0  0  0  0  0  0
    4.5823   -2.4392    0.0000 C   0  0  0  0  0  0  0  0  0  0  0  0
    3.5369   -3.2058    0.0000 C   0  0  0  0  0  0  0  0  0  0  0  0
    2.2824   -2.7006    0.0000 C   0  0  0  0  0  0  0  0  0  0  0  0
    1.1673   -3.4149    0.0000 C   0  0  0  0  0  0  0  0  0  0  0  0
    0.0000   -2.8922    0.0000 C   0  0  0  0  0  0  0  0  0  0  0  0
   14.9490   -1.0628    0.0000 C   0  0  0  0  0  0  0  0  0  0  0  0
  1  2  1  0  0  0  0
  1  6  1  0  0  0  0
  1  7  1  0  0  0  0
  1  8  1  0  0  0  0
  2  3  2  0  0  0  0
  2  4  1  0  0  0  0
  2  5  2  0  0  0  0
  9 11  2  0  0  0  0
  9 12  1  0  0  0  0
  9 24  1  0  0  0  0
 10 11  1  0  0  0  0
 10 13  1  0  0  0  0
 10 14  1  0  0  0  0
 12 13  2  0  0  0  0
 14 15  1  0  0  0  0
 15 16  1  0  0  0  0
 16 17  1  0  0  0  0
 17 18  1  0  0  0  0
 18 19  1  0  0  0  0
 19 20  1  0  0  0  0
 20 21  1  0  0  0  0
 21 22  1  0  0  0  0
 22 23  1  0  0  0  0
M  END
> <ID>
12991

> <Formula>
C15H27F3N2O3S

> <FW>
372.4467 (149.0697+223.3770)

> <DSSTox_CID>
27892

> <DSSTox_RID>
82645

> <DSSTox_GSID>
47916

> <DSSTox_FileID_Sort>
7322

> <TS_ChemName>
1-Decyl-3-methylimidazolium trifluoromethanesulfonate

> <TS_ChemName_Synonyms>


> <TS_CASRN>
412009-62-2

> <CASRN_ChemName_Relationship>
primary

> <TS_Description>
single chemical compound

> <ChemNote>
ammonium; parent [81994-88-9]

> <STRUCTURE_Shown>
tested chemical

> <STRUCTURE_Formula>
C15H27F3N2O3S

> <STRUCTURE_MW>
372.4467

> <STRUCTURE_ChemType>
defined organic

> <STRUCTURE_DefinedOrganicForm>
salt

> <STRUCTURE_IUPAC>
1-decyl-3-methyl-1H-imidazol-3-ium trifluoromethanesulfonate

> <STRUCTURE_SMILES>
FC(F)(F)S([O-])(=O)=O.C[n+]1ccn(CCCCCCCCCC)c1

> <STRUCTURE_SMILES_Desalt>
C[n+]1ccn(CCCCCCCCCC)c1

> <Substance_modify_yyyymmdd>
20110419

$$$$
