412009-61-1
ChemmineR-0915142007XD

 13 12  0  0  0  0  0  0  0  0  2 V2000
    0.0000   -2.9775    0.0000 C   0  0  0  0  0  0  0  0  0  0  0  0
    4.9682   -1.6844    0.0000 C   0  0  0  0  0  0  0  0  0  0  0  0
    0.2892   -1.6844    0.0000 C   0  0  0  0  0  0  0  0  0  0  0  0
    3.2838    0.0000    0.0000 C   0  0  0  0  0  0  0  0  0  0  0  0
    1.9567    0.0000    0.0000 C   0  0  0  0  0  0  0  0  0  0  0  0
    2.6089   -2.0531    0.0000 C   0  0  0  0  0  0  0  0  0  0  0  0
    3.7035   -1.2647    0.0000 N   0  3  0  0  0  0  0  0  0  0  0  0
    1.5370   -1.2647    0.0000 N   0  0  0  0  0  0  0  0  0  0  0  0
    1.1400   -4.3444    0.0000 O   0  5  0  0  0  0  0  0  0  0  0  0
    2.4671   -5.6715    0.0000 O   0  0  0  0  0  0  0  0  0  0  0  0
    2.4671   -3.0116    0.0000 O   0  0  0  0  0  0  0  0  0  0  0  0
    3.7942   -4.3444    0.0000 O   0  0  0  0  0  0  0  0  0  0  0  0
    2.4671   -4.3444    0.0000 S   0  0  0  0  0  0  0  0  0  0  0  0
  1  3  1  0  0  0  0
  2  7  1  0  0  0  0
  3  8  1  0  0  0  0
  4  5  2  0  0  0  0
  4  7  1  0  0  0  0
  5  8  1  0  0  0  0
  6  7  2  0  0  0  0
  6  8  1  0  0  0  0
  9 13  1  0  0  0  0
 10 13  1  0  0  0  0
 11 13  2  0  0  0  0
 12 13  2  0  0  0  0
M  END
> <ID>
14163

> <Formula>
C6H12N2O4S

> <FW>
208.2355 (111.1644+97.0711)

> <DSSTox_CID>
29156

> <DSSTox_RID>
83375

> <DSSTox_GSID>
49300

> <DSSTox_FileID_Sort>
8050

> <TS_ChemName>
1-Ethyl-3-methylimidazolium hydrogen sulfate

> <TS_ChemName_Synonyms>


> <TS_CASRN>
412009-61-1

> <CASRN_ChemName_Relationship>
primary

> <TS_Description>
single chemical compound

> <ChemNote>


> <STRUCTURE_Shown>
tested chemical

> <STRUCTURE_Formula>
C6H12N2O4S

> <STRUCTURE_MW>
208.2355

> <STRUCTURE_ChemType>
defined organic

> <STRUCTURE_DefinedOrganicForm>
complex

> <STRUCTURE_IUPAC>
1-ethyl-3-methyl-1H-imidazol-3-ium hydrogen sulfate

> <STRUCTURE_SMILES>
C[n+]1ccn(CC)c1.[O-]S(=O)(=O)O

> <STRUCTURE_SMILES_Desalt>
C[n+]1ccn(CC)c1

> <Substance_modify_yyyymmdd>
20111204

$$$$
