41253-21-8
ChemmineR-0915142007XD

  6  5  0  0  0  0  0  0  0  0  2 V2000
    0.0000   -1.7627    0.0000 C    0  0  0  0  0  0  0  0  0  0  0  0
    1.0722   -0.9783    0.0000 N    0  5  0  0  0  0  0  0  0  0  0  0
    0.3998   -3.0288    0.0000 N    0  0  0  0  0  0  0  0  0  0  0  0
    2.1474   -1.7627    0.0000 N    0  0  0  0  0  0  0  0  0  0  0  0
    1.7294   -3.0288    0.0000 C    0  0  0  0  0  0  0  0  0  0  0  0
    2.4048    0.0000    0.0000 Na   0  3  0  0  0  0  0  0  0  0  0  0
  1  2  1  0  0  0  0
  1  3  2  0  0  0  0
  2  4  1  0  0  0  0
  3  5  1  0  0  0  0
  4  5  2  0  0  0  0
M  END
> <ID>
6582

> <Formula>
C2H2N3Na

> <FW>
91.0471 (68.0579+22.9892)

> <DSSTox_CID>
12722

> <DSSTox_RID>
79035

> <DSSTox_GSID>
32722

> <DSSTox_FileID_Sort>
3717

> <TS_ChemName>
1,2,4-Triazole, sodium salt

> <TS_ChemName_Synonyms>


> <TS_CASRN>
41253-21-8

> <CASRN_ChemName_Relationship>
primary

> <TS_Description>
single chemical compound

> <ChemNote>


> <STRUCTURE_Shown>
tested chemical

> <STRUCTURE_Formula>
C2H2N3Na

> <STRUCTURE_MW>
91.0471

> <STRUCTURE_ChemType>
defined organic

> <STRUCTURE_DefinedOrganicForm>
salt

> <STRUCTURE_IUPAC>
sodium 1,2,4-triazol-1-ide

> <STRUCTURE_SMILES>
[Na+].[n-]1cncn1

> <STRUCTURE_SMILES_Desalt>
c1ncnn1

> <Substance_modify_yyyymmdd>
20080429

$$$$
