4128-17-0
ChemmineR-0915142007XD

 19 18  0  0  0  0  0  0  0  0  1 V2000
   10.3725   -1.3066    0.0000 C   0  0  0  0  0  0  0  0  0  0  0  0
    9.2110   -1.9842    0.0000 C   0  0  0  0  0  0  0  0  0  0  0  0
   11.5178   -1.9842    0.0000 C   0  0  0  0  0  0  0  0  0  0  0  0
   10.3725    0.0000    0.0000 C   0  0  0  0  0  0  0  0  0  0  0  0
    8.0657   -1.3066    0.0000 C   0  0  0  0  0  0  0  0  0  0  0  0
   12.6792   -1.3066    0.0000 C   0  0  0  0  0  0  0  0  0  0  0  0
    6.9042   -1.9842    0.0000 C   0  0  0  0  0  0  0  0  0  0  0  0
   13.8246   -1.9842    0.0000 C   0  0  0  0  0  0  0  0  0  0  0  0
    5.7589   -1.3066    0.0000 C   0  0  0  0  0  0  0  0  0  0  0  0
   14.9860   -1.3066    0.0000 C   0  0  0  0  0  0  0  0  0  0  0  0
    4.6136   -1.9842    0.0000 C   0  0  0  0  0  0  0  0  0  0  0  0
    5.7589    0.0000    0.0000 C   0  0  0  0  0  0  0  0  0  0  0  0
   16.1313   -1.9842    0.0000 C   0  0  0  0  0  0  0  0  0  0  0  0
   14.9860    0.0000    0.0000 C   0  0  0  0  0  0  0  0  0  0  0  0
    3.4521   -1.3066    0.0000 C   0  0  0  0  0  0  0  0  0  0  0  0
    2.3068   -1.9842    0.0000 O   0  0  0  0  0  0  0  0  0  0  0  0
    1.1453   -1.3066    0.0000 C   0  0  0  0  0  0  0  0  0  0  0  0
    0.0000   -1.9842    0.0000 C   0  0  0  0  0  0  0  0  0  0  0  0
    1.1453    0.0000    0.0000 O   0  0  0  0  0  0  0  0  0  0  0  0
  1  2  2  0  0  0  0
  1  3  1  0  0  0  0
  1  4  1  0  0  0  0
  2  5  1  0  0  0  0
  3  6  1  0  0  0  0
  5  7  1  0  0  0  0
  6  8  1  0  0  0  0
  7  9  1  0  0  0  0
  8 10  2  0  0  0  0
  9 11  2  0  0  0  0
  9 12  1  0  0  0  0
 10 13  1  0  0  0  0
 10 14  1  0  0  0  0
 11 15  1  0  0  0  0
 15 16  1  0  0  0  0
 16 17  1  0  0  0  0
 17 18  1  0  0  0  0
 17 19  2  0  0  0  0
M  END
> <ID>
12260

> <Formula>
C17H28O2

> <FW>
264.403

> <DSSTox_CID>
27110

> <DSSTox_RID>
82120

> <DSSTox_GSID>
47110

> <DSSTox_FileID_Sort>
6801

> <TS_ChemName>
trans,trans-Farnesyl acetate

> <TS_ChemName_Synonyms>


> <TS_CASRN>
4128-17-0

> <CASRN_ChemName_Relationship>
primary

> <TS_Description>
single chemical compound

> <ChemNote>
stereochem

> <STRUCTURE_Shown>
tested chemical

> <STRUCTURE_Formula>
C17H28O2

> <STRUCTURE_MW>
264.403

> <STRUCTURE_ChemType>
defined organic

> <STRUCTURE_DefinedOrganicForm>
parent

> <STRUCTURE_IUPAC>
(2E,6E)-3,7,11-trimethyldodeca-2,6,10-trien-1-yl acetate

> <STRUCTURE_SMILES>
CC(=O)OC\C=C(/C)CC\C=C(/C)CC\C=C(/C)C

> <STRUCTURE_SMILES_Desalt>
CC(=O)OC\C=C(/C)CC\C=C(/C)CC\C=C(/C)C

> <Substance_modify_yyyymmdd>
20100429

$$$$
