4128-37-4
ChemmineR-0915142007XD

 10  9  0  0  0  0  0  0  0  0  1 V2000
    3.4715   -1.3261    0.0000 C   0  0  0  0  0  0  0  0  0  0  0  0
    3.4715    0.0000    0.0000 O   0  0  0  0  0  0  0  0  0  0  0  0
    4.6171   -1.9857    0.0000 N   0  0  0  0  0  0  0  0  0  0  0  0
    2.3259   -1.9857    0.0000 N   0  0  0  0  0  0  0  0  0  0  0  0
    5.7835   -1.3261    0.0000 C   0  0  0  0  0  0  0  0  0  0  0  0
    5.7835    0.0000    0.0000 C   0  0  0  0  0  0  0  0  0  0  0  0
    6.9430   -1.9857    0.0000 C   0  0  0  0  0  0  0  0  0  0  0  0
    1.1595   -1.3261    0.0000 C   0  0  0  0  0  0  0  0  0  0  0  0
    1.1595    0.0000    0.0000 C   0  0  0  0  0  0  0  0  0  0  0  0
    0.0000   -1.9857    0.0000 C   0  0  0  0  0  0  0  0  0  0  0  0
  1  2  2  0  0  0  0
  1  3  1  0  0  0  0
  1  4  1  0  0  0  0
  3  5  1  0  0  0  0
  4  8  1  0  0  0  0
  5  6  1  0  0  0  0
  5  7  1  0  0  0  0
  8  9  1  0  0  0  0
  8 10  1  0  0  0  0
M  END
> <ID>
10141

> <Formula>
C7H16N2O

> <FW>
144.2147

> <DSSTox_CID>
24486

> <DSSTox_RID>
80262

> <DSSTox_GSID>
44486

> <DSSTox_FileID_Sort>
4944

> <TS_ChemName>
1,3-Dipropan-2-ylurea

> <TS_ChemName_Synonyms>
1,3-Dipropan-2-ylurea (Urea, N,N'-bis(1-methylethyl)-)

> <TS_CASRN>
4128-37-4

> <CASRN_ChemName_Relationship>
primary

> <TS_Description>
single chemical compound

> <ChemNote>


> <STRUCTURE_Shown>
tested chemical

> <STRUCTURE_Formula>
C7H16N2O

> <STRUCTURE_MW>
144.2147

> <STRUCTURE_ChemType>
defined organic

> <STRUCTURE_DefinedOrganicForm>
parent

> <STRUCTURE_IUPAC>
1,3-dipropan-2-ylurea

> <STRUCTURE_SMILES>
CC(C)NC(=O)NC(C)C

> <STRUCTURE_SMILES_Desalt>
CC(C)NC(=O)NC(C)C

> <Substance_modify_yyyymmdd>
20091116

$$$$
