41294-56-8
ChemmineR-0915142007XD

 31 33  0  0  1  0  0  0  0  0  1 V2000
    2.2984   -2.6798    0.0000 C   0  0  0  0  0  0  0  0  0  0  0  0
    2.2984   -3.9932    0.0000 C   0  0  0  0  0  0  0  0  0  0  0  0
    3.5377   -2.2773    0.0000 C   0  0  0  0  0  0  0  0  0  0  0  0
    1.1333   -2.0231    0.0000 C   0  0  0  0  0  0  0  0  0  0  0  0
    2.2984   -1.3346    0.0000 C   0  0  0  0  0  0  0  0  0  0  0  0
    1.1333   -4.6816    0.0000 C   0  0  0  0  0  0  0  0  0  0  0  0
    3.5377   -4.4168    0.0000 C   0  0  0  0  0  0  0  0  0  0  0  0
    4.3215   -3.3576    0.0000 C   0  0  0  0  0  0  0  0  0  0  0  0
    3.9932   -0.9850    0.0000 C   0  0  0  0  0  0  0  0  0  0  0  0
    0.0000   -2.7115    0.0000 C   0  0  0  0  0  0  0  0  0  0  0  0
    1.1333   -6.0056    0.0000 C   0  0  0  0  0  0  0  0  0  0  0  0
    0.0000   -3.9932    0.0000 C   0  0  0  0  0  0  0  0  0  0  0  0
    5.2536   -0.7520    0.0000 C   0  0  0  0  0  0  0  0  0  0  0  0
    3.1034    0.0000    0.0000 C   0  0  0  0  0  0  0  0  0  0  0  0
    2.3938   -6.5988    0.0000 C   0  0  0  0  0  0  0  0  0  0  0  0
    6.1115   -1.7689    0.0000 C   0  0  0  0  0  0  0  0  0  0  0  0
    2.3938   -7.9122    0.0000 C   0  0  0  0  0  0  0  0  0  0  0  0
    7.4249   -1.5464    0.0000 C   0  0  0  0  0  0  0  0  0  0  0  0
    3.5165   -8.5689    0.0000 C   0  0  0  0  0  0  0  0  0  0  0  0
    1.2287   -8.6006    0.0000 C   0  0  0  0  0  0  0  0  0  0  0  0
    8.2829   -2.5632    0.0000 C   0  0  0  0  0  0  0  0  0  0  0  0
    3.5165   -9.9035    0.0000 C   0  0  0  0  0  0  0  0  0  0  0  0
    4.7134   -7.9122    0.0000 C   0  0  0  0  0  0  0  0  0  0  0  0
    1.2287   -9.9035    0.0000 C   0  0  0  0  0  0  0  0  0  0  0  0
    9.5857   -2.3408    0.0000 C   0  0  0  0  0  0  0  0  0  0  0  0
    7.8168   -3.8025    0.0000 C   0  0  0  0  0  0  0  0  0  0  0  0
    2.3938  -10.5919    0.0000 C   0  0  0  0  0  0  0  0  0  0  0  0
    4.6816  -10.5919    0.0000 O   0  0  0  0  0  0  0  0  0  0  0  0
    0.0636  -10.5919    0.0000 O   0  0  0  0  0  0  0  0  0  0  0  0
    2.2984   -5.3171    0.0000 H   0  0  0  0  0  0  0  0  0  0  0  0
    4.8299   -1.9383    0.0000 H   0  0  0  0  0  0  0  0  0  0  0  0
  1  2  1  0  0  0  0
  1  3  1  0  0  0  0
  1  4  1  0  0  0  0
  1  5  1  1  0  0  0
  2  6  1  0  0  0  0
  2  7  1  0  0  0  0
  2 30  1  6  0  0  0
  3  8  1  0  0  0  0
  3  9  1  0  0  0  0
  3 31  1  6  0  0  0
  4 10  1  0  0  0  0
  6 11  2  0  0  0  0
  6 12  1  0  0  0  0
  7  8  1  0  0  0  0
  9 13  1  0  0  0  0
  9 14  1  6  0  0  0
 10 12  1  0  0  0  0
 11 15  1  0  0  0  0
 13 16  1  0  0  0  0
 15 17  2  0  0  0  0
 16 18  1  0  0  0  0
 17 19  1  0  0  0  0
 17 20  1  0  0  0  0
 18 21  1  0  0  0  0
 19 22  1  0  0  0  0
 19 23  2  0  0  0  0
 20 24  1  0  0  0  0
 21 25  1  0  0  0  0
 21 26  1  0  0  0  0
 22 27  1  0  0  0  0
 22 28  1  1  0  0  0
 24 29  1  6  0  0  0
 24 27  1  0  0  0  0
M  END
> <ID>
2328

> <Formula>
C27H44O2

> <FW>
400.6371

> <DSSTox_CID>
2569

> <DSSTox_RID>
76634

> <DSSTox_GSID>
22569

> <DSSTox_FileID_Sort>
1318

> <TS_ChemName>
Alfacalcidol

> <TS_ChemName_Synonyms>


> <TS_CASRN>
41294-56-8

> <CASRN_ChemName_Relationship>
primary

> <TS_Description>
single chemical compound

> <ChemNote>
stereochem

> <STRUCTURE_Shown>
tested chemical

> <STRUCTURE_Formula>
C27H44O2

> <STRUCTURE_MW>
400.6371

> <STRUCTURE_ChemType>
defined organic

> <STRUCTURE_DefinedOrganicForm>
parent

> <STRUCTURE_IUPAC>
(1S,3R,5E,7Z)-9,10-secocholesta-5,7,10-triene-1,3-diol

> <STRUCTURE_SMILES>
C=C1C(\C[C@@H](O)C[C@@H]1O)=C\C=C2\CCC[C@]3(C)[C@H](CC[C@@H]23)[C@H](C)CCCC(C)C

> <STRUCTURE_SMILES_Desalt>
C=C1C(\C[C@@H](O)C[C@@H]1O)=C\C=C2\CCC[C@]3(C)[C@H](CC[C@@H]23)[C@H](C)CCCC(C)C

> <Substance_modify_yyyymmdd>
20080429

$$$$
