4130-08-9
ChemmineR-0915142007XD

 15 14  0  0  0  0  0  0  0  0  1 V2000
    3.4606   -2.3070    0.0000 Si   0  0  0  0  0  0  0  0  0  0  0  0
    2.3070   -1.6509    0.0000 O    0  0  0  0  0  0  0  0  0  0  0  0
    4.6003   -2.9771    0.0000 O    0  0  0  0  0  0  0  0  0  0  0  0
    2.7906   -3.4606    0.0000 O    0  0  0  0  0  0  0  0  0  0  0  0
    4.1168   -1.1535    0.0000 C    0  0  0  0  0  0  0  0  0  0  0  0
    3.4606    0.0000    0.0000 C    0  0  0  0  0  0  0  0  0  0  0  0
    1.1535   -2.3070    0.0000 C    0  0  0  0  0  0  0  0  0  0  0  0
    1.1535   -3.6333    0.0000 O    0  0  0  0  0  0  0  0  0  0  0  0
    0.0000   -1.6509    0.0000 C    0  0  0  0  0  0  0  0  0  0  0  0
    5.7538   -2.3070    0.0000 C    0  0  0  0  0  0  0  0  0  0  0  0
    5.7538   -0.9739    0.0000 O    0  0  0  0  0  0  0  0  0  0  0  0
    6.9073   -2.9771    0.0000 C    0  0  0  0  0  0  0  0  0  0  0  0
    3.4606   -4.6141    0.0000 C    0  0  0  0  0  0  0  0  0  0  0  0
    4.7937   -4.6141    0.0000 O    0  0  0  0  0  0  0  0  0  0  0  0
    2.7906   -5.7676    0.0000 C    0  0  0  0  0  0  0  0  0  0  0  0
  1  2  1  0  0  0  0
  1  3  1  0  0  0  0
  1  4  1  0  0  0  0
  1  5  1  0  0  0  0
  2  7  1  0  0  0  0
  3 10  1  0  0  0  0
  4 13  1  0  0  0  0
  5  6  2  0  0  0  0
  7  8  2  0  0  0  0
  7  9  1  0  0  0  0
 10 11  2  0  0  0  0
 10 12  1  0  0  0  0
 13 14  2  0  0  0  0
 13 15  1  0  0  0  0
M  END
> <ID>
10585

> <Formula>
C8H12O6Si

> <FW>
232.2628

> <DSSTox_CID>
24938

> <DSSTox_RID>
80602

> <DSSTox_GSID>
44938

> <DSSTox_FileID_Sort>
5284

> <TS_ChemName>
Ethenylsilanetriyl triacetate

> <TS_ChemName_Synonyms>
Ethenylsilanetriyl triacetate (Silanetriol, ethenyl-, triacetate)

> <TS_CASRN>
4130-08-9

> <CASRN_ChemName_Relationship>
primary

> <TS_Description>
single chemical compound

> <ChemNote>


> <STRUCTURE_Shown>
tested chemical

> <STRUCTURE_Formula>
C8H12O6Si

> <STRUCTURE_MW>
232.2628

> <STRUCTURE_ChemType>
organometallic

> <STRUCTURE_DefinedOrganicForm>


> <STRUCTURE_IUPAC>
ethenylsilanetriyl triacetate

> <STRUCTURE_SMILES>
O=C(C)O[Si](OC(C)=O)(OC(=O)C)C=C

> <STRUCTURE_SMILES_Desalt>
O=C(C)O[Si](OC(C)=O)(OC(=O)C)C=C

> <Substance_modify_yyyymmdd>
20091116

$$$$
