4130-42-1
ChemmineR-0915142007XD

 17 17  0  0  0  0  0  0  0  0  1 V2000
    3.4507   -1.3182    0.0000 C   0  0  0  0  0  0  0  0  0  0  0  0
    3.4507    0.0000    0.0000 O   0  0  0  0  0  0  0  0  0  0  0  0
    4.5963   -2.0221    0.0000 C   0  0  0  0  0  0  0  0  0  0  0  0
    2.3051   -2.0221    0.0000 C   0  0  0  0  0  0  0  0  0  0  0  0
    2.3051   -3.3403    0.0000 C   0  0  0  0  0  0  0  0  0  0  0  0
    4.5963   -3.3403    0.0000 C   0  0  0  0  0  0  0  0  0  0  0  0
    3.4507   -3.9890    0.0000 C   0  0  0  0  0  0  0  0  0  0  0  0
    5.7695   -1.3527    0.0000 C   0  0  0  0  0  0  0  0  0  0  0  0
    5.7695    0.0000    0.0000 C   0  0  0  0  0  0  0  0  0  0  0  0
    6.9014   -2.0221    0.0000 C   0  0  0  0  0  0  0  0  0  0  0  0
    6.9014   -0.6694    0.0000 C   0  0  0  0  0  0  0  0  0  0  0  0
    1.1318   -1.3527    0.0000 C   0  0  0  0  0  0  0  0  0  0  0  0
    0.0000   -2.0497    0.0000 C   0  0  0  0  0  0  0  0  0  0  0  0
    1.1318   -0.0345    0.0000 C   0  0  0  0  0  0  0  0  0  0  0  0
    0.0000   -0.6832    0.0000 C   0  0  0  0  0  0  0  0  0  0  0  0
    3.4507   -5.3417    0.0000 C   0  0  0  0  0  0  0  0  0  0  0  0
    4.5963   -6.0111    0.0000 C   0  0  0  0  0  0  0  0  0  0  0  0
  1  2  1  0  0  0  0
  1  3  2  0  0  0  0
  1  4  1  0  0  0  0
  3  6  1  0  0  0  0
  3  8  1  0  0  0  0
  4  5  2  0  0  0  0
  4 12  1  0  0  0  0
  5  7  1  0  0  0  0
  6  7  2  0  0  0  0
  7 16  1  0  0  0  0
  8  9  1  0  0  0  0
  8 10  1  0  0  0  0
  8 11  1  0  0  0  0
 12 13  1  0  0  0  0
 12 14  1  0  0  0  0
 12 15  1  0  0  0  0
 16 17  1  0  0  0  0
M  END
> <ID>
5902

> <Formula>
C16H26O

> <FW>
234.377

> <DSSTox_CID>
9262

> <DSSTox_RID>
78738

> <DSSTox_GSID>
29262

> <DSSTox_FileID_Sort>
3420

> <TS_ChemName>
2,6-Di-tert-butyl-4-ethylphenol

> <TS_ChemName_Synonyms>
2,6-Bis(1,1-dimethylethyl)-4-ethylphenol

> <TS_CASRN>
4130-42-1

> <CASRN_ChemName_Relationship>
primary

> <TS_Description>
single chemical compound

> <ChemNote>


> <STRUCTURE_Shown>
tested chemical

> <STRUCTURE_Formula>
C16H26O

> <STRUCTURE_MW>
234.377

> <STRUCTURE_ChemType>
defined organic

> <STRUCTURE_DefinedOrganicForm>
parent

> <STRUCTURE_IUPAC>
2,6-di-tert-butyl-4-ethylphenol

> <STRUCTURE_SMILES>
CC(C)(C)c1cc(cc(c1O)C(C)(C)C)CC

> <STRUCTURE_SMILES_Desalt>
CC(C)(C)c1cc(cc(c1O)C(C)(C)C)CC

> <Substance_modify_yyyymmdd>
20080429

$$$$
