41317-15-1
ChemmineR-0915142007XD

 16 17  0  0  0  0  0  0  0  0  1 V2000
    4.6139   -1.9985    0.0000 C   0  0  0  0  0  0  0  0  0  0  0  0
    4.6139   -3.3338    0.0000 C   0  0  0  0  0  0  0  0  0  0  0  0
    3.4628   -3.9877    0.0000 C   0  0  0  0  0  0  0  0  0  0  0  0
    2.3024   -3.3338    0.0000 C   0  0  0  0  0  0  0  0  0  0  0  0
    2.3024   -1.9985    0.0000 C   0  0  0  0  0  0  0  0  0  0  0  0
    3.4628   -1.3262    0.0000 C   0  0  0  0  0  0  0  0  0  0  0  0
    5.7651   -1.3262    0.0000 N   0  0  0  0  0  0  0  0  0  0  0  0
    1.1512   -3.9877    0.0000 O   0  0  0  0  0  0  0  0  0  0  0  0
    0.0000   -3.3338    0.0000 C   0  0  0  0  0  0  0  0  0  0  0  0
    3.4628    0.0000    0.0000 C   0  0  0  0  0  0  0  0  0  0  0  0
    6.9163   -1.9985    0.0000 C   0  0  0  0  0  0  0  0  0  0  0  0
    8.0767   -1.3262    0.0000 C   0  0  0  0  0  0  0  0  0  0  0  0
    6.9163   -3.3338    0.0000 C   0  0  0  0  0  0  0  0  0  0  0  0
    9.2095   -1.9985    0.0000 C   0  0  0  0  0  0  0  0  0  0  0  0
    8.0767   -3.9877    0.0000 C   0  0  0  0  0  0  0  0  0  0  0  0
    9.2095   -3.3338    0.0000 C   0  0  0  0  0  0  0  0  0  0  0  0
  1  2  2  0  0  0  0
  1  6  1  0  0  0  0
  1  7  1  0  0  0  0
  2  3  1  0  0  0  0
  3  4  2  0  0  0  0
  4  5  1  0  0  0  0
  4  8  1  0  0  0  0
  5  6  2  0  0  0  0
  6 10  1  0  0  0  0
  7 11  1  0  0  0  0
  8  9  1  0  0  0  0
 11 12  2  0  0  0  0
 11 13  1  0  0  0  0
 12 14  1  0  0  0  0
 13 15  2  0  0  0  0
 14 16  2  0  0  0  0
 15 16  1  0  0  0  0
M  END
> <ID>
5985

> <Formula>
C14H15NO

> <FW>
213.275

> <DSSTox_CID>
9364

> <DSSTox_RID>
78772

> <DSSTox_GSID>
29364

> <DSSTox_FileID_Sort>
3454

> <TS_ChemName>
4-Methoxy-2-methyl-N-phenylaniline

> <TS_ChemName_Synonyms>


> <TS_CASRN>
41317-15-1

> <CASRN_ChemName_Relationship>
primary

> <TS_Description>
single chemical compound

> <ChemNote>


> <STRUCTURE_Shown>
tested chemical

> <STRUCTURE_Formula>
C14H15NO

> <STRUCTURE_MW>
213.275

> <STRUCTURE_ChemType>
defined organic

> <STRUCTURE_DefinedOrganicForm>
parent

> <STRUCTURE_IUPAC>
4-methoxy-2-methyl-N-phenylaniline

> <STRUCTURE_SMILES>
COc2cc(C)c(Nc1ccccc1)cc2

> <STRUCTURE_SMILES_Desalt>
COc2cc(C)c(Nc1ccccc1)cc2

> <Substance_modify_yyyymmdd>
20080429

$$$$
