41340-36-7
ChemmineR-0915142007XD

 14 15  0  0  0  0  0  0  0  0  1 V2000
    0.0000    0.0000    0.0000 C   0  0  0  0  0  0  0  0  0  0  0  0
    1.1524   -0.6626    0.0000 C   0  0  0  0  0  0  0  0  0  0  0  0
    1.1524   -1.9950    0.0000 C   0  0  0  0  0  0  0  0  0  0  0  0
    0.0000   -2.6576    0.0000 C   0  0  0  0  0  0  0  0  0  0  0  0
    0.0000   -3.9901    0.0000 C   0  0  0  0  0  0  0  0  0  0  0  0
    1.1524   -4.6527    0.0000 C   0  0  0  0  0  0  0  0  0  0  0  0
    2.3047   -3.9901    0.0000 C   0  0  0  0  0  0  0  0  0  0  0  0
    2.3047   -2.6576    0.0000 C   0  0  0  0  0  0  0  0  0  0  0  0
    3.5651   -2.2471    0.0000 N   0  0  0  0  0  0  0  0  0  0  0  0
    4.3502   -3.3203    0.0000 C   0  0  0  0  0  0  0  0  0  0  0  0
    3.5651   -4.4006    0.0000 C   0  0  0  0  0  0  0  0  0  0  0  0
    3.9757   -5.6610    0.0000 C   0  0  0  0  0  0  0  0  0  0  0  0
    5.2793   -5.9347    0.0000 C   0  0  0  0  0  0  0  0  0  0  0  0
    5.6898   -7.2023    0.0000 O   0  0  0  0  0  0  0  0  0  0  0  0
  1  2  1  0  0  0  0
  2  3  1  0  0  0  0
  3  4  2  0  0  0  0
  3  8  1  0  0  0  0
  4  5  1  0  0  0  0
  5  6  2  0  0  0  0
  6  7  1  0  0  0  0
  7  8  2  0  0  0  0
  7 11  1  0  0  0  0
  8  9  1  0  0  0  0
  9 10  1  0  0  0  0
 10 11  2  0  0  0  0
 11 12  1  0  0  0  0
 12 13  1  0  0  0  0
 13 14  1  0  0  0  0
M  END
> <ID>
16141

> <Formula>
C12H15NO

> <FW>
189.2536

> <DSSTox_CID>
31530

> <DSSTox_RID>
97415

> <DSSTox_GSID>
57741

> <DSSTox_FileID_Sort>
8482

> <TS_ChemName>
7-Ethyltryptophol

> <TS_ChemName_Synonyms>
2-(7-Ethyl-1h-indol-3-yl)ethanol

> <TS_CASRN>
41340-36-7

> <CASRN_ChemName_Relationship>
primary

> <TS_Description>
single chemical compound

> <ChemNote>


> <STRUCTURE_Shown>
tested chemical

> <STRUCTURE_Formula>
C12H15NO

> <STRUCTURE_MW>
189.2536

> <STRUCTURE_ChemType>
defined organic

> <STRUCTURE_DefinedOrganicForm>
parent

> <STRUCTURE_IUPAC>
2-(7-ethyl-1H-indol-3-yl)ethanol

> <STRUCTURE_SMILES>
CCc2cccc1c2ncc1CCO

> <STRUCTURE_SMILES_Desalt>
CCc2cccc1c2ncc1CCO

> <Substance_modify_yyyymmdd>
20131121

$$$$
