41340-25-4
ChemmineR-0915142007XD

 21 23  0  0  0  0  0  0  0  0  1 V2000
    3.3395    0.0000    0.0000 C   0  0  0  0  0  0  0  0  0  0  0  0
    3.9288   -1.1983    0.0000 C   0  0  0  0  0  0  0  0  0  0  0  0
    3.1725   -2.3082    0.0000 C   0  0  0  0  0  0  0  0  0  0  0  0
    4.4002   -2.8385    0.0000 C   0  0  0  0  0  0  0  0  0  0  0  0
    4.5377   -4.1645    0.0000 C   0  0  0  0  0  0  0  0  0  0  0  0
    5.8342   -4.4395    0.0000 C   0  0  0  0  0  0  0  0  0  0  0  0
    6.5021   -3.2903    0.0000 C   0  0  0  0  0  0  0  0  0  0  0  0
    7.8281   -3.2903    0.0000 C   0  0  0  0  0  0  0  0  0  0  0  0
    8.4960   -4.4395    0.0000 C   0  0  0  0  0  0  0  0  0  0  0  0
    7.8281   -5.5887    0.0000 C   0  0  0  0  0  0  0  0  0  0  0  0
    6.5021   -5.5887    0.0000 C   0  0  0  0  0  0  0  0  0  0  0  0
    8.4960   -2.1314    0.0000 C   0  0  0  0  0  0  0  0  0  0  0  0
    9.8219   -2.1314    0.0000 C   0  0  0  0  0  0  0  0  0  0  0  0
    5.6083   -2.2983    0.0000 N   0  0  0  0  0  0  0  0  0  0  0  0
    3.4573   -4.9404    0.0000 C   0  0  0  0  0  0  0  0  0  0  0  0
    2.2492   -4.4002    0.0000 C   0  0  0  0  0  0  0  0  0  0  0  0
    2.1019   -3.0841    0.0000 O   0  0  0  0  0  0  0  0  0  0  0  0
    2.2296   -1.3652    0.0000 C   0  0  0  0  0  0  0  0  0  0  0  0
    0.9429   -1.7483    0.0000 C   0  0  0  0  0  0  0  0  0  0  0  0
    0.5991   -3.0252    0.0000 O   0  0  0  0  0  0  0  0  0  0  0  0
    0.0000   -0.8152    0.0000 O   0  0  0  0  0  0  0  0  0  0  0  0
  1  2  1  0  0  0  0
  2  3  1  0  0  0  0
  3  4  1  0  0  0  0
  3 17  1  0  0  0  0
  3 18  1  0  0  0  0
  4  5  2  0  0  0  0
  4 14  1  0  0  0  0
  5  6  1  0  0  0  0
  5 15  1  0  0  0  0
  6  7  2  0  0  0  0
  6 11  1  0  0  0  0
  7  8  1  0  0  0  0
  7 14  1  0  0  0  0
  8  9  2  0  0  0  0
  8 12  1  0  0  0  0
  9 10  1  0  0  0  0
 10 11  2  0  0  0  0
 12 13  1  0  0  0  0
 15 16  1  0  0  0  0
 16 17  1  0  0  0  0
 18 19  1  0  0  0  0
 19 20  2  0  0  0  0
 19 21  1  0  0  0  0
M  END
> <ID>
590

> <Formula>
C17H21NO3

> <FW>
287.3535

> <DSSTox_CID>
615

> <DSSTox_RID>
75691

> <DSSTox_GSID>
20615

> <DSSTox_FileID_Sort>
375

> <TS_ChemName>
Etodolac

> <TS_ChemName_Synonyms>


> <TS_CASRN>
41340-25-4

> <CASRN_ChemName_Relationship>
primary

> <TS_Description>
single chemical compound

> <ChemNote>


> <STRUCTURE_Shown>
tested chemical

> <STRUCTURE_Formula>
C17H21NO3

> <STRUCTURE_MW>
287.3535

> <STRUCTURE_ChemType>
defined organic

> <STRUCTURE_DefinedOrganicForm>
parent

> <STRUCTURE_IUPAC>
(1,8-diethyl-1,3,4,9-tetrahydropyrano[3,4-b]indol-1-yl)acetic acid

> <STRUCTURE_SMILES>
O=C(O)CC3(CC)OCCc2c3nc1c(cccc12)CC

> <STRUCTURE_SMILES_Desalt>
O=C(O)CC3(CC)OCCc2c3nc1c(cccc12)CC

> <Substance_modify_yyyymmdd>
20080429

$$$$
