41351-30-8
ChemmineR-0915142007XD

 19 20  0  0  0  0  0  0  0  0  1 V2000
    4.6033   -2.6604    0.0000 C   0  0  0  0  0  0  0  0  0  0  0  0
    5.7561   -1.9913    0.0000 C   0  0  0  0  0  0  0  0  0  0  0  0
    6.9089   -2.6604    0.0000 C   0  0  0  0  0  0  0  0  0  0  0  0
    6.9089   -3.9906    0.0000 C   0  0  0  0  0  0  0  0  0  0  0  0
    5.7561   -4.6516    0.0000 C   0  0  0  0  0  0  0  0  0  0  0  0
    4.6033   -3.9906    0.0000 C   0  0  0  0  0  0  0  0  0  0  0  0
    3.4424   -1.9913    0.0000 C   0  0  0  0  0  0  0  0  0  0  0  0
    3.4424   -0.6611    0.0000 O   0  0  0  0  0  0  0  0  0  0  0  0
    2.2895   -2.6604    0.0000 C   0  0  0  0  0  0  0  0  0  0  0  0
    2.2895   -3.9906    0.0000 C   0  0  0  0  0  0  0  0  0  0  0  0
    1.1367   -4.6516    0.0000 C   0  0  0  0  0  0  0  0  0  0  0  0
    0.0000   -3.9906    0.0000 C   0  0  0  0  0  0  0  0  0  0  0  0
    0.0000   -2.6604    0.0000 C   0  0  0  0  0  0  0  0  0  0  0  0
    1.1367   -1.9913    0.0000 C   0  0  0  0  0  0  0  0  0  0  0  0
    1.1367   -5.9818    0.0000 O   0  0  0  0  0  0  0  0  0  0  0  0
    5.7561   -0.6611    0.0000 O   0  0  0  0  0  0  0  0  0  0  0  0
    6.9089    0.0000    0.0000 C   0  0  0  0  0  0  0  0  0  0  0  0
    8.0618   -4.6678    0.0000 O   0  0  0  0  0  0  0  0  0  0  0  0
    8.0618   -5.9980    0.0000 C   0  0  0  0  0  0  0  0  0  0  0  0
  1  7  1  0  0  0  0
  1  6  2  0  0  0  0
  1  2  1  0  0  0  0
  2  3  2  0  0  0  0
  2 16  1  0  0  0  0
  3  4  1  0  0  0  0
  4  5  2  0  0  0  0
  4 18  1  0  0  0  0
  5  6  1  0  0  0  0
  7  8  2  0  0  0  0
  7  9  1  0  0  0  0
  9 10  2  0  0  0  0
  9 14  1  0  0  0  0
 10 11  1  0  0  0  0
 11 12  2  0  0  0  0
 11 15  1  0  0  0  0
 12 13  1  0  0  0  0
 13 14  2  0  0  0  0
 16 17  1  0  0  0  0
 18 19  1  0  0  0  0
M  END
> <ID>
12961

> <Formula>
C15H14O4

> <FW>
258.2693

> <DSSTox_CID>
27862

> <DSSTox_RID>
82615

> <DSSTox_GSID>
47886

> <DSSTox_FileID_Sort>
7292

> <TS_ChemName>
2,4-Dimethoxy-4'-hydroxy benzophenone

> <TS_ChemName_Synonyms>


> <TS_CASRN>
41351-30-8

> <CASRN_ChemName_Relationship>
primary

> <TS_Description>
single chemical compound

> <ChemNote>


> <STRUCTURE_Shown>
tested chemical

> <STRUCTURE_Formula>
C15H14O4

> <STRUCTURE_MW>
258.2693

> <STRUCTURE_ChemType>
defined organic

> <STRUCTURE_DefinedOrganicForm>
parent

> <STRUCTURE_IUPAC>
(2,4-dimethoxyphenyl)(3-hydroxyphenyl)methanone

> <STRUCTURE_SMILES>
COc2cc(ccc2C(=O)c1cccc(O)c1)OC

> <STRUCTURE_SMILES_Desalt>
COc2cc(ccc2C(=O)c1cccc(O)c1)OC

> <Substance_modify_yyyymmdd>


$$$$
