41372-20-7
ChemmineR-0915142007XD

 45 48  0  0  1  0  0  0  0  0  1 V2000
    5.7087   -4.0653    0.0000 C    0  0  0  0  0  0  0  0  0  0  0  0
    3.4425   -2.7678    0.0000 C    0  0  0  0  0  0  0  0  0  0  0  0
    4.5496   -2.0932    0.0000 C    0  0  0  0  0  0  0  0  0  0  0  0
    5.7087   -2.7678    0.0000 C    0  0  0  0  0  0  0  0  0  0  0  0
    3.4425   -4.0653    0.0000 C    0  0  0  0  0  0  0  0  0  0  0  0
    4.5842   -4.7399    0.0000 C    0  0  0  0  0  0  0  0  0  0  0  0
    6.8504   -4.7399    0.0000 N    0  0  0  0  0  0  0  0  0  0  0  0
    2.2835   -2.0932    0.0000 C    0  0  0  0  0  0  0  0  0  0  0  0
    6.8504   -2.0932    0.0000 C    0  0  0  0  0  0  0  0  0  0  0  0
    1.1590   -2.7678    0.0000 C    0  0  0  0  0  0  0  0  0  0  0  0
    2.2835   -4.7399    0.0000 C    0  0  0  0  0  0  0  0  0  0  0  0
    7.9921   -4.0653    0.0000 C    0  0  0  0  0  0  0  0  0  0  0  0
    7.9921   -2.7678    0.0000 C    0  0  0  0  0  0  0  0  0  0  0  0
    1.1590   -4.0653    0.0000 C    0  0  0  0  0  0  0  0  0  0  0  0
    2.2835   -0.7785    0.0000 O    0  0  0  0  0  0  0  0  0  0  0  0
    4.5496   -0.7612    0.0000 C    0  0  0  0  0  0  0  0  0  0  0  0
    0.0000   -2.0759    0.0000 O    0  0  0  0  0  0  0  0  0  0  0  0
    6.8504   -6.0373    0.0000 C    0  0  0  0  0  0  0  0  0  0  0  0
    5.7087   -0.1038    0.0000 C    0  0  0  0  0  0  0  0  0  0  0  0
    6.8504   -0.7612    0.0000 C    0  0  0  0  0  0  0  0  0  0  0  0
    5.7087   -5.6395    0.0000 H    0  0  0  0  0  0  0  0  0  0  0  0
   15.0155   -3.9442    0.0000 C    0  0  0  0  0  0  0  0  0  0  0  0
   12.7493   -2.6294    0.0000 C    0  0  0  0  0  0  0  0  0  0  0  0
   13.8565   -1.9721    0.0000 C    0  0  0  0  0  0  0  0  0  0  0  0
   15.0155   -2.6294    0.0000 C    0  0  0  0  0  0  0  0  0  0  0  0
   12.7493   -3.9442    0.0000 C    0  0  0  0  0  0  0  0  0  0  0  0
   13.8565   -4.6015    0.0000 C    0  0  0  0  0  0  0  0  0  0  0  0
   16.1399   -4.6015    0.0000 N    0  0  0  0  0  0  0  0  0  0  0  0
   11.5903   -1.9721    0.0000 C    0  0  0  0  0  0  0  0  0  0  0  0
   16.1399   -1.9721    0.0000 C    0  0  0  0  0  0  0  0  0  0  0  0
   10.4486   -2.6294    0.0000 C    0  0  0  0  0  0  0  0  0  0  0  0
   11.5903   -4.6015    0.0000 C    0  0  0  0  0  0  0  0  0  0  0  0
   17.2990   -3.9442    0.0000 C    0  0  0  0  0  0  0  0  0  0  0  0
   17.2990   -2.6294    0.0000 C    0  0  0  0  0  0  0  0  0  0  0  0
   10.4486   -3.9442    0.0000 C    0  0  0  0  0  0  0  0  0  0  0  0
   11.5903   -0.6401    0.0000 O    0  0  0  0  0  0  0  0  0  0  0  0
   13.8565   -0.6228    0.0000 C    0  0  0  0  0  0  0  0  0  0  0  0
    9.3068   -1.9548    0.0000 O    0  0  0  0  0  0  0  0  0  0  0  0
   16.1399   -5.9162    0.0000 C    0  0  0  0  0  0  0  0  0  0  0  0
   15.0155    0.0000    0.0000 C    0  0  0  0  0  0  0  0  0  0  0  0
   16.1399   -0.6228    0.0000 C    0  0  0  0  0  0  0  0  0  0  0  0
   15.0155   -5.5184    0.0000 H    0  0  0  0  0  0  0  0  0  0  0  0
    4.5496   -7.9921    0.0000 Cl   0  0  0  0  0  0  0  0  0  0  0  0
    6.5044   -7.9921    0.0000 Cl   0  0  0  0  0  0  0  0  0  0  0  0
    9.6874   -7.9921    0.0000 O    0  0  0  0  0  0  0  0  0  0  0  0
  1  4  1  0  0  0  0
  1  6  1  0  0  0  0
  1  7  1  0  0  0  0
  1 21  1  1  0  0  0
  2  5  2  0  0  0  0
  2  8  1  0  0  0  0
  2  3  1  0  0  0  0
  3  4  2  0  0  0  0
  3 16  1  0  0  0  0
  4  9  1  0  0  0  0
  5  6  1  0  0  0  0
  5 11  1  0  0  0  0
  7 12  1  0  0  0  0
  7 18  1  0  0  0  0
  8 15  1  0  0  0  0
  8 10  2  0  0  0  0
  9 20  2  0  0  0  0
  9 13  1  0  0  0  0
 10 14  1  0  0  0  0
 10 17  1  0  0  0  0
 11 14  2  0  0  0  0
 12 13  1  0  0  0  0
 16 19  2  0  0  0  0
 19 20  1  0  0  0  0
 22 25  1  0  0  0  0
 22 27  1  0  0  0  0
 22 28  1  0  0  0  0
 22 42  1  1  0  0  0
 23 26  2  0  0  0  0
 23 29  1  0  0  0  0
 23 24  1  0  0  0  0
 24 25  2  0  0  0  0
 24 37  1  0  0  0  0
 25 30  1  0  0  0  0
 26 27  1  0  0  0  0
 26 32  1  0  0  0  0
 28 33  1  0  0  0  0
 28 39  1  0  0  0  0
 29 36  1  0  0  0  0
 29 31  2  0  0  0  0
 30 41  2  0  0  0  0
 30 34  1  0  0  0  0
 31 35  1  0  0  0  0
 31 38  1  0  0  0  0
 32 35  2  0  0  0  0
 33 34  1  0  0  0  0
 37 40  2  0  0  0  0
 40 41  1  0  0  0  0
M  END
> <ID>
13246

> <Formula>
C34H38Cl2N2O5

> <FW>
625.5819 (267.3224+267.3224+36.4609+36.4609+18.0153)

> <DSSTox_CID>
28159

> <DSSTox_RID>
82721

> <DSSTox_GSID>
48185

> <DSSTox_FileID_Sort>
7398

> <TS_ChemName>
Apomorphine hydrochloride hydrate

> <TS_ChemName_Synonyms>
R-(-)-Apomorphine hydrochloride hemihydrate

> <TS_CASRN>
41372-20-7

> <CASRN_ChemName_Relationship>
primary

> <TS_Description>
single chemical compound

> <ChemNote>
stereochem; parent [58-00-4]

> <STRUCTURE_Shown>
tested chemical

> <STRUCTURE_Formula>
C34H38Cl2N2O5

> <STRUCTURE_MW>
625.5819

> <STRUCTURE_ChemType>
defined organic

> <STRUCTURE_DefinedOrganicForm>
complex

> <STRUCTURE_IUPAC>
(6aR)-6-methyl-5,6,6a,7-tetrahydro-4H-dibenzo[de,g]quinoline-10,11-diol hydrochloride hydrate (2:2:1)

> <STRUCTURE_SMILES>
Cl.Cl.O.Oc3ccc4C[C@@H]1c2c(cccc2CCN1C)c4c3O.Oc3ccc2C[C@@H]1c4c(CCN1C)cccc4c2c3O

> <STRUCTURE_SMILES_Desalt>
Oc3ccc2C[C@@H]1c4c(CCN1C)cccc4c2c3O

> <Substance_modify_yyyymmdd>
20110627

$$$$
