41372-08-1
ChemmineR-0915142007XD

 33 30  0  0  1  0  0  0  0  0  1 V2000
    5.8686   -2.0141    0.0000 C   0  0  0  0  0  0  0  0  0  0  0  0
    7.0341   -1.3598    0.0000 C   0  0  0  0  0  0  0  0  0  0  0  0
    1.1758   -2.0141    0.0000 C   0  0  0  0  0  0  0  0  0  0  0  0
    4.6928   -1.3598    0.0000 C   0  0  0  0  0  0  0  0  0  0  0  0
    1.1758   -3.3739    0.0000 C   0  0  0  0  0  0  0  0  0  0  0  0
    2.3413   -1.3598    0.0000 C   0  0  0  0  0  0  0  0  0  0  0  0
    3.5375   -2.0141    0.0000 C   0  0  0  0  0  0  0  0  0  0  0  0
    7.0341    0.0000    0.0000 O   0  0  0  0  0  0  0  0  0  0  0  0
    2.3413   -4.0589    0.0000 C   0  0  0  0  0  0  0  0  0  0  0  0
    5.1018   -3.0570    0.0000 N   0  0  0  0  0  0  0  0  0  0  0  0
    8.2098   -2.0141    0.0000 O   0  0  0  0  0  0  0  0  0  0  0  0
    3.5375   -3.3739    0.0000 C   0  0  0  0  0  0  0  0  0  0  0  0
    0.0000   -1.3598    0.0000 O   0  0  0  0  0  0  0  0  0  0  0  0
    0.0000   -4.0589    0.0000 O   0  0  0  0  0  0  0  0  0  0  0  0
    6.4411   -2.9241    0.0000 C   0  0  0  0  0  0  0  0  0  0  0  0
    6.0219   -8.1792    0.0000 C   0  0  0  0  0  0  0  0  0  0  0  0
    7.1772   -7.5248    0.0000 C   0  0  0  0  0  0  0  0  0  0  0  0
    1.3291   -8.1792    0.0000 C   0  0  0  0  0  0  0  0  0  0  0  0
    4.8462   -7.5248    0.0000 C   0  0  0  0  0  0  0  0  0  0  0  0
    1.3291   -9.5389    0.0000 C   0  0  0  0  0  0  0  0  0  0  0  0
    2.4844   -7.5248    0.0000 C   0  0  0  0  0  0  0  0  0  0  0  0
    3.6806   -8.1792    0.0000 C   0  0  0  0  0  0  0  0  0  0  0  0
    7.1772   -6.1650    0.0000 O   0  0  0  0  0  0  0  0  0  0  0  0
    2.4844  -10.2240    0.0000 C   0  0  0  0  0  0  0  0  0  0  0  0
    5.2551   -9.2220    0.0000 N   0  0  0  0  0  0  0  0  0  0  0  0
    8.3632   -8.1792    0.0000 O   0  0  0  0  0  0  0  0  0  0  0  0
    3.6806   -9.5389    0.0000 C   0  0  0  0  0  0  0  0  0  0  0  0
    0.1431   -7.5248    0.0000 O   0  0  0  0  0  0  0  0  0  0  0  0
    0.1431  -10.2240    0.0000 O   0  0  0  0  0  0  0  0  0  0  0  0
    6.5945   -9.0993    0.0000 C   0  0  0  0  0  0  0  0  0  0  0  0
    8.8539   -4.9893    0.0000 O   0  0  0  0  0  0  0  0  0  0  0  0
    4.3656   -4.9382    0.0000 O   0  0  0  0  0  0  0  0  0  0  0  0
    6.7580   -4.9893    0.0000 O   0  0  0  0  0  0  0  0  0  0  0  0
  1  2  1  0  0  0  0
  1  4  1  0  0  0  0
  1 10  1  1  0  0  0
  1 15  1  0  0  0  0
  2  8  2  0  0  0  0
  2 11  1  0  0  0  0
  3  6  2  0  0  0  0
  3 13  1  0  0  0  0
  3  5  1  0  0  0  0
  4  7  1  0  0  0  0
  5  9  2  0  0  0  0
  5 14  1  0  0  0  0
  6  7  1  0  0  0  0
  7 12  2  0  0  0  0
  9 12  1  0  0  0  0
 16 17  1  0  0  0  0
 16 19  1  0  0  0  0
 16 25  1  1  0  0  0
 16 30  1  0  0  0  0
 17 23  2  0  0  0  0
 17 26  1  0  0  0  0
 18 21  2  0  0  0  0
 18 28  1  0  0  0  0
 18 20  1  0  0  0  0
 19 22  1  0  0  0  0
 20 24  2  0  0  0  0
 20 29  1  0  0  0  0
 21 22  1  0  0  0  0
 22 27  2  0  0  0  0
 24 27  1  0  0  0  0
M  END
> <ID>
829

> <Formula>
C20H32N2O11

> <FW>
476.4749 (211.2145+211.2145+18.0153+18.0153+18.0153)

> <DSSTox_CID>
863

> <DSSTox_RID>
75833

> <DSSTox_GSID>
20863

> <DSSTox_FileID_Sort>
517

> <TS_ChemName>
Methyldopa sesquihydrate

> <TS_ChemName_Synonyms>
Methyldopa sesquihydrate (alpha-Methyldopa sesquihydrate)

> <TS_CASRN>
41372-08-1

> <CASRN_ChemName_Relationship>
primary

> <TS_Description>
single chemical compound

> <ChemNote>
stereochem; parent [555-30-6]

> <STRUCTURE_Shown>
tested chemical

> <STRUCTURE_Formula>
C20H32N2O11

> <STRUCTURE_MW>
476.4749

> <STRUCTURE_ChemType>
defined organic

> <STRUCTURE_DefinedOrganicForm>
complex

> <STRUCTURE_IUPAC>
3-hydroxy-alpha-methyl-L-tyrosine hydrate (2:3)

> <STRUCTURE_SMILES>
O.O.O.Oc1ccc(C[C@](C)(N)C(=O)O)cc1O.O=C(O)[C@@](C)(N)Cc1cc(O)c(O)cc1

> <STRUCTURE_SMILES_Desalt>
Oc1ccc(C[C@](C)(N)C(=O)O)cc1O

> <Substance_modify_yyyymmdd>
20080429

$$$$
