41394-05-2
ChemmineR-0915142007XD

 15 16  0  0  0  0  0  0  0  0  1 V2000
    2.0010    0.0000    0.0000 C   0  0  0  0  0  0  0  0  0  0  0  0
    2.6547   -1.1560    0.0000 C   0  0  0  0  0  0  0  0  0  0  0  0
    0.6697    0.0000    0.0000 C   0  0  0  0  0  0  0  0  0  0  0  0
    2.0010   -2.3039    0.0000 C   0  0  0  0  0  0  0  0  0  0  0  0
    0.0000   -1.1560    0.0000 C   0  0  0  0  0  0  0  0  0  0  0  0
    0.6697   -2.3039    0.0000 C   0  0  0  0  0  0  0  0  0  0  0  0
    3.9861   -1.1560    0.0000 C   0  0  0  0  0  0  0  0  0  0  0  0
    4.6557    0.0000    0.0000 N   0  0  0  0  0  0  0  0  0  0  0  0
    4.6557   -2.3039    0.0000 C   0  0  0  0  0  0  0  0  0  0  0  0
    5.9871    0.0000    0.0000 N   0  0  0  0  0  0  0  0  0  0  0  0
    5.9871   -2.3039    0.0000 N   0  0  0  0  0  0  0  0  0  0  0  0
    6.6408   -1.1560    0.0000 C   0  0  0  0  0  0  0  0  0  0  0  0
    3.9861   -3.4599    0.0000 O   0  0  0  0  0  0  0  0  0  0  0  0
    6.6408   -3.4599    0.0000 N   0  0  0  0  0  0  0  0  0  0  0  0
    7.9721   -1.1560    0.0000 C   0  0  0  0  0  0  0  0  0  0  0  0
  1  2  1  0  0  0  0
  1  3  2  0  0  0  0
  2  4  2  0  0  0  0
  2  7  1  0  0  0  0
  3  5  1  0  0  0  0
  4  6  1  0  0  0  0
  5  6  2  0  0  0  0
  7  8  2  0  0  0  0
  7  9  1  0  0  0  0
  8 10  1  0  0  0  0
  9 11  1  0  0  0  0
  9 13  2  0  0  0  0
 10 12  2  0  0  0  0
 11 12  1  0  0  0  0
 11 14  1  0  0  0  0
 12 15  1  0  0  0  0
M  END
> <ID>
12691

> <Formula>
C10H10N4O

> <FW>
202.2126

> <DSSTox_CID>
27568

> <DSSTox_RID>
82424

> <DSSTox_GSID>
47568

> <DSSTox_FileID_Sort>
7105

> <TS_ChemName>
Metamitron

> <TS_ChemName_Synonyms>


> <TS_CASRN>
41394-05-2

> <CASRN_ChemName_Relationship>
primary

> <TS_Description>
single chemical compound

> <ChemNote>


> <STRUCTURE_Shown>
tested chemical

> <STRUCTURE_Formula>
C10H10N4O

> <STRUCTURE_MW>
202.2126

> <STRUCTURE_ChemType>
defined organic

> <STRUCTURE_DefinedOrganicForm>
parent

> <STRUCTURE_IUPAC>
4-amino-3-methyl-6-phenyl-1,2,4-triazin-5(4H)-one

> <STRUCTURE_SMILES>
O=C1C(=NN=C(C)N1N)c2ccccc2

> <STRUCTURE_SMILES_Desalt>
O=C1C(=NN=C(C)N1N)c2ccccc2

> <Substance_modify_yyyymmdd>
20100929

$$$$
