41395-83-9
ChemmineR-0915142007XD

 25 24  0  0  0  0  0  0  0  0  1 V2000
   12.6993   -1.3355    0.0000 C   0  0  0  0  0  0  0  0  0  0  0  0
   11.5823   -1.9911    0.0000 C   0  0  0  0  0  0  0  0  0  0  0  0
   10.4168   -1.3355    0.0000 O   0  0  0  0  0  0  0  0  0  0  0  0
    9.2513   -1.9911    0.0000 C   0  0  0  0  0  0  0  0  0  0  0  0
    8.1101   -1.3355    0.0000 C   0  0  0  0  0  0  0  0  0  0  0  0
    6.9445   -1.9911    0.0000 C   0  0  0  0  0  0  0  0  0  0  0  0
    5.7790   -1.3355    0.0000 C   0  0  0  0  0  0  0  0  0  0  0  0
    4.6135   -1.9911    0.0000 C   0  0  0  0  0  0  0  0  0  0  0  0
    3.4723   -1.3355    0.0000 C   0  0  0  0  0  0  0  0  0  0  0  0
    2.3068   -1.9911    0.0000 C   0  0  0  0  0  0  0  0  0  0  0  0
    1.1655   -1.3355    0.0000 C   0  0  0  0  0  0  0  0  0  0  0  0
    0.0000   -1.9911    0.0000 C   0  0  0  0  0  0  0  0  0  0  0  0
    9.2513   -3.3266    0.0000 O   0  0  0  0  0  0  0  0  0  0  0  0
   11.5823   -3.3266    0.0000 C   0  0  0  0  0  0  0  0  0  0  0  0
   13.8648   -1.9911    0.0000 O   0  0  0  0  0  0  0  0  0  0  0  0
   15.0303   -1.3355    0.0000 C   0  0  0  0  0  0  0  0  0  0  0  0
   16.1958   -1.9911    0.0000 C   0  0  0  0  0  0  0  0  0  0  0  0
   17.3371   -1.3355    0.0000 C   0  0  0  0  0  0  0  0  0  0  0  0
   18.5026   -1.9911    0.0000 C   0  0  0  0  0  0  0  0  0  0  0  0
   19.6681   -1.3355    0.0000 C   0  0  0  0  0  0  0  0  0  0  0  0
   20.8093   -1.9911    0.0000 C   0  0  0  0  0  0  0  0  0  0  0  0
   21.9748   -1.3355    0.0000 C   0  0  0  0  0  0  0  0  0  0  0  0
   23.1161   -1.9911    0.0000 C   0  0  0  0  0  0  0  0  0  0  0  0
   24.2816   -1.3355    0.0000 C   0  0  0  0  0  0  0  0  0  0  0  0
   15.0303    0.0000    0.0000 O   0  0  0  0  0  0  0  0  0  0  0  0
  1  2  1  0  0  0  0
  1 15  1  0  0  0  0
  2  3  1  0  0  0  0
  2 14  1  0  0  0  0
  3  4  1  0  0  0  0
  4  5  1  0  0  0  0
  4 13  2  0  0  0  0
  5  6  1  0  0  0  0
  6  7  1  0  0  0  0
  7  8  1  0  0  0  0
  8  9  1  0  0  0  0
  9 10  1  0  0  0  0
 10 11  1  0  0  0  0
 11 12  1  0  0  0  0
 15 16  1  0  0  0  0
 16 17  1  0  0  0  0
 16 25  2  0  0  0  0
 17 18  1  0  0  0  0
 18 19  1  0  0  0  0
 19 20  1  0  0  0  0
 20 21  1  0  0  0  0
 21 22  1  0  0  0  0
 22 23  1  0  0  0  0
 23 24  1  0  0  0  0
M  END
> <ID>
12329

> <Formula>
C21H40O4

> <FW>
356.5399

> <DSSTox_CID>
27182

> <DSSTox_RID>
82178

> <DSSTox_GSID>
47182

> <DSSTox_FileID_Sort>
6859

> <TS_ChemName>
Propylene glycol dipelargonate

> <TS_ChemName_Synonyms>


> <TS_CASRN>
41395-83-9

> <CASRN_ChemName_Relationship>
primary

> <TS_Description>
mixture or formulation

> <ChemNote>
mixture of propylene glycol esters; structure shown propane-1,2-diyl dinonanoate

> <STRUCTURE_Shown>
representative isomer in mixture

> <STRUCTURE_Formula>
C21H40O4

> <STRUCTURE_MW>
356.5399

> <STRUCTURE_ChemType>
defined organic

> <STRUCTURE_DefinedOrganicForm>
parent

> <STRUCTURE_IUPAC>
propane-1,2-diyl dinonanoate

> <STRUCTURE_SMILES>
CC(COC(=O)CCCCCCCC)OC(=O)CCCCCCCC

> <STRUCTURE_SMILES_Desalt>
CC(COC(=O)CCCCCCCC)OC(=O)CCCCCCCC

> <Substance_modify_yyyymmdd>
20100503

$$$$
