41424-36-6
ChemmineR-0915142007XD

 12 12  0  0  0  0  0  0  0  0  1 V2000
    3.4606   -2.6583    0.0000 C    0  0  0  0  0  0  0  0  0  0  0  0
    3.4606   -3.9875    0.0000 C    0  0  0  0  0  0  0  0  0  0  0  0
    2.3051   -4.6580    0.0000 C    0  0  0  0  0  0  0  0  0  0  0  0
    1.1555   -3.9875    0.0000 C    0  0  0  0  0  0  0  0  0  0  0  0
    1.1555   -2.6583    0.0000 C    0  0  0  0  0  0  0  0  0  0  0  0
    2.3051   -1.9997    0.0000 C    0  0  0  0  0  0  0  0  0  0  0  0
    4.6101   -1.9997    0.0000 Br   0  0  0  0  0  0  0  0  0  0  0  0
    0.0000   -1.9997    0.0000 Br   0  0  0  0  0  0  0  0  0  0  0  0
    2.3051   -5.9872    0.0000 Br   0  0  0  0  0  0  0  0  0  0  0  0
    2.3051   -0.6706    0.0000 O    0  0  0  0  0  0  0  0  0  0  0  0
    1.1555    0.0000    0.0000 C    0  0  0  0  0  0  0  0  0  0  0  0
    0.0000   -4.6580    0.0000 C    0  0  0  0  0  0  0  0  0  0  0  0
  1  2  2  0  0  0  0
  1  6  1  0  0  0  0
  1  7  1  0  0  0  0
  2  3  1  0  0  0  0
  3  4  2  0  0  0  0
  3  9  1  0  0  0  0
  4  5  1  0  0  0  0
  4 12  1  0  0  0  0
  5  6  2  0  0  0  0
  5  8  1  0  0  0  0
  6 10  1  0  0  0  0
 10 11  1  0  0  0  0
M  END
> <ID>
10586

> <Formula>
C8H7Br3O

> <FW>
358.8526

> <DSSTox_CID>
24939

> <DSSTox_RID>
80603

> <DSSTox_GSID>
44939

> <DSSTox_FileID_Sort>
5285

> <TS_ChemName>
1,3,5-Tribromo-2-methoxy-4-methylbenzene

> <TS_ChemName_Synonyms>
1,3,5-Tribromo-2-methoxy-4-methylbenzene (methyl 2,4,6-tribromo-3-methylphenyl ether) (Benzene, 1,3,5-tribromo-2-methoxy-4-methyl-)

> <TS_CASRN>
41424-36-6

> <CASRN_ChemName_Relationship>
primary

> <TS_Description>
single chemical compound

> <ChemNote>


> <STRUCTURE_Shown>
tested chemical

> <STRUCTURE_Formula>
C8H7Br3O

> <STRUCTURE_MW>
358.8526

> <STRUCTURE_ChemType>
defined organic

> <STRUCTURE_DefinedOrganicForm>
parent

> <STRUCTURE_IUPAC>
methyl 2,4,6-tribromo-3-methylphenyl ether

> <STRUCTURE_SMILES>
COc1c(Br)c(C)c(Br)cc1Br

> <STRUCTURE_SMILES_Desalt>
COc1c(Br)c(C)c(Br)cc1Br

> <Substance_modify_yyyymmdd>
20091116

$$$$
