41481-66-7
ChemmineR-0915142007XD

 23 24  0  0  0  0  0  0  0  0  1 V2000
    2.0121   -3.4493    0.0000 C   0  0  0  0  0  0  0  0  0  0  0  0
    0.6707   -3.4493    0.0000 O   0  0  0  0  0  0  0  0  0  0  0  0
    2.6708   -4.5870    0.0000 C   0  0  0  0  0  0  0  0  0  0  0  0
    2.6708   -2.2875    0.0000 C   0  0  0  0  0  0  0  0  0  0  0  0
    4.0002   -2.2875    0.0000 C   0  0  0  0  0  0  0  0  0  0  0  0
    4.0002   -4.5870    0.0000 C   0  0  0  0  0  0  0  0  0  0  0  0
    4.6709   -3.4493    0.0000 C   0  0  0  0  0  0  0  0  0  0  0  0
    2.0121   -5.7368    0.0000 C   0  0  0  0  0  0  0  0  0  0  0  0
    0.6707   -5.7368    0.0000 C   0  0  0  0  0  0  0  0  0  0  0  0
    0.0000   -6.8985    0.0000 C   0  0  0  0  0  0  0  0  0  0  0  0
    9.9885   -3.4493    0.0000 C   0  0  0  0  0  0  0  0  0  0  0  0
   11.3179   -3.4493    0.0000 O   0  0  0  0  0  0  0  0  0  0  0  0
    9.3058   -2.2875    0.0000 C   0  0  0  0  0  0  0  0  0  0  0  0
    9.3298   -4.5870    0.0000 C   0  0  0  0  0  0  0  0  0  0  0  0
    8.0004   -4.5870    0.0000 C   0  0  0  0  0  0  0  0  0  0  0  0
    7.9764   -2.2875    0.0000 C   0  0  0  0  0  0  0  0  0  0  0  0
    7.3177   -3.4493    0.0000 C   0  0  0  0  0  0  0  0  0  0  0  0
    9.9885   -1.1378    0.0000 C   0  0  0  0  0  0  0  0  0  0  0  0
   11.3179   -1.1378    0.0000 C   0  0  0  0  0  0  0  0  0  0  0  0
   11.9766    0.0000    0.0000 C   0  0  0  0  0  0  0  0  0  0  0  0
    5.9883   -3.4493    0.0000 S   0  0  0  0  0  0  0  0  0  0  0  0
    5.9883   -2.1199    0.0000 O   0  0  0  0  0  0  0  0  0  0  0  0
    5.9883   -4.7787    0.0000 O   0  0  0  0  0  0  0  0  0  0  0  0
  1  2  1  0  0  0  0
  1  3  2  0  0  0  0
  1  4  1  0  0  0  0
  3  6  1  0  0  0  0
  3  8  1  0  0  0  0
  4  5  2  0  0  0  0
  5  7  1  0  0  0  0
  6  7  2  0  0  0  0
  7 21  1  0  0  0  0
  8  9  1  0  0  0  0
  9 10  2  0  0  0  0
 11 12  1  0  0  0  0
 11 13  2  0  0  0  0
 11 14  1  0  0  0  0
 13 16  1  0  0  0  0
 13 18  1  0  0  0  0
 14 15  2  0  0  0  0
 15 17  1  0  0  0  0
 16 17  2  0  0  0  0
 17 21  1  0  0  0  0
 18 19  1  0  0  0  0
 19 20  2  0  0  0  0
 21 22  2  0  0  0  0
 21 23  2  0  0  0  0
M  END
> <ID>
12720

> <Formula>
C18H18O4S

> <FW>
330.3981

> <DSSTox_CID>
27598

> <DSSTox_RID>
82443

> <DSSTox_GSID>
47598

> <DSSTox_FileID_Sort>
7124

> <TS_ChemName>
4,4'-Sulfonylbis[2-(prop-2-en-1-yl)phenol]

> <TS_ChemName_Synonyms>
4,4'-sulfonylbis[2-(prop-2-en-1-yl)phenol] (TGSA)

> <TS_CASRN>
41481-66-7

> <CASRN_ChemName_Relationship>
primary

> <TS_Description>
single chemical compound

> <ChemNote>


> <STRUCTURE_Shown>
tested chemical

> <STRUCTURE_Formula>
C18H18O4S

> <STRUCTURE_MW>
330.3981

> <STRUCTURE_ChemType>
defined organic

> <STRUCTURE_DefinedOrganicForm>
parent

> <STRUCTURE_IUPAC>
4,4'-sulfonylbis[2-(prop-2-en-1-yl)phenol]

> <STRUCTURE_SMILES>
Oc1ccc(cc1CC=C)S(=O)(=O)c2cc(CC=C)c(O)cc2

> <STRUCTURE_SMILES_Desalt>
Oc1ccc(cc1CC=C)S(=O)(=O)c2cc(CC=C)c(O)cc2

> <Substance_modify_yyyymmdd>
20101001

$$$$
