41483-43-6
ChemmineR-0915142007XD

 21 21  0  0  0  0  0  0  0  0  1 V2000
    6.9151   -4.6894    0.0000 S   0  0  0  0  0  0  0  0  0  0  0  0
    5.7660   -2.7018    0.0000 C   0  0  0  0  0  0  0  0  0  0  0  0
    6.9151   -2.0393    0.0000 N   0  0  0  0  0  0  0  0  0  0  0  0
    5.7660   -4.0372    0.0000 O   0  0  0  0  0  0  0  0  0  0  0  0
    4.6170   -2.0393    0.0000 C   0  0  0  0  0  0  0  0  0  0  0  0
    6.9151   -0.7039    0.0000 C   0  0  0  0  0  0  0  0  0  0  0  0
    5.7660   -0.0518    0.0000 N   0  0  0  0  0  0  0  0  0  0  0  0
    4.6170   -0.7039    0.0000 C   0  0  0  0  0  0  0  0  0  0  0  0
    8.0641   -5.3519    0.0000 N   0  0  0  0  0  0  0  0  0  0  0  0
    7.5672   -3.5197    0.0000 O   0  0  0  0  0  0  0  0  0  0  0  0
    6.2319   -5.8488    0.0000 O   0  0  0  0  0  0  0  0  0  0  0  0
    8.0538   -0.0311    0.0000 N   0  0  0  0  0  0  0  0  0  0  0  0
    3.4575   -2.7018    0.0000 C   0  0  0  0  0  0  0  0  0  0  0  0
    3.4575   -0.0311    0.0000 C   0  0  0  0  0  0  0  0  0  0  0  0
    8.0641   -6.6873    0.0000 C   0  0  0  0  0  0  0  0  0  0  0  0
    9.2236   -4.7101    0.0000 C   0  0  0  0  0  0  0  0  0  0  0  0
    9.2132   -0.7039    0.0000 C   0  0  0  0  0  0  0  0  0  0  0  0
    2.3188   -2.0600    0.0000 C   0  0  0  0  0  0  0  0  0  0  0  0
    1.1594   -2.7018    0.0000 C   0  0  0  0  0  0  0  0  0  0  0  0
   10.3519    0.0000    0.0000 C   0  0  0  0  0  0  0  0  0  0  0  0
    0.0000   -2.0600    0.0000 C   0  0  0  0  0  0  0  0  0  0  0  0
  1  4  1  0  0  0  0
  1  9  1  0  0  0  0
  1 10  2  0  0  0  0
  1 11  2  0  0  0  0
  2  4  1  0  0  0  0
  2  3  1  0  0  0  0
  2  5  2  0  0  0  0
  3  6  2  0  0  0  0
  5  8  1  0  0  0  0
  5 13  1  0  0  0  0
  6 12  1  0  0  0  0
  6  7  1  0  0  0  0
  7  8  2  0  0  0  0
  8 14  1  0  0  0  0
  9 15  1  0  0  0  0
  9 16  1  0  0  0  0
 12 17  1  0  0  0  0
 13 18  1  0  0  0  0
 17 20  1  0  0  0  0
 18 19  1  0  0  0  0
 19 21  1  0  0  0  0
M  END
> <ID>
8644

> <Formula>
C13H24N4O3S

> <FW>
316.4197

> <DSSTox_CID>
21688

> <DSSTox_RID>
79819

> <DSSTox_GSID>
41688

> <DSSTox_FileID_Sort>
4501

> <TS_ChemName>
Bupirimate

> <TS_ChemName_Synonyms>


> <TS_CASRN>
41483-43-6

> <CASRN_ChemName_Relationship>
primary

> <TS_Description>
single chemical compound

> <ChemNote>


> <STRUCTURE_Shown>
tested chemical

> <STRUCTURE_Formula>
C13H24N4O3S

> <STRUCTURE_MW>
316.4197

> <STRUCTURE_ChemType>
defined organic

> <STRUCTURE_DefinedOrganicForm>
parent

> <STRUCTURE_IUPAC>
5-butyl-2-(ethylamino)-6-methylpyrimidin-4-yl dimethylsulfamate

> <STRUCTURE_SMILES>
CCNc1nc(C)c(CCCC)c(OS(=O)(=O)N(C)C)n1

> <STRUCTURE_SMILES_Desalt>
CCNc1nc(C)c(CCCC)c(OS(=O)(=O)N(C)C)n1

> <Substance_modify_yyyymmdd>
20080825

$$$$
