41519-23-7
ChemmineR-0915142007XD

 12 11  0  0  0  0  0  0  0  0  1 V2000
    2.3464   -1.3108    0.0000 C   0  0  0  0  0  0  0  0  0  0  0  0
    2.3464    0.0000    0.0000 O   0  0  0  0  0  0  0  0  0  0  0  0
    3.4792   -1.9904    0.0000 O   0  0  0  0  0  0  0  0  0  0  0  0
    1.1813   -1.9904    0.0000 C   0  0  0  0  0  0  0  0  0  0  0  0
    0.0000   -1.3431    0.0000 C   0  0  0  0  0  0  0  0  0  0  0  0
    1.2137   -3.2850    0.0000 C   0  0  0  0  0  0  0  0  0  0  0  0
    4.6443   -1.3108    0.0000 C   0  0  0  0  0  0  0  0  0  0  0  0
    5.7933   -1.9904    0.0000 C   0  0  0  0  0  0  0  0  0  0  0  0
    6.9422   -1.3108    0.0000 C   0  0  0  0  0  0  0  0  0  0  0  0
    8.0912   -1.9904    0.0000 C   0  0  0  0  0  0  0  0  0  0  0  0
    8.0912   -3.3174    0.0000 C   0  0  0  0  0  0  0  0  0  0  0  0
    6.9422   -3.9808    0.0000 C   0  0  0  0  0  0  0  0  0  0  0  0
  1  2  2  0  0  0  0
  1  3  1  0  0  0  0
  1  4  1  0  0  0  0
  3  7  1  0  0  0  0
  4  5  1  0  0  0  0
  4  6  1  0  0  0  0
  7  8  1  0  0  0  0
  8  9  1  0  0  0  0
  9 10  2  0  0  0  0
 10 11  1  0  0  0  0
 11 12  1  0  0  0  0
M  END
> <ID>
12707

> <Formula>
C10H18O2

> <FW>
170.2487

> <DSSTox_CID>
27585

> <DSSTox_RID>
82434

> <DSSTox_GSID>
47585

> <DSSTox_FileID_Sort>
7115

> <TS_ChemName>
(3Z)-Hex-3-en-1-yl 2-methylpropanoate

> <TS_ChemName_Synonyms>


> <TS_CASRN>
41519-23-7

> <CASRN_ChemName_Relationship>
primary

> <TS_Description>
single chemical compound

> <ChemNote>
stereochem

> <STRUCTURE_Shown>
tested chemical

> <STRUCTURE_Formula>
C10H18O2

> <STRUCTURE_MW>
170.2487

> <STRUCTURE_ChemType>
defined organic

> <STRUCTURE_DefinedOrganicForm>
parent

> <STRUCTURE_IUPAC>
(3Z)-hex-3-en-1-yl 2-methylpropanoate

> <STRUCTURE_SMILES>
O=C(OCC/C=C\CC)C(C)C

> <STRUCTURE_SMILES_Desalt>
O=C(OCC/C=C\CC)C(C)C

> <Substance_modify_yyyymmdd>
20100930

$$$$
