4151-50-2
ChemmineR-0915142007XD

 31 30  0  0  0  0  0  0  0  0  1 V2000
    4.5963   -1.3388    0.0000 C   0  0  0  0  0  0  0  0  0  0  0  0
    5.7419   -1.9738    0.0000 C   0  0  0  0  0  0  0  0  0  0  0  0
    6.8599   -1.3388    0.0000 C   0  0  0  0  0  0  0  0  0  0  0  0
    8.0607   -1.9738    0.0000 C   0  0  0  0  0  0  0  0  0  0  0  0
    9.2063   -1.3388    0.0000 C   0  0  0  0  0  0  0  0  0  0  0  0
   10.3657   -1.9738    0.0000 C   0  0  0  0  0  0  0  0  0  0  0  0
   11.4975   -1.3388    0.0000 C   0  0  0  0  0  0  0  0  0  0  0  0
   12.6569   -1.9738    0.0000 C   0  0  0  0  0  0  0  0  0  0  0  0
    3.3954   -1.9738    0.0000 S   0  0  0  0  0  0  0  0  0  0  0  0
    2.6639   -0.7453    0.0000 O   0  0  0  0  0  0  0  0  0  0  0  0
    4.0580   -3.1332    0.0000 O   0  0  0  0  0  0  0  0  0  0  0  0
    2.3050   -2.6225    0.0000 N   0  0  0  0  0  0  0  0  0  0  0  0
    1.1456   -1.9738    0.0000 C   0  0  0  0  0  0  0  0  0  0  0  0
    0.0000   -2.6225    0.0000 C   0  0  0  0  0  0  0  0  0  0  0  0
    4.5963    0.0000    0.0000 F   0  0  0  0  0  0  0  0  0  0  0  0
    4.5963   -2.6639    0.0000 F   0  0  0  0  0  0  0  0  0  0  0  0
    5.7419   -3.3126    0.0000 F   0  0  0  0  0  0  0  0  0  0  0  0
    5.7419   -0.6487    0.0000 F   0  0  0  0  0  0  0  0  0  0  0  0
    6.8599    0.0000    0.0000 F   0  0  0  0  0  0  0  0  0  0  0  0
    6.8599   -2.6639    0.0000 F   0  0  0  0  0  0  0  0  0  0  0  0
    8.0607   -3.3126    0.0000 F   0  0  0  0  0  0  0  0  0  0  0  0
    8.0607   -0.6487    0.0000 F   0  0  0  0  0  0  0  0  0  0  0  0
    9.2063    0.0000    0.0000 F   0  0  0  0  0  0  0  0  0  0  0  0
    9.2063   -2.6639    0.0000 F   0  0  0  0  0  0  0  0  0  0  0  0
   10.3657   -3.3126    0.0000 F   0  0  0  0  0  0  0  0  0  0  0  0
   10.3657   -0.6487    0.0000 F   0  0  0  0  0  0  0  0  0  0  0  0
   11.4975    0.0000    0.0000 F   0  0  0  0  0  0  0  0  0  0  0  0
   12.6569   -0.6487    0.0000 F   0  0  0  0  0  0  0  0  0  0  0  0
   13.8026   -1.3388    0.0000 F   0  0  0  0  0  0  0  0  0  0  0  0
   12.6569   -3.3126    0.0000 F   0  0  0  0  0  0  0  0  0  0  0  0
   13.8026   -2.6639    0.0000 F   0  0  0  0  0  0  0  0  0  0  0  0
  1  2  1  0  0  0  0
  1  9  1  0  0  0  0
  1 15  1  0  0  0  0
  1 16  1  0  0  0  0
  2  3  1  0  0  0  0
  2 17  1  0  0  0  0
  2 18  1  0  0  0  0
  3  4  1  0  0  0  0
  3 19  1  0  0  0  0
  3 20  1  0  0  0  0
  4  5  1  0  0  0  0
  4 21  1  0  0  0  0
  4 22  1  0  0  0  0
  5  6  1  0  0  0  0
  5 23  1  0  0  0  0
  5 24  1  0  0  0  0
  6  7  1  0  0  0  0
  6 25  1  0  0  0  0
  6 26  1  0  0  0  0
  7  8  1  0  0  0  0
  7 27  1  0  0  0  0
  7 28  1  0  0  0  0
  8 29  1  0  0  0  0
  8 30  1  0  0  0  0
  8 31  1  0  0  0  0
  9 10  2  0  0  0  0
  9 12  1  0  0  0  0
  9 11  2  0  0  0  0
 12 13  1  0  0  0  0
 13 14  1  0  0  0  0
M  END
> <ID>
6562

> <Formula>
C10H6F17NO2S

> <FW>
527.198

> <DSSTox_CID>
12646

> <DSSTox_RID>
79022

> <DSSTox_GSID>
32646

> <DSSTox_FileID_Sort>
3704

> <TS_ChemName>
Sulfluramid

> <TS_ChemName_Synonyms>


> <TS_CASRN>
4151-50-2

> <CASRN_ChemName_Relationship>
primary

> <TS_Description>
single chemical compound

> <ChemNote>


> <STRUCTURE_Shown>
tested chemical

> <STRUCTURE_Formula>
C10H6F17NO2S

> <STRUCTURE_MW>
527.198

> <STRUCTURE_ChemType>
defined organic

> <STRUCTURE_DefinedOrganicForm>
parent

> <STRUCTURE_IUPAC>
N-ethyl-1,1,2,2,3,3,4,4,5,5,6,6,7,7,8,8,8-heptadecafluorooctane-1-sulfonamide

> <STRUCTURE_SMILES>
FC(F)(C(F)(F)C(F)(F)C(F)(F)C(F)(F)C(F)(F)C(F)(F)C(F)(F)F)S(=O)(=O)NCC

> <STRUCTURE_SMILES_Desalt>
FC(F)(C(F)(F)C(F)(F)C(F)(F)C(F)(F)C(F)(F)C(F)(F)C(F)(F)F)S(=O)(=O)NCC

> <Substance_modify_yyyymmdd>
20080429

$$$$
