41532-84-7
ChemmineR-0915142007XD

 16 18  0  0  0  0  0  0  0  0  1 V2000
    5.6029   -2.8757    0.0000 N   0  0  0  0  0  0  0  0  0  0  0  0
    5.0597   -4.0992    0.0000 C   0  0  0  0  0  0  0  0  0  0  0  0
    4.6081   -1.9953    0.0000 C   0  0  0  0  0  0  0  0  0  0  0  0
    3.4532   -2.6528    0.0000 C   0  0  0  0  0  0  0  0  0  0  0  0
    3.7390   -3.9506    0.0000 C   0  0  0  0  0  0  0  0  0  0  0  0
    4.6081   -0.6632    0.0000 C   0  0  0  0  0  0  0  0  0  0  0  0
    2.3097   -1.9953    0.0000 C   0  0  0  0  0  0  0  0  0  0  0  0
    2.3097   -0.6632    0.0000 C   0  0  0  0  0  0  0  0  0  0  0  0
    3.4532    0.0000    0.0000 C   0  0  0  0  0  0  0  0  0  0  0  0
    1.1549    0.0000    0.0000 C   0  0  0  0  0  0  0  0  0  0  0  0
    0.0000   -0.6632    0.0000 C   0  0  0  0  0  0  0  0  0  0  0  0
    0.0000   -1.9953    0.0000 C   0  0  0  0  0  0  0  0  0  0  0  0
    1.1549   -2.6528    0.0000 C   0  0  0  0  0  0  0  0  0  0  0  0
    2.4755   -4.3737    0.0000 C   0  0  0  0  0  0  0  0  0  0  0  0
    3.4532   -5.2541    0.0000 C   0  0  0  0  0  0  0  0  0  0  0  0
    5.7172   -5.2541    0.0000 C   0  0  0  0  0  0  0  0  0  0  0  0
  1  2  2  0  0  0  0
  1  3  1  0  0  0  0
  2  5  1  0  0  0  0
  2 16  1  0  0  0  0
  3  4  2  0  0  0  0
  3  6  1  0  0  0  0
  4  5  1  0  0  0  0
  4  7  1  0  0  0  0
  5 14  1  0  0  0  0
  5 15  1  0  0  0  0
  6  9  2  0  0  0  0
  7  8  2  0  0  0  0
  7 13  1  0  0  0  0
  8  9  1  0  0  0  0
  8 10  1  0  0  0  0
 10 11  2  0  0  0  0
 11 12  1  0  0  0  0
 12 13  2  0  0  0  0
M  END
> <ID>
10321

> <Formula>
C15H15N

> <FW>
209.2863

> <DSSTox_CID>
24668

> <DSSTox_RID>
80387

> <DSSTox_GSID>
44668

> <DSSTox_FileID_Sort>
5069

> <TS_ChemName>
1,1,2-Trimethyl-1H-benzo[e]indole

> <TS_ChemName_Synonyms>
1H-Benz[e]indole, 1,1,2-trimethyl-

> <TS_CASRN>
41532-84-7

> <CASRN_ChemName_Relationship>
primary

> <TS_Description>
single chemical compound

> <ChemNote>


> <STRUCTURE_Shown>
tested chemical

> <STRUCTURE_Formula>
C15H15N

> <STRUCTURE_MW>
209.2863

> <STRUCTURE_ChemType>
defined organic

> <STRUCTURE_DefinedOrganicForm>
parent

> <STRUCTURE_IUPAC>
1,1,2-trimethyl-1H-benzo[e]indole

> <STRUCTURE_SMILES>
CC3(C)c2c(ccc1ccccc12)N=C3C

> <STRUCTURE_SMILES_Desalt>
CC3(C)c2c(ccc1ccccc12)N=C3C

> <Substance_modify_yyyymmdd>
20091116

$$$$
