41575-94-4
ChemmineR-0915142007XD

 13 14  0  0  0  0  0  0  0  0  1 V2000
    1.4410    0.0000    0.0000 N    0  0  0  0  0  0  0  0  0  0  0  0
    2.2923   -1.0238    0.0000 Pt   0  0  0  0  0  0  0  0  0  0  0  0
    3.1603    0.0000    0.0000 N    0  0  0  0  0  0  0  0  0  0  0  0
    3.4496   -1.6859    0.0000 O    0  0  0  0  0  0  0  0  0  0  0  0
    3.4496   -3.0156    0.0000 C    0  0  0  0  0  0  0  0  0  0  0  0
    4.6013   -3.6722    0.0000 O    0  0  0  0  0  0  0  0  0  0  0  0
    2.2923   -3.6722    0.0000 C    0  0  0  0  0  0  0  0  0  0  0  0
    3.2382   -4.6180    0.0000 C    0  0  0  0  0  0  0  0  0  0  0  0
    2.2923   -5.5639    0.0000 C    0  0  0  0  0  0  0  0  0  0  0  0
    1.3631   -4.6180    0.0000 C    0  0  0  0  0  0  0  0  0  0  0  0
    1.1406   -3.0156    0.0000 C    0  0  0  0  0  0  0  0  0  0  0  0
    0.0000   -3.6722    0.0000 O    0  0  0  0  0  0  0  0  0  0  0  0
    1.1406   -1.6859    0.0000 O    0  0  0  0  0  0  0  0  0  0  0  0
  1  2  1  0  0  0  0
  2  3  1  0  0  0  0
  2  4  1  0  0  0  0
  2 13  1  0  0  0  0
  4  5  1  0  0  0  0
  5  6  2  0  0  0  0
  5  7  1  0  0  0  0
  7  8  1  0  0  0  0
  7 10  1  0  0  0  0
  7 11  1  0  0  0  0
  8  9  1  0  0  0  0
  9 10  1  0  0  0  0
 11 12  2  0  0  0  0
 11 13  1  0  0  0  0
M  END
> <ID>
11934

> <Formula>
C6H10N2O4Pt

> <FW>
369.2386

> <DSSTox_CID>
26742

> <DSSTox_RID>
81870

> <DSSTox_GSID>
46742

> <DSSTox_FileID_Sort>
6551

> <TS_ChemName>
Carboplatin

> <TS_ChemName_Synonyms>


> <TS_CASRN>
41575-94-4

> <CASRN_ChemName_Relationship>
primary

> <TS_Description>
single chemical compound

> <ChemNote>


> <STRUCTURE_Shown>
tested chemical

> <STRUCTURE_Formula>
C6H10N2O4Pt

> <STRUCTURE_MW>
369.2386

> <STRUCTURE_ChemType>
organometallic

> <STRUCTURE_DefinedOrganicForm>


> <STRUCTURE_IUPAC>
diamino[cyclobutane-1,1-dicarboxylato(2-)-kappa~2~O~1~,O~1~]platinum

> <STRUCTURE_SMILES>
O=C2O[Pt](N)(N)OC(=O)C12CCC1

> <STRUCTURE_SMILES_Desalt>
O=C2O[Pt](N)(N)OC(=O)C12CCC1

> <Substance_modify_yyyymmdd>
20110803

$$$$
