41621-49-2
ChemmineR-0915142007XD

 19 19  0  0  0  0  0  0  0  0  1 V2000
    6.6542   -4.6133    0.0000 C   0  0  0  0  0  0  0  0  0  0  0  0
    5.9900   -3.4539    0.0000 C   0  0  0  0  0  0  0  0  0  0  0  0
    6.6542   -2.3066    0.0000 C   0  0  0  0  0  0  0  0  0  0  0  0
    5.9900   -1.1473    0.0000 C   0  0  0  0  0  0  0  0  0  0  0  0
    6.6542    0.0000    0.0000 O   0  0  0  0  0  0  0  0  0  0  0  0
    4.6616   -1.1473    0.0000 N   0  0  0  0  0  0  0  0  0  0  0  0
    3.9973    0.0000    0.0000 O   0  0  0  0  0  0  0  0  0  0  0  0
    3.9973   -2.3066    0.0000 C   0  0  0  0  0  0  0  0  0  0  0  0
    4.6616   -3.4539    0.0000 C   0  0  0  0  0  0  0  0  0  0  0  0
    2.6689   -2.3066    0.0000 C   0  0  0  0  0  0  0  0  0  0  0  0
    1.9926   -1.1473    0.0000 C   0  0  0  0  0  0  0  0  0  0  0  0
    0.6763   -1.1473    0.0000 C   0  0  0  0  0  0  0  0  0  0  0  0
    0.0000   -2.3066    0.0000 C   0  0  0  0  0  0  0  0  0  0  0  0
    0.6763   -3.4539    0.0000 C   0  0  0  0  0  0  0  0  0  0  0  0
    1.9926   -3.4539    0.0000 C   0  0  0  0  0  0  0  0  0  0  0  0
    8.7555   -2.3066    0.0000 N   0  0  0  0  0  0  0  0  0  0  0  0
   10.0839   -2.3066    0.0000 C   0  0  0  0  0  0  0  0  0  0  0  0
   10.7482   -1.1473    0.0000 C   0  0  0  0  0  0  0  0  0  0  0  0
   12.0766   -1.1473    0.0000 O   0  0  0  0  0  0  0  0  0  0  0  0
  1  2  1  0  0  0  0
  2  3  2  0  0  0  0
  2  9  1  0  0  0  0
  3  4  1  0  0  0  0
  4  5  2  0  0  0  0
  4  6  1  0  0  0  0
  6  7  1  0  0  0  0
  6  8  1  0  0  0  0
  8  9  2  0  0  0  0
  8 10  1  0  0  0  0
 10 11  1  0  0  0  0
 10 15  1  0  0  0  0
 11 12  1  0  0  0  0
 12 13  1  0  0  0  0
 13 14  1  0  0  0  0
 14 15  1  0  0  0  0
 16 17  1  0  0  0  0
 17 18  1  0  0  0  0
 18 19  1  0  0  0  0
M  END
> <ID>
11047

> <Formula>
C14H24N2O3

> <FW>
268.3520 (207.2689+61.0831)

> <DSSTox_CID>
25583

> <DSSTox_RID>
80979

> <DSSTox_GSID>
45583

> <DSSTox_FileID_Sort>
5660

> <TS_ChemName>
Ciclopirox olamine

> <TS_ChemName_Synonyms>


> <TS_CASRN>
41621-49-2

> <CASRN_ChemName_Relationship>
primary

> <TS_Description>
single chemical compound

> <ChemNote>
parent [29342-05-0]

> <STRUCTURE_Shown>
tested chemical

> <STRUCTURE_Formula>
C14H24N2O3

> <STRUCTURE_MW>
268.352

> <STRUCTURE_ChemType>
defined organic

> <STRUCTURE_DefinedOrganicForm>
complex

> <STRUCTURE_IUPAC>
6-cyclohexyl-1-hydroxy-4-methylpyridin-2(1H)-one - 2-aminoethanol (1:1)

> <STRUCTURE_SMILES>
CC=2C=C(C1CCCCC1)N(O)C(=O)C=2.NCCO

> <STRUCTURE_SMILES_Desalt>
CC=2C=C(C1CCCCC1)N(O)C(=O)C=2

> <Substance_modify_yyyymmdd>
20100107

$$$$
