4162-45-2
ChemmineR-0915142007XD

 27 28  0  0  0  0  0  0  0  0  1 V2000
    1.2405   -5.0189    0.0000 C    0  0  0  0  0  0  0  0  0  0  0  0
    2.2528   -4.1349    0.0000 C    0  0  0  0  0  0  0  0  0  0  0  0
    0.0000   -4.5769    0.0000 O    0  0  0  0  0  0  0  0  0  0  0  0
   12.9465   -5.9885    0.0000 C    0  0  0  0  0  0  0  0  0  0  0  0
   12.1053   -4.9619    0.0000 C    0  0  0  0  0  0  0  0  0  0  0  0
   14.2583   -5.7746    0.0000 O    0  0  0  0  0  0  0  0  0  0  0  0
    7.4713   -1.0123    0.0000 C    0  0  0  0  0  0  0  0  0  0  0  0
    8.4979   -0.0428    0.0000 C    0  0  0  0  0  0  0  0  0  0  0  0
    6.5731    0.0000    0.0000 C    0  0  0  0  0  0  0  0  0  0  0  0
    9.9666   -4.1206    0.0000 C    0  0  0  0  0  0  0  0  0  0  0  0
   10.4513   -2.8944    0.0000 C    0  0  0  0  0  0  0  0  0  0  0  0
    9.6244   -1.8678    0.0000 C    0  0  0  0  0  0  0  0  0  0  0  0
    8.2983   -2.0675    0.0000 C    0  0  0  0  0  0  0  0  0  0  0  0
    7.8421   -3.2937    0.0000 C    0  0  0  0  0  0  0  0  0  0  0  0
    8.6548   -4.3060    0.0000 C    0  0  0  0  0  0  0  0  0  0  0  0
   11.7488   -2.6378    0.0000 Br   0  0  0  0  0  0  0  0  0  0  0  0
    8.1700   -5.5607    0.0000 Br   0  0  0  0  0  0  0  0  0  0  0  0
    4.4914   -3.6644    0.0000 C    0  0  0  0  0  0  0  0  0  0  0  0
    5.7461   -4.0921    0.0000 C    0  0  0  0  0  0  0  0  0  0  0  0
    6.7157   -3.2081    0.0000 C    0  0  0  0  0  0  0  0  0  0  0  0
    6.4875   -1.9106    0.0000 C    0  0  0  0  0  0  0  0  0  0  0  0
    5.2185   -1.4971    0.0000 C    0  0  0  0  0  0  0  0  0  0  0  0
    4.2205   -2.3669    0.0000 C    0  0  0  0  0  0  0  0  0  0  0  0
    6.0027   -5.4039    0.0000 Br   0  0  0  0  0  0  0  0  0  0  0  0
    2.9800   -1.8821    0.0000 Br   0  0  0  0  0  0  0  0  0  0  0  0
   10.7935   -5.1615    0.0000 O    0  0  0  0  0  0  0  0  0  0  0  0
    3.5075   -4.5484    0.0000 O    0  0  0  0  0  0  0  0  0  0  0  0
  1  2  1  0  0  0  0
  1  3  1  0  0  0  0
  2 27  1  0  0  0  0
  4  5  1  0  0  0  0
  4  6  1  0  0  0  0
  5 26  1  0  0  0  0
  7  8  1  0  0  0  0
  7  9  1  0  0  0  0
  7 13  1  0  0  0  0
  7 21  1  0  0  0  0
 10 15  2  0  0  0  0
 10 11  1  0  0  0  0
 10 26  1  0  0  0  0
 11 12  2  0  0  0  0
 11 16  1  0  0  0  0
 12 13  1  0  0  0  0
 13 14  2  0  0  0  0
 14 15  1  0  0  0  0
 15 17  1  0  0  0  0
 18 23  2  0  0  0  0
 18 19  1  0  0  0  0
 18 27  1  0  0  0  0
 19 20  2  0  0  0  0
 19 24  1  0  0  0  0
 20 21  1  0  0  0  0
 21 22  2  0  0  0  0
 22 23  1  0  0  0  0
 23 25  1  0  0  0  0
M  END
> <ID>
7544

> <Formula>
C19H20Br4O4

> <FW>
631.9757

> <DSSTox_CID>
18922

> <DSSTox_RID>
79418

> <DSSTox_GSID>
38922

> <DSSTox_FileID_Sort>
4100

> <TS_ChemName>
Ethanol, 2,2'-((1-methylethylidene)bis((2,6-dibromo-4,1-phenylene)oxy))bis-

> <TS_ChemName_Synonyms>


> <TS_CASRN>
4162-45-2

> <CASRN_ChemName_Relationship>
primary

> <TS_Description>
single chemical compound

> <ChemNote>


> <STRUCTURE_Shown>
tested chemical

> <STRUCTURE_Formula>
C19H20Br4O4

> <STRUCTURE_MW>
631.9757

> <STRUCTURE_ChemType>
defined organic

> <STRUCTURE_DefinedOrganicForm>
parent

> <STRUCTURE_IUPAC>
2,2'-{propane-2,2-diylbis[(2,6-dibromobenzene-4,1-diyl)oxy]}diethanol

> <STRUCTURE_SMILES>
Brc1cc(cc(Br)c1OCCO)C(C)(C)c2cc(Br)c(OCCO)c(Br)c2

> <STRUCTURE_SMILES_Desalt>
Brc1cc(cc(Br)c1OCCO)C(C)(C)c2cc(Br)c(OCCO)c(Br)c2

> <Substance_modify_yyyymmdd>
20080429

$$$$
