41653-21-8
ChemmineR-0915142007XD

 21 22  0  0  0  0  0  0  0  0  1 V2000
   13.8135   -2.0582    0.0000 C   0  0  0  0  0  0  0  0  0  0  0  0
   12.6531   -2.7213    0.0000 C   0  0  0  0  0  0  0  0  0  0  0  0
   11.5204   -2.0444    0.0000 O   0  0  0  0  0  0  0  0  0  0  0  0
   10.3601   -2.7074    0.0000 C   0  0  0  0  0  0  0  0  0  0  0  0
    9.2136   -2.0444    0.0000 C   0  0  0  0  0  0  0  0  0  0  0  0
    8.0533   -2.7074    0.0000 C   0  0  0  0  0  0  0  0  0  0  0  0
    6.8929   -2.0306    0.0000 C   0  0  0  0  0  0  0  0  0  0  0  0
    6.9206   -0.7183    0.0000 C   0  0  0  0  0  0  0  0  0  0  0  0
    8.0533   -0.0414    0.0000 C   0  0  0  0  0  0  0  0  0  0  0  0
    9.2136   -0.7183    0.0000 C   0  0  0  0  0  0  0  0  0  0  0  0
    5.7602   -0.0414    0.0000 N   0  0  0  0  0  0  0  0  0  0  0  0
    4.5999   -0.6907    0.0000 C   0  0  0  0  0  0  0  0  0  0  0  0
    3.4672   -0.0276    0.0000 C   0  0  0  0  0  0  0  0  0  0  0  0
    2.3069   -0.6769    0.0000 N   0  0  0  0  0  0  0  0  0  0  0  0
    1.1603    0.0000    0.0000 C   0  0  0  0  0  0  0  0  0  0  0  0
    0.0000   -0.6630    0.0000 C   0  0  0  0  0  0  0  0  0  0  0  0
    0.0000   -1.9891    0.0000 C   0  0  0  0  0  0  0  0  0  0  0  0
    1.1603   -2.6660    0.0000 C   0  0  0  0  0  0  0  0  0  0  0  0
    2.3069   -2.0168    0.0000 C   0  0  0  0  0  0  0  0  0  0  0  0
    4.5999   -2.0168    0.0000 O   0  0  0  0  0  0  0  0  0  0  0  0
   10.3601   -4.0335    0.0000 O   0  0  0  0  0  0  0  0  0  0  0  0
  1  2  1  0  0  0  0
  2  3  1  0  0  0  0
  3  4  1  0  0  0  0
  4  5  1  0  0  0  0
  4 21  2  0  0  0  0
  5  6  2  0  0  0  0
  5 10  1  0  0  0  0
  6  7  1  0  0  0  0
  7  8  2  0  0  0  0
  8  9  1  0  0  0  0
  8 11  1  0  0  0  0
  9 10  2  0  0  0  0
 11 12  1  0  0  0  0
 12 13  1  0  0  0  0
 12 20  2  0  0  0  0
 13 14  1  0  0  0  0
 14 15  1  0  0  0  0
 14 19  1  0  0  0  0
 15 16  1  0  0  0  0
 16 17  1  0  0  0  0
 17 18  1  0  0  0  0
 18 19  1  0  0  0  0
M  END
> <ID>
13839

> <Formula>
C16H22N2O3

> <FW>
290.3575

> <DSSTox_CID>
28776

> <DSSTox_RID>
83045

> <DSSTox_GSID>
48850

> <DSSTox_FileID_Sort>
7722

> <TS_ChemName>
Sulcaine

> <TS_ChemName_Synonyms>


> <TS_CASRN>
41653-21-8

> <CASRN_ChemName_Relationship>
primary

> <TS_Description>
single chemical compound

> <ChemNote>


> <STRUCTURE_Shown>
tested chemical

> <STRUCTURE_Formula>
C16H22N2O3

> <STRUCTURE_MW>
290.3575

> <STRUCTURE_ChemType>
defined organic

> <STRUCTURE_DefinedOrganicForm>
parent

> <STRUCTURE_IUPAC>
ethyl 4-[(piperidin-1-ylacetyl)amino]benzoate

> <STRUCTURE_SMILES>
O=C(CN1CCCCC1)Nc2ccc(cc2)C(=O)OCC

> <STRUCTURE_SMILES_Desalt>
O=C(CN1CCCCC1)Nc2ccc(cc2)C(=O)OCC

> <Substance_modify_yyyymmdd>
20122020

$$$$
