41717-30-0
ChemmineR-0915142007XD

 24 27  0  0  0  0  0  0  0  0  1 V2000
    3.5714   -0.2586    0.0000 C   0  0  0  0  0  0  0  0  0  0  0  0
    4.3473   -1.3424    0.0000 C   0  0  0  0  0  0  0  0  0  0  0  0
    3.5714   -2.4138    0.0000 O   0  0  0  0  0  0  0  0  0  0  0  0
    2.2906   -0.6773    0.0000 C   0  0  0  0  0  0  0  0  0  0  0  0
    2.2906   -2.0074    0.0000 C   0  0  0  0  0  0  0  0  0  0  0  0
    1.1576   -2.6724    0.0000 C   0  0  0  0  0  0  0  0  0  0  0  0
    0.0000   -2.0074    0.0000 C   0  0  0  0  0  0  0  0  0  0  0  0
    0.0000   -0.6773    0.0000 C   0  0  0  0  0  0  0  0  0  0  0  0
    1.1576    0.0000    0.0000 C   0  0  0  0  0  0  0  0  0  0  0  0
    5.6650   -1.3424    0.0000 C   0  0  0  0  0  0  0  0  0  0  0  0
    6.3546   -2.4877    0.0000 N   0  0  0  0  0  0  0  0  0  0  0  0
    6.3546   -0.1847    0.0000 O   0  0  0  0  0  0  0  0  0  0  0  0
    7.6847   -2.4877    0.0000 C   0  0  0  0  0  0  0  0  0  0  0  0
    8.3251   -3.6330    0.0000 C   0  0  0  0  0  0  0  0  0  0  0  0
    7.6847   -4.8029    0.0000 N   0  0  0  0  0  0  0  0  0  0  0  0
    6.3546   -4.8029    0.0000 C   0  0  0  0  0  0  0  0  0  0  0  0
    5.6650   -3.6330    0.0000 C   0  0  0  0  0  0  0  0  0  0  0  0
    8.3251   -5.9359    0.0000 C   0  0  0  0  0  0  0  0  0  0  0  0
    9.6551   -5.9359    0.0000 C   0  0  0  0  0  0  0  0  0  0  0  0
   10.3448   -7.0936    0.0000 C   0  0  0  0  0  0  0  0  0  0  0  0
   11.6748   -7.0936    0.0000 C   0  0  0  0  0  0  0  0  0  0  0  0
   12.3152   -5.9359    0.0000 C   0  0  0  0  0  0  0  0  0  0  0  0
   11.6748   -4.8029    0.0000 C   0  0  0  0  0  0  0  0  0  0  0  0
   10.3448   -4.8029    0.0000 C   0  0  0  0  0  0  0  0  0  0  0  0
  1  4  1  0  0  0  0
  1  2  2  0  0  0  0
  2  3  1  0  0  0  0
  2 10  1  0  0  0  0
  3  5  1  0  0  0  0
  4  9  1  0  0  0  0
  4  5  2  0  0  0  0
  5  6  1  0  0  0  0
  6  7  2  0  0  0  0
  7  8  1  0  0  0  0
  8  9  2  0  0  0  0
 10 12  2  0  0  0  0
 10 11  1  0  0  0  0
 11 13  1  0  0  0  0
 11 17  1  0  0  0  0
 13 14  1  0  0  0  0
 14 15  1  0  0  0  0
 15 16  1  0  0  0  0
 15 18  1  0  0  0  0
 16 17  1  0  0  0  0
 18 19  1  0  0  0  0
 19 20  2  0  0  0  0
 19 24  1  0  0  0  0
 20 21  1  0  0  0  0
 21 22  2  0  0  0  0
 22 23  1  0  0  0  0
 23 24  2  0  0  0  0
M  END
> <ID>
11502

> <Formula>
C20H20N2O2

> <FW>
320.385

> <DSSTox_CID>
26206

> <DSSTox_RID>
81435

> <DSSTox_GSID>
46206

> <DSSTox_FileID_Sort>
6116

> <TS_ChemName>
Befuraline

> <TS_ChemName_Synonyms>


> <TS_CASRN>
41717-30-0

> <CASRN_ChemName_Relationship>
primary

> <TS_Description>
single chemical compound

> <ChemNote>


> <STRUCTURE_Shown>
tested chemical

> <STRUCTURE_Formula>
C20H20N2O2

> <STRUCTURE_MW>
320.385

> <STRUCTURE_ChemType>
defined organic

> <STRUCTURE_DefinedOrganicForm>
parent

> <STRUCTURE_IUPAC>
1-benzofuran-2-yl(4-benzylpiperazin-1-yl)methanone

> <STRUCTURE_SMILES>
O=C(c1cc2ccccc2o1)N4CCN(Cc3ccccc3)CC4

> <STRUCTURE_SMILES_Desalt>
O=C(c1cc2ccccc2o1)N4CCN(Cc3ccccc3)CC4

> <Substance_modify_yyyymmdd>
20110817

$$$$
