41748-47-4
ChemmineR-0915142007XD

 31 32  0  0  1  0  0  0  0  0  2 V2000
    0.2820   -8.1153    0.0000 O    0  0  0  0  0  0  0  0  0  0  0  0
    1.6182   -8.1153    0.0000 C    0  0  0  0  0  0  0  0  0  0  0  0
    2.2924   -6.9630    0.0000 C    0  0  0  0  0  0  0  0  0  0  0  0
    3.6163   -6.9630    0.0000 C    0  0  0  0  0  0  0  0  0  0  0  0
    4.2783   -8.1153    0.0000 C    0  0  0  0  0  0  0  0  0  0  0  0
    5.6023   -8.1153    0.0000 C    0  0  0  0  0  0  0  0  0  0  0  0
    6.2765   -6.9630    0.0000 C    0  0  0  0  0  0  0  0  0  0  0  0
    7.6005   -6.9630    0.0000 N    0  0  0  0  0  0  0  0  0  0  0  0
    8.2747   -5.8107    0.0000 C    0  0  0  0  0  0  0  0  0  0  0  0
    7.6005   -4.6583    0.0000 O    0  0  0  0  0  0  0  0  0  0  0  0
    9.5986   -5.8107    0.0000 C    0  0  0  0  0  0  0  0  0  0  0  0
   10.2606   -4.6583    0.0000 C    0  0  0  0  0  0  0  0  0  0  0  0
   11.5846   -4.6583    0.0000 C    0  0  0  0  0  0  0  0  0  0  0  0
   12.2588   -5.8107    0.0000 C    0  0  0  0  0  0  0  0  0  0  0  0
   11.5846   -6.9630    0.0000 C    0  0  0  0  0  0  0  0  0  0  0  0
   10.2606   -6.9630    0.0000 C    0  0  0  0  0  0  0  0  0  0  0  0
    5.6023   -5.8107    0.0000 C    0  0  0  0  0  0  0  0  0  0  0  0
    6.2765   -4.6583    0.0000 O    0  0  0  0  0  0  0  0  0  0  0  0
    4.2783   -5.8107    0.0000 N    0  0  0  0  0  0  0  0  0  0  0  0
    3.6163   -4.6583    0.0000 C    0  0  0  0  0  0  0  0  0  0  0  0
    2.2924   -4.6583    0.0000 C    0  0  0  0  0  0  0  0  0  0  0  0
    1.6182   -3.5060    0.0000 C    0  0  0  0  0  0  0  0  0  0  0  0
    2.2924   -2.3659    0.0000 C    0  0  0  0  0  0  0  0  0  0  0  0
    3.6163   -2.3659    0.0000 C    0  0  0  0  0  0  0  0  0  0  0  0
    4.2783   -3.5060    0.0000 C    0  0  0  0  0  0  0  0  0  0  0  0
    1.6182   -1.2014    0.0000 C    0  0  0  0  0  0  0  0  0  0  0  0
    0.2820   -1.2014    0.0000 O    0  5  0  0  0  0  0  0  0  0  0  0
    2.2924   -0.0490    0.0000 O    0  0  0  0  0  0  0  0  0  0  0  0
    3.6163   -9.2677    0.0000 C    0  0  0  0  0  0  0  0  0  0  0  0
    2.2924   -9.2677    0.0000 C    0  0  0  0  0  0  0  0  0  0  0  0
    0.0000    0.0000    0.0000 Na   0  3  0  0  0  0  0  0  0  0  0  0
  1  2  1  0  0  0  0
  2  3  2  0  0  0  0
  2 30  1  0  0  0  0
  3  4  1  0  0  0  0
  4  5  2  0  0  0  0
  5  6  1  0  0  0  0
  5 29  1  0  0  0  0
  6  7  1  0  0  0  0
  7  8  1  1  0  0  0
  7 17  1  0  0  0  0
  8  9  1  0  0  0  0
  9 10  2  0  0  0  0
  9 11  1  0  0  0  0
 11 12  2  0  0  0  0
 11 16  1  0  0  0  0
 12 13  1  0  0  0  0
 13 14  2  0  0  0  0
 14 15  1  0  0  0  0
 15 16  2  0  0  0  0
 17 18  2  0  0  0  0
 17 19  1  0  0  0  0
 19 20  1  0  0  0  0
 20 21  2  0  0  0  0
 20 25  1  0  0  0  0
 21 22  1  0  0  0  0
 22 23  2  0  0  0  0
 23 24  1  0  0  0  0
 23 26  1  0  0  0  0
 24 25  2  0  0  0  0
 26 27  1  0  0  0  0
 26 28  2  0  0  0  0
 29 30  2  0  0  0  0
M  END
> <ID>
11713

> <Formula>
C23H19N2NaO5

> <FW>
426.3971 (403.4079+22.9892)

> <DSSTox_CID>
26476

> <DSSTox_RID>
81647

> <DSSTox_GSID>
46476

> <DSSTox_FileID_Sort>
6328

> <TS_ChemName>
Bentiromide sodium

> <TS_ChemName_Synonyms>


> <TS_CASRN>
41748-47-4

> <CASRN_ChemName_Relationship>
primary

> <TS_Description>
single chemical compound

> <ChemNote>
stereochem; parent [ 37106-97-1]

> <STRUCTURE_Shown>
tested chemical

> <STRUCTURE_Formula>
C23H19N2NaO5

> <STRUCTURE_MW>
426.3971

> <STRUCTURE_ChemType>
defined organic

> <STRUCTURE_DefinedOrganicForm>
salt

> <STRUCTURE_IUPAC>
sodium 4-[(N-benzoyl-L-tyrosyl)amino]benzoate

> <STRUCTURE_SMILES>
[Na+].Oc3ccc(C[C@H](NC(=O)c1ccccc1)C(=O)Nc2ccc(cc2)C([O-])=O)cc3

> <STRUCTURE_SMILES_Desalt>
Oc3ccc(C[C@H](NC(=O)c1ccccc1)C(=O)Nc2ccc(cc2)C(=O)O)cc3

> <Substance_modify_yyyymmdd>
20110812

$$$$
