41814-78-2
ChemmineR-0915142007XD

 13 15  0  0  0  0  0  0  0  0  1 V2000
    3.5749   -2.4151    0.0000 N   0  0  0  0  0  0  0  0  0  0  0  0
    3.5749   -0.2646    0.0000 S   0  0  0  0  0  0  0  0  0  0  0  0
    4.3236   -1.3061    0.0000 C   0  0  0  0  0  0  0  0  0  0  0  0
    2.3082   -1.9873    0.0000 C   0  0  0  0  0  0  0  0  0  0  0  0
    2.3082   -0.6812    0.0000 C   0  0  0  0  0  0  0  0  0  0  0  0
    1.1766    0.0000    0.0000 C   0  0  0  0  0  0  0  0  0  0  0  0
    0.0000   -0.6812    0.0000 C   0  0  0  0  0  0  0  0  0  0  0  0
    0.0000   -1.9873    0.0000 C   0  0  0  0  0  0  0  0  0  0  0  0
    1.1766   -2.6910    0.0000 C   0  0  0  0  0  0  0  0  0  0  0  0
    5.6297   -3.0288    0.0000 N   0  0  0  0  0  0  0  0  0  0  0  0
    5.6297   -1.7058    0.0000 N   0  0  0  0  0  0  0  0  0  0  0  0
    4.3236   -3.4510    0.0000 C   0  0  0  0  0  0  0  0  0  0  0  0
    1.1766   -4.0140    0.0000 C   0  0  0  0  0  0  0  0  0  0  0  0
  1  3  1  0  0  0  0
  1  4  1  0  0  0  0
  1 12  1  0  0  0  0
  2  3  1  0  0  0  0
  2  5  1  0  0  0  0
  3 11  2  0  0  0  0
  4  5  1  0  0  0  0
  4  9  2  0  0  0  0
  5  6  2  0  0  0  0
  6  7  1  0  0  0  0
  7  8  2  0  0  0  0
  8  9  1  0  0  0  0
  9 13  1  0  0  0  0
 10 11  1  0  0  0  0
 10 12  2  0  0  0  0
M  END
> <ID>
7296

> <Formula>
C9H7N3S

> <FW>
189.237

> <DSSTox_CID>
17478

> <DSSTox_RID>
79320

> <DSSTox_GSID>
37478

> <DSSTox_FileID_Sort>
4002

> <TS_ChemName>
2,7,8,9-Tricyclazole

> <TS_ChemName_Synonyms>


> <TS_CASRN>
41814-78-2

> <CASRN_ChemName_Relationship>
primary

> <TS_Description>
single chemical compound

> <ChemNote>


> <STRUCTURE_Shown>
tested chemical

> <STRUCTURE_Formula>
C9H7N3S

> <STRUCTURE_MW>
189.237

> <STRUCTURE_ChemType>
defined organic

> <STRUCTURE_DefinedOrganicForm>
parent

> <STRUCTURE_IUPAC>
5-methyl[1,2,4]triazolo[3,4-b][1,3]benzothiazole

> <STRUCTURE_SMILES>
Cc1cccc2sc3nncn3c12

> <STRUCTURE_SMILES_Desalt>
Cc1cccc2sc3nncn3c12

> <Substance_modify_yyyymmdd>
20080429

$$$$
