41826-92-0
ChemmineR-0915142007XD

 22 22  0  0  0  0  0  0  0  0  1 V2000
    0.0000   -2.0034    0.0000 C   0  0  0  0  0  0  0  0  0  0  0  0
    1.1514   -2.6597    0.0000 C   0  0  0  0  0  0  0  0  0  0  0  0
    2.3028   -2.0034    0.0000 O   0  0  0  0  0  0  0  0  0  0  0  0
    3.4542   -2.6597    0.0000 C   0  0  0  0  0  0  0  0  0  0  0  0
    4.6056   -2.0034    0.0000 C   0  0  0  0  0  0  0  0  0  0  0  0
    5.7570   -2.6597    0.0000 C   0  0  0  0  0  0  0  0  0  0  0  0
    5.7570   -3.9954    0.0000 C   0  0  0  0  0  0  0  0  0  0  0  0
    4.6056   -4.6632    0.0000 C   0  0  0  0  0  0  0  0  0  0  0  0
    3.4542   -3.9954    0.0000 C   0  0  0  0  0  0  0  0  0  0  0  0
    2.3028   -4.6632    0.0000 O   0  0  0  0  0  0  0  0  0  0  0  0
    1.1514   -3.9954    0.0000 C   0  0  0  0  0  0  0  0  0  0  0  0
    0.0000   -4.6632    0.0000 C   0  0  0  0  0  0  0  0  0  0  0  0
    6.9084   -4.6632    0.0000 C   0  0  0  0  0  0  0  0  0  0  0  0
    6.9084   -5.9873    0.0000 O   0  0  0  0  0  0  0  0  0  0  0  0
    8.0598   -3.9954    0.0000 C   0  0  0  0  0  0  0  0  0  0  0  0
    9.2112   -4.6632    0.0000 C   0  0  0  0  0  0  0  0  0  0  0  0
   10.3626   -3.9954    0.0000 C   0  0  0  0  0  0  0  0  0  0  0  0
   11.5140   -4.6632    0.0000 O   0  0  0  0  0  0  0  0  0  0  0  0
   10.3626   -2.6597    0.0000 O   0  0  0  0  0  0  0  0  0  0  0  0
    6.9084   -2.0034    0.0000 O   0  0  0  0  0  0  0  0  0  0  0  0
    6.9084   -0.6678    0.0000 C   0  0  0  0  0  0  0  0  0  0  0  0
    8.0598    0.0000    0.0000 C   0  0  0  0  0  0  0  0  0  0  0  0
  1  2  1  0  0  0  0
  2  3  1  0  0  0  0
  3  4  1  0  0  0  0
  4  5  2  0  0  0  0
  4  9  1  0  0  0  0
  5  6  1  0  0  0  0
  6  7  2  0  0  0  0
  6 20  1  0  0  0  0
  7  8  1  0  0  0  0
  7 13  1  0  0  0  0
  8  9  2  0  0  0  0
  9 10  1  0  0  0  0
 10 11  1  0  0  0  0
 11 12  1  0  0  0  0
 13 14  2  0  0  0  0
 13 15  1  0  0  0  0
 15 16  1  0  0  0  0
 16 17  1  0  0  0  0
 17 18  1  0  0  0  0
 17 19  2  0  0  0  0
 20 21  1  0  0  0  0
 21 22  1  0  0  0  0
M  END
> <ID>
11846

> <Formula>
C16H22O6

> <FW>
310.3423

> <DSSTox_CID>
26634

> <DSSTox_RID>
81781

> <DSSTox_GSID>
46634

> <DSSTox_FileID_Sort>
6462

> <TS_ChemName>
Trepibutone

> <TS_ChemName_Synonyms>


> <TS_CASRN>
41826-92-0

> <CASRN_ChemName_Relationship>
primary

> <TS_Description>
single chemical compound

> <ChemNote>


> <STRUCTURE_Shown>
tested chemical

> <STRUCTURE_Formula>
C16H22O6

> <STRUCTURE_MW>
310.3423

> <STRUCTURE_ChemType>
defined organic

> <STRUCTURE_DefinedOrganicForm>
parent

> <STRUCTURE_IUPAC>
4-oxo-4-(2,4,5-triethoxyphenyl)butanoic acid

> <STRUCTURE_SMILES>
CCOc1cc(OCC)c(cc1OCC)C(=O)CCC(=O)O

> <STRUCTURE_SMILES_Desalt>
CCOc1cc(OCC)c(cc1OCC)C(=O)CCC(=O)O

> <Substance_modify_yyyymmdd>
20110809

$$$$
