41859-67-0
ChemmineR-0915142007XD

 25 26  0  0  0  0  0  0  0  0  1 V2000
   13.8087   -3.9799    0.0000 C    0  0  0  0  0  0  0  0  0  0  0  0
   14.9528   -3.3031    0.0000 C    0  0  0  0  0  0  0  0  0  0  0  0
    4.6083   -2.6586    0.0000 C    0  0  0  0  0  0  0  0  0  0  0  0
   12.6486   -4.6405    0.0000 O    0  0  0  0  0  0  0  0  0  0  0  0
    3.4482   -1.9819    0.0000 C    0  0  0  0  0  0  0  0  0  0  0  0
   16.1129   -3.9799    0.0000 O    0  0  0  0  0  0  0  0  0  0  0  0
    4.6083   -3.9799    0.0000 O    0  0  0  0  0  0  0  0  0  0  0  0
    5.7523   -1.9819    0.0000 N    0  0  0  0  0  0  0  0  0  0  0  0
    2.3041   -2.6586    0.0000 C    0  0  0  0  0  0  0  0  0  0  0  0
    3.4482   -0.6445    0.0000 C    0  0  0  0  0  0  0  0  0  0  0  0
   11.5046   -3.9799    0.0000 C    0  0  0  0  0  0  0  0  0  0  0  0
   14.9528   -1.9819    0.0000 O    0  0  0  0  0  0  0  0  0  0  0  0
    1.1440   -0.6445    0.0000 C    0  0  0  0  0  0  0  0  0  0  0  0
    1.1440   -1.9819    0.0000 C    0  0  0  0  0  0  0  0  0  0  0  0
    2.3041    0.0000    0.0000 C    0  0  0  0  0  0  0  0  0  0  0  0
    9.2005   -2.6586    0.0000 C    0  0  0  0  0  0  0  0  0  0  0  0
    0.0000    0.0000    0.0000 Cl   0  0  0  0  0  0  0  0  0  0  0  0
   10.3445   -4.6405    0.0000 C    0  0  0  0  0  0  0  0  0  0  0  0
   11.5046   -2.6586    0.0000 C    0  0  0  0  0  0  0  0  0  0  0  0
    9.2005   -3.9799    0.0000 C    0  0  0  0  0  0  0  0  0  0  0  0
   10.3445   -1.9819    0.0000 C    0  0  0  0  0  0  0  0  0  0  0  0
    6.9124   -2.6586    0.0000 C    0  0  0  0  0  0  0  0  0  0  0  0
   13.1320   -2.8198    0.0000 C    0  0  0  0  0  0  0  0  0  0  0  0
   14.4694   -5.1239    0.0000 C    0  0  0  0  0  0  0  0  0  0  0  0
    8.0403   -1.9819    0.0000 C    0  0  0  0  0  0  0  0  0  0  0  0
  1  2  1  0  0  0  0
  1  4  1  0  0  0  0
  1 23  1  0  0  0  0
  1 24  1  0  0  0  0
  2  6  2  0  0  0  0
  2 12  1  0  0  0  0
  3  8  1  0  0  0  0
  3  5  1  0  0  0  0
  3  7  2  0  0  0  0
  4 11  1  0  0  0  0
  5  9  1  0  0  0  0
  5 10  2  0  0  0  0
  8 22  1  0  0  0  0
  9 14  2  0  0  0  0
 10 15  1  0  0  0  0
 11 18  2  0  0  0  0
 11 19  1  0  0  0  0
 13 15  2  0  0  0  0
 13 17  1  0  0  0  0
 13 14  1  0  0  0  0
 16 21  1  0  0  0  0
 16 25  1  0  0  0  0
 16 20  2  0  0  0  0
 18 20  1  0  0  0  0
 19 21  2  0  0  0  0
 22 25  1  0  0  0  0
M  END
> <ID>
6242

> <Formula>
C19H20ClNO4

> <FW>
361.8194

> <DSSTox_CID>
9869

> <DSSTox_RID>
78826

> <DSSTox_GSID>
29869

> <DSSTox_FileID_Sort>
3508

> <TS_ChemName>
Bezafibrate

> <TS_ChemName_Synonyms>


> <TS_CASRN>
41859-67-0

> <CASRN_ChemName_Relationship>
primary

> <TS_Description>
single chemical compound

> <ChemNote>


> <STRUCTURE_Shown>
tested chemical

> <STRUCTURE_Formula>
C19H20ClNO4

> <STRUCTURE_MW>
361.8194

> <STRUCTURE_ChemType>
defined organic

> <STRUCTURE_DefinedOrganicForm>
parent

> <STRUCTURE_IUPAC>
2-(4-{2-[(4-chlorobenzoyl)amino]ethyl}phenoxy)-2-methylpropanoic acid

> <STRUCTURE_SMILES>
O=C(NCCc1ccc(OC(C)(C)C(=O)O)cc1)c2ccc(Cl)cc2

> <STRUCTURE_SMILES_Desalt>
O=C(NCCc1ccc(OC(C)(C)C(=O)O)cc1)c2ccc(Cl)cc2

> <Substance_modify_yyyymmdd>
20080429

$$$$
