4196-86-5
ChemmineR-0915142007XD

 41 44  0  0  0  0  0  0  0  0  1 V2000
    6.6484   -3.4599    0.0000 C   0  0  0  0  0  0  0  0  0  0  0  0
    7.8017   -2.7950    0.0000 C   0  0  0  0  0  0  0  0  0  0  0  0
    8.9550   -3.4599    0.0000 O   0  0  0  0  0  0  0  0  0  0  0  0
   10.1083   -2.7950    0.0000 C   0  0  0  0  0  0  0  0  0  0  0  0
   10.1083   -1.4654    0.0000 O   0  0  0  0  0  0  0  0  0  0  0  0
   11.2616   -3.4599    0.0000 C   0  0  0  0  0  0  0  0  0  0  0  0
   12.4149   -2.7950    0.0000 C   0  0  0  0  0  0  0  0  0  0  0  0
   13.5682   -3.4599    0.0000 C   0  0  0  0  0  0  0  0  0  0  0  0
   13.5682   -4.7896    0.0000 C   0  0  0  0  0  0  0  0  0  0  0  0
   12.4149   -5.4544    0.0000 C   0  0  0  0  0  0  0  0  0  0  0  0
   11.2616   -4.7896    0.0000 C   0  0  0  0  0  0  0  0  0  0  0  0
    5.4951   -4.1247    0.0000 C   0  0  0  0  0  0  0  0  0  0  0  0
    4.3554   -3.4599    0.0000 O   0  0  0  0  0  0  0  0  0  0  0  0
    3.2021   -4.1247    0.0000 C   0  0  0  0  0  0  0  0  0  0  0  0
    2.0488   -3.4599    0.0000 O   0  0  0  0  0  0  0  0  0  0  0  0
    3.2021   -5.4544    0.0000 C   0  0  0  0  0  0  0  0  0  0  0  0
    4.3554   -6.1193    0.0000 C   0  0  0  0  0  0  0  0  0  0  0  0
    4.3554   -7.4489    0.0000 C   0  0  0  0  0  0  0  0  0  0  0  0
    3.2021   -8.1138    0.0000 C   0  0  0  0  0  0  0  0  0  0  0  0
    2.0488   -7.4489    0.0000 C   0  0  0  0  0  0  0  0  0  0  0  0
    2.0488   -6.1193    0.0000 C   0  0  0  0  0  0  0  0  0  0  0  0
    7.3133   -4.6132    0.0000 C   0  0  0  0  0  0  0  0  0  0  0  0
    6.6484   -5.7665    0.0000 O   0  0  0  0  0  0  0  0  0  0  0  0
    7.3133   -6.9198    0.0000 C   0  0  0  0  0  0  0  0  0  0  0  0
    6.6484   -8.0595    0.0000 O   0  0  0  0  0  0  0  0  0  0  0  0
    8.6429   -6.9198    0.0000 C   0  0  0  0  0  0  0  0  0  0  0  0
    9.3214   -5.7665    0.0000 C   0  0  0  0  0  0  0  0  0  0  0  0
   10.6510   -5.7665    0.0000 C   0  0  0  0  0  0  0  0  0  0  0  0
   11.3159   -6.9198    0.0000 C   0  0  0  0  0  0  0  0  0  0  0  0
   10.6510   -8.0595    0.0000 C   0  0  0  0  0  0  0  0  0  0  0  0
    9.3214   -8.0595    0.0000 C   0  0  0  0  0  0  0  0  0  0  0  0
    5.9836   -2.3066    0.0000 C   0  0  0  0  0  0  0  0  0  0  0  0
    4.6539   -2.3066    0.0000 O   0  0  0  0  0  0  0  0  0  0  0  0
    3.9890   -1.1533    0.0000 C   0  0  0  0  0  0  0  0  0  0  0  0
    4.6539    0.0000    0.0000 O   0  0  0  0  0  0  0  0  0  0  0  0
    2.6594   -1.1533    0.0000 C   0  0  0  0  0  0  0  0  0  0  0  0
    1.9945   -2.3066    0.0000 C   0  0  0  0  0  0  0  0  0  0  0  0
    0.6648   -2.3066    0.0000 C   0  0  0  0  0  0  0  0  0  0  0  0
    0.0000   -1.1533    0.0000 C   0  0  0  0  0  0  0  0  0  0  0  0
    0.6648    0.0000    0.0000 C   0  0  0  0  0  0  0  0  0  0  0  0
    1.9945    0.0000    0.0000 C   0  0  0  0  0  0  0  0  0  0  0  0
  1  2  1  0  0  0  0
  1 12  1  0  0  0  0
  1 22  1  0  0  0  0
  1 32  1  0  0  0  0
  2  3  1  0  0  0  0
  3  4  1  0  0  0  0
  4  5  2  0  0  0  0
  4  6  1  0  0  0  0
  6  7  2  0  0  0  0
  6 11  1  0  0  0  0
  7  8  1  0  0  0  0
  8  9  2  0  0  0  0
  9 10  1  0  0  0  0
 10 11  2  0  0  0  0
 12 13  1  0  0  0  0
 13 14  1  0  0  0  0
 14 15  2  0  0  0  0
 14 16  1  0  0  0  0
 16 17  2  0  0  0  0
 16 21  1  0  0  0  0
 17 18  1  0  0  0  0
 18 19  2  0  0  0  0
 19 20  1  0  0  0  0
 20 21  2  0  0  0  0
 22 23  1  0  0  0  0
 23 24  1  0  0  0  0
 24 25  2  0  0  0  0
 24 26  1  0  0  0  0
 26 27  2  0  0  0  0
 26 31  1  0  0  0  0
 27 28  1  0  0  0  0
 28 29  2  0  0  0  0
 29 30  1  0  0  0  0
 30 31  2  0  0  0  0
 32 33  1  0  0  0  0
 33 34  1  0  0  0  0
 34 35  2  0  0  0  0
 34 36  1  0  0  0  0
 36 37  2  0  0  0  0
 36 41  1  0  0  0  0
 37 38  1  0  0  0  0
 38 39  2  0  0  0  0
 39 40  1  0  0  0  0
 40 41  2  0  0  0  0
M  END
> <ID>
3762

> <Formula>
C33H28O8

> <FW>
552.5706

> <DSSTox_CID>
4608

> <DSSTox_RID>
77467

> <DSSTox_GSID>
24608

> <DSSTox_FileID_Sort>
2150

> <TS_ChemName>
2,2-Bis[(benzoyloxy)methyl]dibenzoate propanediol

> <TS_ChemName_Synonyms>
Propanediol (2,2-bis (benzoyloxy)methyl)-dibenzoate

> <TS_CASRN>
4196-86-5

> <CASRN_ChemName_Relationship>
primary

> <TS_Description>
single chemical compound

> <ChemNote>


> <STRUCTURE_Shown>
tested chemical

> <STRUCTURE_Formula>
C33H28O8

> <STRUCTURE_MW>
552.5706

> <STRUCTURE_ChemType>
defined organic

> <STRUCTURE_DefinedOrganicForm>
parent

> <STRUCTURE_IUPAC>
3-(benzoyloxy)-2,2-bis[(benzoyloxy)methyl]propyl benzoate

> <STRUCTURE_SMILES>
O=C(OCC(COC(=O)c1ccccc1)(COC(=O)c2ccccc2)COC(=O)c3ccccc3)c4ccccc4

> <STRUCTURE_SMILES_Desalt>
O=C(OCC(COC(=O)c1ccccc1)(COC(=O)c2ccccc2)COC(=O)c3ccccc3)c4ccccc4

> <Substance_modify_yyyymmdd>
20080429

$$$$
