4196-89-8
ChemmineR-0915142007XD

 23 24  0  0  0  0  0  0  0  0  1 V2000
    5.7663   -2.6688    0.0000 C   0  0  0  0  0  0  0  0  0  0  0  0
    6.9140   -2.0189    0.0000 C   0  0  0  0  0  0  0  0  0  0  0  0
    8.0617   -1.3551    0.0000 C   0  0  0  0  0  0  0  0  0  0  0  0
    4.6185   -2.0189    0.0000 O   0  0  0  0  0  0  0  0  0  0  0  0
    9.2094   -2.0189    0.0000 O   0  0  0  0  0  0  0  0  0  0  0  0
    7.5777   -3.1666    0.0000 C   0  0  0  0  0  0  0  0  0  0  0  0
    6.2502   -0.8712    0.0000 C   0  0  0  0  0  0  0  0  0  0  0  0
    3.4570   -2.6688    0.0000 C   0  0  0  0  0  0  0  0  0  0  0  0
    3.4570   -4.0101    0.0000 O   0  0  0  0  0  0  0  0  0  0  0  0
    2.2954   -2.0189    0.0000 C   0  0  0  0  0  0  0  0  0  0  0  0
    1.1477   -2.6688    0.0000 C   0  0  0  0  0  0  0  0  0  0  0  0
    2.2954   -0.6776    0.0000 C   0  0  0  0  0  0  0  0  0  0  0  0
    0.0000   -2.0189    0.0000 C   0  0  0  0  0  0  0  0  0  0  0  0
    1.1616    0.0000    0.0000 C   0  0  0  0  0  0  0  0  0  0  0  0
    0.0000   -0.6776    0.0000 C   0  0  0  0  0  0  0  0  0  0  0  0
   10.3710   -1.3551    0.0000 C   0  0  0  0  0  0  0  0  0  0  0  0
   10.3710   -0.0138    0.0000 O   0  0  0  0  0  0  0  0  0  0  0  0
   11.5325   -2.0189    0.0000 C   0  0  0  0  0  0  0  0  0  0  0  0
   11.5325   -3.3464    0.0000 C   0  0  0  0  0  0  0  0  0  0  0  0
   12.6803   -1.3551    0.0000 C   0  0  0  0  0  0  0  0  0  0  0  0
   12.6664   -4.0239    0.0000 C   0  0  0  0  0  0  0  0  0  0  0  0
   13.8280   -2.0189    0.0000 C   0  0  0  0  0  0  0  0  0  0  0  0
   13.8280   -3.3464    0.0000 C   0  0  0  0  0  0  0  0  0  0  0  0
  1  2  1  0  0  0  0
  1  4  1  0  0  0  0
  2  3  1  0  0  0  0
  2  6  1  0  0  0  0
  2  7  1  0  0  0  0
  3  5  1  0  0  0  0
  4  8  1  0  0  0  0
  5 16  1  0  0  0  0
  8  9  2  0  0  0  0
  8 10  1  0  0  0  0
 10 11  2  0  0  0  0
 10 12  1  0  0  0  0
 11 13  1  0  0  0  0
 12 14  2  0  0  0  0
 13 15  2  0  0  0  0
 14 15  1  0  0  0  0
 16 17  2  0  0  0  0
 16 18  1  0  0  0  0
 18 19  2  0  0  0  0
 18 20  1  0  0  0  0
 19 21  1  0  0  0  0
 20 22  2  0  0  0  0
 21 23  2  0  0  0  0
 22 23  1  0  0  0  0
M  END
> <ID>
7510

> <Formula>
C19H20O4

> <FW>
312.3597

> <DSSTox_CID>
18822

> <DSSTox_RID>
79403

> <DSSTox_GSID>
38822

> <DSSTox_FileID_Sort>
4085

> <TS_ChemName>
1,3-Propanediol, 2,2-dimethyl-, dibenzoate

> <TS_ChemName_Synonyms>


> <TS_CASRN>
4196-89-8

> <CASRN_ChemName_Relationship>
primary

> <TS_Description>
single chemical compound

> <ChemNote>


> <STRUCTURE_Shown>
tested chemical

> <STRUCTURE_Formula>
C19H20O4

> <STRUCTURE_MW>
312.3597

> <STRUCTURE_ChemType>
defined organic

> <STRUCTURE_DefinedOrganicForm>
parent

> <STRUCTURE_IUPAC>
2,2-dimethylpropane-1,3-diyl dibenzoate

> <STRUCTURE_SMILES>
CC(C)(COC(=O)c1ccccc1)COC(=O)c2ccccc2

> <STRUCTURE_SMILES_Desalt>
CC(C)(COC(=O)c1ccccc1)COC(=O)c2ccccc2

> <Substance_modify_yyyymmdd>
20080429

$$$$
