420-04-2
ChemmineR-0915142007XD

  3  2  0  0  0  0  0  0  0  0  1 V2000
      1.33      0.00      0.00 C   0  0  0  0  0  0  0  0  0  0  0  0
      2.66      0.00      0.00 N   0  0  0  0  0  0  0  0  0  0  0  0
      0.00      0.00      0.00 N   0  0  0  0  0  0  0  0  0  0  0  0
  1  2  3  0  0  0  0
  1  3  1  0  0  0  0
M  END
> <ID>
6807

> <Formula>
CH2N2

> <FW>
42.04

> <DSSTox_CID>
14490

> <DSSTox_RID>
79157

> <DSSTox_GSID>
34490

> <DSSTox_FileID_Sort>
3839

> <TS_ChemName>
Cyanamide

> <TS_ChemName_Synonyms>


> <TS_CASRN>
420-04-2

> <CASRN_ChemName_Relationship>
primary

> <TS_Description>
single chemical compound

> <ChemNote>


> <STRUCTURE_Shown>
tested chemical

> <STRUCTURE_Formula>
CH2N2

> <STRUCTURE_MW>
42.04

> <STRUCTURE_ChemType>
defined organic

> <STRUCTURE_DefinedOrganicForm>
parent

> <STRUCTURE_IUPAC>
cyanamide

> <STRUCTURE_SMILES>
N#CN

> <STRUCTURE_SMILES_Desalt>
N#CN

> <Substance_modify_yyyymmdd>
20080429

$$$$
