42019-78-3
ChemmineR-0915142007XD

 16 17  0  0  0  0  0  0  0  0  1 V2000
    5.7747   -1.9865    0.0000 C    0  0  0  0  0  0  0  0  0  0  0  0
    6.9297   -1.3305    0.0000 C    0  0  0  0  0  0  0  0  0  0  0  0
    8.0846   -1.9865    0.0000 C    0  0  0  0  0  0  0  0  0  0  0  0
    8.0846   -3.3170    0.0000 C    0  0  0  0  0  0  0  0  0  0  0  0
    6.9297   -3.9730    0.0000 C    0  0  0  0  0  0  0  0  0  0  0  0
    5.7747   -3.3170    0.0000 C    0  0  0  0  0  0  0  0  0  0  0  0
    4.6198   -1.3305    0.0000 C    0  0  0  0  0  0  0  0  0  0  0  0
    4.6198    0.0000    0.0000 O    0  0  0  0  0  0  0  0  0  0  0  0
    3.4648   -1.9865    0.0000 C    0  0  0  0  0  0  0  0  0  0  0  0
    3.4648   -3.3170    0.0000 C    0  0  0  0  0  0  0  0  0  0  0  0
    2.3099   -3.9915    0.0000 C    0  0  0  0  0  0  0  0  0  0  0  0
    1.1549   -3.3170    0.0000 C    0  0  0  0  0  0  0  0  0  0  0  0
    1.1549   -1.9865    0.0000 C    0  0  0  0  0  0  0  0  0  0  0  0
    2.3099   -1.3305    0.0000 C    0  0  0  0  0  0  0  0  0  0  0  0
    9.2396   -3.9730    0.0000 O    0  0  0  0  0  0  0  0  0  0  0  0
    0.0000   -3.9730    0.0000 Cl   0  0  0  0  0  0  0  0  0  0  0  0
  1  7  1  0  0  0  0
  1  6  2  0  0  0  0
  1  2  1  0  0  0  0
  2  3  2  0  0  0  0
  3  4  1  0  0  0  0
  4  5  2  0  0  0  0
  4 15  1  0  0  0  0
  5  6  1  0  0  0  0
  7  8  2  0  0  0  0
  7  9  1  0  0  0  0
  9 10  2  0  0  0  0
  9 14  1  0  0  0  0
 10 11  1  0  0  0  0
 11 12  2  0  0  0  0
 12 13  1  0  0  0  0
 12 16  1  0  0  0  0
 13 14  2  0  0  0  0
M  END
> <ID>
13035

> <Formula>
C13H9ClO2

> <FW>
232.6624

> <DSSTox_CID>
27937

> <DSSTox_RID>
82689

> <DSSTox_GSID>
47961

> <DSSTox_FileID_Sort>
7366

> <TS_ChemName>
4-Hydroxy-4'-chlorobenzophenone

> <TS_ChemName_Synonyms>


> <TS_CASRN>
42019-78-3

> <CASRN_ChemName_Relationship>
primary

> <TS_Description>
single chemical compound

> <ChemNote>


> <STRUCTURE_Shown>
tested chemical

> <STRUCTURE_Formula>
C13H9ClO2

> <STRUCTURE_MW>
232.6624

> <STRUCTURE_ChemType>
defined organic

> <STRUCTURE_DefinedOrganicForm>
parent

> <STRUCTURE_IUPAC>
(4-chlorophenyl)(4-hydroxyphenyl)methanone

> <STRUCTURE_SMILES>
O=C(c1ccc(Cl)cc1)c2ccc(O)cc2

> <STRUCTURE_SMILES_Desalt>
O=C(c1ccc(Cl)cc1)c2ccc(O)cc2

> <Substance_modify_yyyymmdd>
20110418

$$$$
