42011-76-7
ChemmineR-0915142007XD

 17 16  0  0  1  0  0  0  0  0  1 V2000
    4.6204   -1.9952    0.0000 C    0  0  0  0  0  0  0  0  0  0  0  0
    4.6204   -3.3199    0.0000 C    0  0  0  0  0  0  0  0  0  0  0  0
    3.4573   -1.3247    0.0000 C    0  0  0  0  0  0  0  0  0  0  0  0
    3.4573   -3.9823    0.0000 C    0  0  0  0  0  0  0  0  0  0  0  0
    2.3021   -1.9952    0.0000 C    0  0  0  0  0  0  0  0  0  0  0  0
    2.3021   -3.3199    0.0000 C    0  0  0  0  0  0  0  0  0  0  0  0
    1.1551   -3.9823    0.0000 C    0  0  0  0  0  0  0  0  0  0  0  0
    1.1551   -1.3247    0.0000 O    0  0  0  0  0  0  0  0  0  0  0  0
    1.1551    0.0000    0.0000 C    0  0  0  0  0  0  0  0  0  0  0  0
    5.7756   -1.3247    0.0000 C    0  0  0  0  0  0  0  0  0  0  0  0
    6.9226   -1.9790    0.0000 C    0  0  0  0  0  0  0  0  0  0  0  0
    5.7756   -3.9823    0.0000 O    0  0  0  0  0  0  0  0  0  0  0  0
    5.7756   -5.3071    0.0000 C    0  0  0  0  0  0  0  0  0  0  0  0
    8.0777   -1.3247    0.0000 N    0  0  0  0  0  0  0  0  0  0  0  0
    6.9226   -3.3038    0.0000 C    0  0  0  0  0  0  0  0  0  0  0  0
    0.0000   -3.3038    0.0000 C    0  0  0  0  0  0  0  0  0  0  0  0
    3.4088   -5.0001    0.0000 Cl   0  0  0  0  0  0  0  0  0  0  0  0
  1  2  1  0  0  0  0
  1  3  2  0  0  0  0
  1 10  1  0  0  0  0
  2  4  2  0  0  0  0
  2 12  1  0  0  0  0
  3  5  1  0  0  0  0
  4  6  1  0  0  0  0
  5  6  2  0  0  0  0
  5  8  1  0  0  0  0
  6  7  1  0  0  0  0
  7 16  1  0  0  0  0
  8  9  1  0  0  0  0
 10 11  1  0  0  0  0
 11 14  1  6  0  0  0
 11 15  1  0  0  0  0
 12 13  1  0  0  0  0
M  END
> <ID>
13878

> <Formula>
C13H22ClNO2

> <FW>
259.7723 (223.3113+36.4609)

> <DSSTox_CID>
28815

> <DSSTox_RID>
83084

> <DSSTox_GSID>
48889

> <DSSTox_FileID_Sort>
7761

> <TS_ChemName>
(-)-2,5-Dimethoxy-4-ethylamphetamine hydrochloride

> <TS_ChemName_Synonyms>


> <TS_CASRN>
42011-76-7

> <CASRN_ChemName_Relationship>
primary

> <TS_Description>
single chemical compound

> <ChemNote>
stereochem

> <STRUCTURE_Shown>
tested chemical

> <STRUCTURE_Formula>
C13H22ClNO2

> <STRUCTURE_MW>
259.7723

> <STRUCTURE_ChemType>
defined organic

> <STRUCTURE_DefinedOrganicForm>
complex

> <STRUCTURE_IUPAC>
(2R)-1-(4-ethyl-2,5-dimethoxyphenyl)propan-2-amine hydrochloride (1:1)

> <STRUCTURE_SMILES>
Cl.COc1cc(CC)c(cc1C[C@@H](C)N)OC

> <STRUCTURE_SMILES_Desalt>
COc1cc(CC)c(cc1C[C@@H](C)N)OC

> <Substance_modify_yyyymmdd>
20111204

$$$$
