42024-98-6
ChemmineR-0915142007XD

 27 30  0  0  0  0  0  0  0  0  1 V2000
    1.5311   -0.3718    0.0000 C   0  0  0  0  0  0  0  0  0  0  0  0
    1.7061   -1.6405    0.0000 N   0  0  0  0  0  0  0  0  0  0  0  0
    0.1531   -2.8216    0.0000 C   0  0  0  0  0  0  0  0  0  0  0  0
    0.4921   -1.5858    0.0000 C   0  0  0  0  0  0  0  0  0  0  0  0
    1.6186   -0.9515    0.0000 C   0  0  0  0  0  0  0  0  0  0  0  0
    2.8544   -1.2686    0.0000 C   0  0  0  0  0  0  0  0  0  0  0  0
    4.0465   -0.7765    0.0000 C   0  0  0  0  0  0  0  0  0  0  0  0
    3.0294    0.0000    0.0000 C   0  0  0  0  0  0  0  0  0  0  0  0
    3.4887   -2.3841    0.0000 C   0  0  0  0  0  0  0  0  0  0  0  0
    3.1606   -3.6309    0.0000 C   0  0  0  0  0  0  0  0  0  0  0  0
    2.0451   -4.2762    0.0000 C   0  0  0  0  0  0  0  0  0  0  0  0
    0.8093   -3.9371    0.0000 C   0  0  0  0  0  0  0  0  0  0  0  0
    2.2201   -5.5557    0.0000 O   0  0  0  0  0  0  0  0  0  0  0  0
    1.1921   -6.3431    0.0000 C   0  0  0  0  0  0  0  0  0  0  0  0
    0.0000   -5.8510    0.0000 O   0  0  0  0  0  0  0  0  0  0  0  0
    1.3671   -7.6118    0.0000 C   0  0  0  0  0  0  0  0  0  0  0  0
    0.0984   -7.7868    0.0000 O   0  0  0  0  0  0  0  0  0  0  0  0
    2.6357   -7.4477    0.0000 C   0  0  0  0  0  0  0  0  0  0  0  0
    3.2591   -6.3103    0.0000 C   0  0  0  0  0  0  0  0  0  0  0  0
    4.5168   -6.5509    0.0000 C   0  0  0  0  0  0  0  0  0  0  0  0
    4.6808   -7.8196    0.0000 C   0  0  0  0  0  0  0  0  0  0  0  0
    3.5215   -8.3773    0.0000 S   0  0  0  0  0  0  0  0  0  0  0  0
    1.5311   -8.8913    0.0000 C   0  0  0  0  0  0  0  0  0  0  0  0
    2.6685   -9.5147    0.0000 C   0  0  0  0  0  0  0  0  0  0  0  0
    2.4388  -10.7615    0.0000 C   0  0  0  0  0  0  0  0  0  0  0  0
    1.1483  -10.9365    0.0000 C   0  0  0  0  0  0  0  0  0  0  0  0
    0.5906   -9.7772    0.0000 S   0  0  0  0  0  0  0  0  0  0  0  0
  1  2  1  0  0  0  0
  2  3  1  0  0  0  0
  2  9  1  0  0  0  0
  3  4  1  0  0  0  0
  3 12  1  0  0  0  0
  4  5  1  0  0  0  0
  5  6  1  0  0  0  0
  6  7  1  0  0  0  0
  6  8  1  0  0  0  0
  6  9  1  0  0  0  0
  9 10  1  0  0  0  0
 10 11  1  0  0  0  0
 11 12  1  0  0  0  0
 11 13  1  0  0  0  0
 13 14  1  0  0  0  0
 14 15  2  0  0  0  0
 14 16  1  0  0  0  0
 16 17  1  0  0  0  0
 16 18  1  0  0  0  0
 16 23  1  0  0  0  0
 18 19  2  0  0  0  0
 18 22  1  0  0  0  0
 19 20  1  0  0  0  0
 20 21  2  0  0  0  0
 21 22  1  0  0  0  0
 23 24  2  0  0  0  0
 23 27  1  0  0  0  0
 24 25  1  0  0  0  0
 25 26  2  0  0  0  0
 26 27  1  0  0  0  0
M  END
> <ID>
16143

> <Formula>
C21H27NO3S2

> <FW>
405.574

> <DSSTox_CID>
31532

> <DSSTox_RID>
97417

> <DSSTox_GSID>
57743

> <DSSTox_FileID_Sort>
8484

> <TS_ChemName>
Mazaticol

> <TS_ChemName_Synonyms>


> <TS_CASRN>
42024-98-6

> <CASRN_ChemName_Relationship>
primary

> <TS_Description>
single chemical compound

> <ChemNote>


> <STRUCTURE_Shown>
tested chemical

> <STRUCTURE_Formula>
C21H27NO3S2

> <STRUCTURE_MW>
405.574

> <STRUCTURE_ChemType>
defined organic

> <STRUCTURE_DefinedOrganicForm>
parent

> <STRUCTURE_IUPAC>
6,6,9-trimethyl-9-azabicyclo[3.3.1]non-3-yl hydroxy(di-2-thienyl)acetate

> <STRUCTURE_SMILES>
OC(C(=O)OC1CC2CCC(C)(C)C(C1)N2C)(c3cccs3)c4cccs4

> <STRUCTURE_SMILES_Desalt>
OC(C(=O)OC1CC2CCC(C)(C)C(C1)N2C)(c3cccs3)c4cccs4

> <Substance_modify_yyyymmdd>
20131018

$$$$
