4205-91-8
ChemmineR-0915142007XD

 15 15  0  0  0  0  0  0  0  0  1 V2000
    4.4607   -2.1794    0.0000 C    0  0  0  0  0  0  0  0  0  0  0  0
    3.3133   -1.4801    0.0000 N    0  0  0  0  0  0  0  0  0  0  0  0
    4.4607   -3.5034    0.0000 C    0  0  0  0  0  0  0  0  0  0  0  0
    5.5945   -1.4801    0.0000 C    0  0  0  0  0  0  0  0  0  0  0  0
    2.1523   -2.1794    0.0000 C    0  0  0  0  0  0  0  0  0  0  0  0
    5.5945   -4.1416    0.0000 C    0  0  0  0  0  0  0  0  0  0  0  0
    3.3133   -4.1416    0.0000 Cl   0  0  0  0  0  0  0  0  0  0  0  0
    6.7895   -2.1794    0.0000 C    0  0  0  0  0  0  0  0  0  0  0  0
    5.5945   -0.1562    0.0000 Cl   0  0  0  0  0  0  0  0  0  0  0  0
    1.7042   -3.4083    0.0000 N    0  0  0  0  0  0  0  0  0  0  0  0
    1.0524   -1.3850    0.0000 N    0  0  0  0  0  0  0  0  0  0  0  0
    6.7895   -3.5034    0.0000 C    0  0  0  0  0  0  0  0  0  0  0  0
    0.3802   -3.4083    0.0000 C    0  0  0  0  0  0  0  0  0  0  0  0
    0.0000   -2.1794    0.0000 C    0  0  0  0  0  0  0  0  0  0  0  0
    3.1367    0.0000    0.0000 Cl   0  0  0  0  0  0  0  0  0  0  0  0
  1  2  1  0  0  0  0
  1  3  2  0  0  0  0
  1  4  1  0  0  0  0
  2  5  2  0  0  0  0
  3  6  1  0  0  0  0
  3  7  1  0  0  0  0
  4  8  2  0  0  0  0
  4  9  1  0  0  0  0
  5 10  1  0  0  0  0
  5 11  1  0  0  0  0
  6 12  2  0  0  0  0
  8 12  1  0  0  0  0
 10 13  1  0  0  0  0
 11 14  1  0  0  0  0
 13 14  1  0  0  0  0
M  END
> <ID>
10323

> <Formula>
C9H10Cl3N3

> <FW>
266.5548 (230.0939+36.4609)

> <DSSTox_CID>
24670

> <DSSTox_RID>
80388

> <DSSTox_GSID>
44670

> <DSSTox_FileID_Sort>
5070

> <TS_ChemName>
Clonidine hydrochloride

> <TS_ChemName_Synonyms>
1H-Imidazol-2-amine, N-(2,6-dichlorophenyl)-4,5-dihydro-, monohydrochloride

> <TS_CASRN>
4205-91-8

> <CASRN_ChemName_Relationship>
primary

> <TS_Description>
single chemical compound

> <ChemNote>
parent [4205-90-7]

> <STRUCTURE_Shown>
tested chemical

> <STRUCTURE_Formula>
C9H10Cl3N3

> <STRUCTURE_MW>
266.5548

> <STRUCTURE_ChemType>
defined organic

> <STRUCTURE_DefinedOrganicForm>
complex

> <STRUCTURE_IUPAC>
N-(2,6-dichlorophenyl)imidazolidin-2-imine hydrochloride (1:1)

> <STRUCTURE_SMILES>
Cl.Clc2cccc(Cl)c2\N=C1/NCCN1

> <STRUCTURE_SMILES_Desalt>
Clc2cccc(Cl)c2\N=C1/NCCN1

> <Substance_modify_yyyymmdd>
20091116

$$$$
