4221-98-1
ChemmineR-0915142007XD

 10 10  0  0  1  0  0  0  0  0  8 V2000
    3.9948    0.0000    0.0000 C   0  0  0  0  0  0  0  0  0  0  0  0
    4.6927   -1.1491    0.0000 C   0  0  0  0  0  0  0  0  0  0  0  0
    3.9948   -2.2982    0.0000 C   0  0  0  0  0  0  0  0  0  0  0  0
    2.6833   -2.2982    0.0000 C   0  0  0  0  0  0  0  0  0  0  0  0
    1.9914   -1.1491    0.0000 C   0  0  0  0  0  0  0  0  0  0  0  0
    2.6833    0.0000    0.0000 C   0  0  0  0  0  0  0  0  0  0  0  0
    0.6618   -1.1491    0.0000 C   0  0  0  0  0  0  0  0  0  0  0  0
    0.0000   -2.2982    0.0000 C   0  0  0  0  0  0  0  0  0  0  0  0
    0.0000    0.0000    0.0000 C   0  0  0  0  0  0  0  0  0  0  0  0
    6.0163   -1.1491    0.0000 C   0  0  0  0  0  0  0  0  0  0  0  0
  1  2  2  0  0  0  0
  1  6  1  0  0  0  0
  2  3  1  0  0  0  0
  2 10  1  0  0  0  0
  3  4  2  0  0  0  0
  4  5  1  0  0  0  0
  5  6  1  0  0  0  0
  5  7  1  1  0  0  0
  7  8  1  0  0  0  0
  7  9  1  0  0  0  0
M  END
> <ID>
12207

> <Formula>
C10H16

> <FW>
136.234

> <DSSTox_CID>
27053

> <DSSTox_RID>
82071

> <DSSTox_GSID>
47053

> <DSSTox_FileID_Sort>
6752

> <TS_ChemName>
(R)-alpha-Phellandrene

> <TS_ChemName_Synonyms>
(R)-(-)-alpha-Phellandrene, sum of enantiomers

> <TS_CASRN>
4221-98-1

> <CASRN_ChemName_Relationship>
primary

> <TS_Description>
single chemical compound

> <ChemNote>
stereochem

> <STRUCTURE_Shown>
tested chemical

> <STRUCTURE_Formula>
C10H16

> <STRUCTURE_MW>
136.234

> <STRUCTURE_ChemType>
defined organic

> <STRUCTURE_DefinedOrganicForm>
parent

> <STRUCTURE_IUPAC>
(5R)-2-methyl-5-(propan-2-yl)cyclohexa-1,3-diene

> <STRUCTURE_SMILES>
CC=1C=C[C@H](CC=1)C(C)C

> <STRUCTURE_SMILES_Desalt>
CC=1C=C[C@H](CC=1)C(C)C

> <Substance_modify_yyyymmdd>
20100429

$$$$
