423-55-2
ChemmineR-0915142007XD

 26 25  0  0  0  0  0  0  0  0  1 V2000
    1.1382   -1.3038    0.0000 C    0  0  0  0  0  0  0  0  0  0  0  0
    2.3179   -1.9971    0.0000 C    0  0  0  0  0  0  0  0  0  0  0  0
    3.4561   -1.3038    0.0000 C    0  0  0  0  0  0  0  0  0  0  0  0
    4.5944   -1.9971    0.0000 C    0  0  0  0  0  0  0  0  0  0  0  0
    5.7223   -1.3038    0.0000 C    0  0  0  0  0  0  0  0  0  0  0  0
    6.8915   -1.9971    0.0000 C    0  0  0  0  0  0  0  0  0  0  0  0
    8.0298   -1.3038    0.0000 C    0  0  0  0  0  0  0  0  0  0  0  0
    9.1680   -1.9971    0.0000 C    0  0  0  0  0  0  0  0  0  0  0  0
    0.0000   -1.9971    0.0000 Br   0  0  0  0  0  0  0  0  0  0  0  0
    1.1382    0.0000    0.0000 F    0  0  0  0  0  0  0  0  0  0  0  0
    1.1382   -2.6490    0.0000 F    0  0  0  0  0  0  0  0  0  0  0  0
    2.3179   -3.3113    0.0000 F    0  0  0  0  0  0  0  0  0  0  0  0
    2.3179   -0.6623    0.0000 F    0  0  0  0  0  0  0  0  0  0  0  0
    3.4561    0.0000    0.0000 F    0  0  0  0  0  0  0  0  0  0  0  0
    3.4561   -2.6490    0.0000 F    0  0  0  0  0  0  0  0  0  0  0  0
    4.5944   -3.3113    0.0000 F    0  0  0  0  0  0  0  0  0  0  0  0
    4.5944   -0.6623    0.0000 F    0  0  0  0  0  0  0  0  0  0  0  0
    5.7223    0.0000    0.0000 F    0  0  0  0  0  0  0  0  0  0  0  0
    5.7223   -2.6490    0.0000 F    0  0  0  0  0  0  0  0  0  0  0  0
    6.8915   -3.3113    0.0000 F    0  0  0  0  0  0  0  0  0  0  0  0
    6.8915   -0.6623    0.0000 F    0  0  0  0  0  0  0  0  0  0  0  0
    8.0298    0.0000    0.0000 F    0  0  0  0  0  0  0  0  0  0  0  0
    9.1680   -0.6623    0.0000 F    0  0  0  0  0  0  0  0  0  0  0  0
   10.3477   -1.3038    0.0000 F    0  0  0  0  0  0  0  0  0  0  0  0
    9.1680   -3.3113    0.0000 F    0  0  0  0  0  0  0  0  0  0  0  0
   10.3477   -2.6490    0.0000 F    0  0  0  0  0  0  0  0  0  0  0  0
  1  2  1  0  0  0  0
  1  9  1  0  0  0  0
  1 10  1  0  0  0  0
  1 11  1  0  0  0  0
  2  3  1  0  0  0  0
  2 12  1  0  0  0  0
  2 13  1  0  0  0  0
  3  4  1  0  0  0  0
  3 14  1  0  0  0  0
  3 15  1  0  0  0  0
  4  5  1  0  0  0  0
  4 16  1  0  0  0  0
  4 17  1  0  0  0  0
  5  6  1  0  0  0  0
  5 18  1  0  0  0  0
  5 19  1  0  0  0  0
  6  7  1  0  0  0  0
  6 20  1  0  0  0  0
  6 21  1  0  0  0  0
  7  8  1  0  0  0  0
  7 22  1  0  0  0  0
  7 23  1  0  0  0  0
  8 24  1  0  0  0  0
  8 25  1  0  0  0  0
  8 26  1  0  0  0  0
M  END
> <ID>
11785

> <Formula>
C8BrF17

> <FW>
498.9625

> <DSSTox_CID>
26560

> <DSSTox_RID>
81719

> <DSSTox_GSID>
46560

> <DSSTox_FileID_Sort>
6400

> <TS_ChemName>
1-Bromoheptadecafluorooctane

> <TS_ChemName_Synonyms>


> <TS_CASRN>
423-55-2

> <CASRN_ChemName_Relationship>
primary

> <TS_Description>
single chemical compound

> <ChemNote>


> <STRUCTURE_Shown>
tested chemical

> <STRUCTURE_Formula>
C8BrF17

> <STRUCTURE_MW>
498.9625

> <STRUCTURE_ChemType>
defined organic

> <STRUCTURE_DefinedOrganicForm>
parent

> <STRUCTURE_IUPAC>
1-bromo-1,1,2,2,3,3,4,4,5,5,6,6,7,7,8,8,8-heptadecafluorooctane

> <STRUCTURE_SMILES>
FC(F)(C(F)(F)C(Br)(F)F)C(F)(F)C(F)(F)C(F)(F)C(F)(F)C(F)(F)F

> <STRUCTURE_SMILES_Desalt>
FC(F)(C(F)(F)C(Br)(F)F)C(F)(F)C(F)(F)C(F)(F)C(F)(F)C(F)(F)F

> <Substance_modify_yyyymmdd>
20110810

$$$$
