42399-49-5
ChemmineR-0915142007XD

 23 25  0  0  1  0  0  0  0  0  1 V2000
    1.9706   -9.5199    0.0000 C   0  0  0  0  0  0  0  0  0  0  0  0
    0.9329   -8.6916    0.0000 O   0  0  0  0  0  0  0  0  0  0  0  0
    1.1329   -7.3779    0.0000 C   0  0  0  0  0  0  0  0  0  0  0  0
    2.3704   -6.8924    0.0000 C   0  0  0  0  0  0  0  0  0  0  0  0
    2.5704   -5.5786    0.0000 C   0  0  0  0  0  0  0  0  0  0  0  0
    1.5327   -4.7504    0.0000 C   0  0  0  0  0  0  0  0  0  0  0  0
    0.2951   -5.2359    0.0000 C   0  0  0  0  0  0  0  0  0  0  0  0
    0.0952   -6.5497    0.0000 C   0  0  0  0  0  0  0  0  0  0  0  0
    1.7231   -3.4367    0.0000 C   0  0  0  0  0  0  0  0  0  0  0  0
    0.4855   -3.9222    0.0000 H   0  0  0  0  0  0  0  0  0  0  0  0
    3.0273   -3.7318    0.0000 S   0  0  0  0  0  0  0  0  0  0  0  0
    4.0650   -2.9036    0.0000 C   0  0  0  0  0  0  0  0  0  0  0  0
    5.2169   -3.5699    0.0000 C   0  0  0  0  0  0  0  0  0  0  0  0
    6.3688   -2.9036    0.0000 C   0  0  0  0  0  0  0  0  0  0  0  0
    6.3688   -1.5708    0.0000 C   0  0  0  0  0  0  0  0  0  0  0  0
    5.2169   -0.9044    0.0000 C   0  0  0  0  0  0  0  0  0  0  0  0
    4.0650   -1.5708    0.0000 C   0  0  0  0  0  0  0  0  0  0  0  0
    3.0273   -0.7425    0.0000 N   0  0  0  0  0  0  0  0  0  0  0  0
    1.7231   -1.0377    0.0000 C   0  0  0  0  0  0  0  0  0  0  0  0
    0.8949    0.0000    0.0000 O   0  0  0  0  0  0  0  0  0  0  0  0
    1.1519   -2.2372    0.0000 C   0  0  0  0  0  0  0  0  0  0  0  0
    0.0000   -1.5708    0.0000 H   0  0  0  0  0  0  0  0  0  0  0  0
    0.0000   -2.9036    0.0000 O   0  0  0  0  0  0  0  0  0  0  0  0
  1  2  1  0  0  0  0
  2  3  1  0  0  0  0
  3  4  2  0  0  0  0
  3  8  1  0  0  0  0
  4  5  1  0  0  0  0
  5  6  2  0  0  0  0
  6  7  1  0  0  0  0
  6  9  1  0  0  0  0
  7  8  2  0  0  0  0
  9 10  1  6  0  0  0
  9 11  1  0  0  0  0
  9 21  1  0  0  0  0
 11 12  1  0  0  0  0
 12 13  2  0  0  0  0
 12 17  1  0  0  0  0
 13 14  1  0  0  0  0
 14 15  2  0  0  0  0
 15 16  1  0  0  0  0
 16 17  2  0  0  0  0
 17 18  1  0  0  0  0
 18 19  1  0  0  0  0
 19 20  2  0  0  0  0
 19 21  1  0  0  0  0
 21 22  1  6  0  0  0
 21 23  1  0  0  0  0
M  END
> <ID>
16144

> <Formula>
C16H15NO3S

> <FW>
301.3602

> <DSSTox_CID>
31533

> <DSSTox_RID>
97418

> <DSSTox_GSID>
57744

> <DSSTox_FileID_Sort>
8485

> <TS_ChemName>
(2S,3s)-3-hydroxy-2-(4-methoxyphenyl)-2,3-dihydro-1,5-benzothiazepin-4(5h)-one

> <TS_ChemName_Synonyms>


> <TS_CASRN>
42399-49-5

> <CASRN_ChemName_Relationship>
primary

> <TS_Description>
single chemical compound

> <ChemNote>


> <STRUCTURE_Shown>
tested chemical

> <STRUCTURE_Formula>
C16H15NO3S

> <STRUCTURE_MW>
301.3602

> <STRUCTURE_ChemType>
defined organic

> <STRUCTURE_DefinedOrganicForm>
parent

> <STRUCTURE_IUPAC>
(2S,3S)-3-hydroxy-2-(4-methoxyphenyl)-2,3-dihydro-1,5-benzothiazepin-4(5H)-one

> <STRUCTURE_SMILES>
COc1ccc(cc1)[C@@H]2Sc3ccccc3NC(=O)[C@@H]2O

> <STRUCTURE_SMILES_Desalt>
COc1ccc(cc1)[C@@H]2Sc3ccccc3NC(=O)[C@@H]2O

> <Substance_modify_yyyymmdd>
20131018

$$$$
