42399-41-7
ChemmineR-0915142007XD

 29 31  0  0  1  0  0  0  0  0  1 V2000
   12.9170   -3.1650    0.0000 C   0  0  0  0  0  0  0  0  0  0  0  0
   12.5924   -4.4229    0.0000 N   0  0  0  0  0  0  0  0  0  0  0  0
   13.5257   -5.3697    0.0000 C   0  0  0  0  0  0  0  0  0  0  0  0
   11.2804   -4.8557    0.0000 C   0  0  0  0  0  0  0  0  0  0  0  0
   10.3471   -3.9089    0.0000 C   0  0  0  0  0  0  0  0  0  0  0  0
    9.0757   -4.3012    0.0000 N   0  0  0  0  0  0  0  0  0  0  0  0
    8.8593   -5.6402    0.0000 C   0  0  0  0  0  0  0  0  0  0  0  0
   10.0090   -6.3030    0.0000 C   0  0  0  0  0  0  0  0  0  0  0  0
   10.0090   -7.6285    0.0000 C   0  0  0  0  0  0  0  0  0  0  0  0
    8.8593   -8.2912    0.0000 C   0  0  0  0  0  0  0  0  0  0  0  0
    7.7096   -7.6285    0.0000 C   0  0  0  0  0  0  0  0  0  0  0  0
    7.7096   -6.3030    0.0000 C   0  0  0  0  0  0  0  0  0  0  0  0
    6.4788   -5.8160    0.0000 S   0  0  0  0  0  0  0  0  0  0  0  0
    6.0866   -4.5446    0.0000 C   0  0  0  0  0  0  0  0  0  0  0  0
    6.8305   -3.4490    0.0000 C   0  0  0  0  0  0  0  0  0  0  0  0
    6.1677   -2.2994    0.0000 O   0  0  0  0  0  0  0  0  0  0  0  0
    6.8305   -1.1497    0.0000 C   0  0  0  0  0  0  0  0  0  0  0  0
    6.1677    0.0000    0.0000 C   0  0  0  0  0  0  0  0  0  0  0  0
    8.1560   -1.1497    0.0000 O   0  0  0  0  0  0  0  0  0  0  0  0
    8.1425   -3.3679    0.0000 C   0  0  0  0  0  0  0  0  0  0  0  0
    8.6429   -2.1100    0.0000 O   0  0  0  0  0  0  0  0  0  0  0  0
    4.7746   -4.3417    0.0000 C   0  0  0  0  0  0  0  0  0  0  0  0
    3.9360   -5.3832    0.0000 C   0  0  0  0  0  0  0  0  0  0  0  0
    2.6240   -5.1939    0.0000 C   0  0  0  0  0  0  0  0  0  0  0  0
    2.1371   -3.9495    0.0000 C   0  0  0  0  0  0  0  0  0  0  0  0
    0.8251   -3.7466    0.0000 O   0  0  0  0  0  0  0  0  0  0  0  0
    0.0000   -4.7881    0.0000 C   0  0  0  0  0  0  0  0  0  0  0  0
    2.9756   -2.9080    0.0000 C   0  0  0  0  0  0  0  0  0  0  0  0
    4.2876   -3.1109    0.0000 C   0  0  0  0  0  0  0  0  0  0  0  0
  1  2  1  0  0  0  0
  2  3  1  0  0  0  0
  2  4  1  0  0  0  0
  4  5  1  0  0  0  0
  5  6  1  0  0  0  0
  6  7  1  0  0  0  0
  6 20  1  0  0  0  0
  7  8  2  0  0  0  0
  7 12  1  0  0  0  0
  8  9  1  0  0  0  0
  9 10  2  0  0  0  0
 10 11  1  0  0  0  0
 11 12  2  0  0  0  0
 12 13  1  0  0  0  0
 13 14  1  0  0  0  0
 14 15  1  0  0  0  0
 14 22  1  1  0  0  0
 15 16  1  1  0  0  0
 15 20  1  0  0  0  0
 16 17  1  0  0  0  0
 17 18  1  0  0  0  0
 17 19  2  0  0  0  0
 20 21  2  0  0  0  0
 22 23  2  0  0  0  0
 22 29  1  0  0  0  0
 23 24  1  0  0  0  0
 24 25  2  0  0  0  0
 25 26  1  0  0  0  0
 25 28  1  0  0  0  0
 26 27  1  0  0  0  0
 28 29  2  0  0  0  0
M  END
> <ID>
2648

> <Formula>
C22H26N2O4S

> <FW>
414.5178

> <DSSTox_CID>
2940

> <DSSTox_RID>
76797

> <DSSTox_GSID>
22940

> <DSSTox_FileID_Sort>
1481

> <TS_ChemName>
Diltiazem

> <TS_ChemName_Synonyms>


> <TS_CASRN>
42399-41-7

> <CASRN_ChemName_Relationship>
primary

> <TS_Description>
single chemical compound

> <ChemNote>
stereochem

> <STRUCTURE_Shown>
tested chemical

> <STRUCTURE_Formula>
C22H26N2O4S

> <STRUCTURE_MW>
414.5178

> <STRUCTURE_ChemType>
defined organic

> <STRUCTURE_DefinedOrganicForm>
parent

> <STRUCTURE_IUPAC>
(2S,3S)-5-[2-(dimethylamino)ethyl]-2-(4-methoxyphenyl)-4-oxo-2,3,4,5-tetrahydro-1,5-benzothiazepin-3-yl acetate

> <STRUCTURE_SMILES>
CN(C)CCN1c3ccccc3S[C@H]([C@@H](OC(C)=O)C1=O)c2ccc(OC)cc2

> <STRUCTURE_SMILES_Desalt>
CN(C)CCN1c3ccccc3S[C@H]([C@@H](OC(C)=O)C1=O)c2ccc(OC)cc2

> <Substance_modify_yyyymmdd>
20080429

$$$$
