4245-41-4
ChemmineR-0915142007XD

 26 29  0  0  1  0  0  0  0  0  1 V2000
    9.2276   -1.7238    0.0000 C   0  0  0  0  0  0  0  0  0  0  0  0
    9.2276   -3.0421    0.0000 C   0  0  0  0  0  0  0  0  0  0  0  0
    8.0783   -3.6843    0.0000 C   0  0  0  0  0  0  0  0  0  0  0  0
    6.9291   -3.0421    0.0000 C   0  0  0  0  0  0  0  0  0  0  0  0
    5.7799   -3.6843    0.0000 C   0  0  0  0  0  0  0  0  0  0  0  0
    5.7799   -5.0138    0.0000 C   0  0  0  0  0  0  0  0  0  0  0  0
    8.0783   -1.0366    0.0000 C   0  0  0  0  0  0  0  0  0  0  0  0
    6.9291   -1.7238    0.0000 C   0  0  0  0  0  0  0  0  0  0  0  0
    8.0783   -5.0138    0.0000 C   0  0  0  0  0  0  0  0  0  0  0  0
   10.5007   -3.4251    0.0000 C   0  0  0  0  0  0  0  0  0  0  0  0
    4.6757   -3.0421    0.0000 C   0  0  0  0  0  0  0  0  0  0  0  0
   10.5007   -1.2844    0.0000 C   0  0  0  0  0  0  0  0  0  0  0  0
    6.9291   -5.6898    0.0000 C   0  0  0  0  0  0  0  0  0  0  0  0
    4.6757   -5.6898    0.0000 C   0  0  0  0  0  0  0  0  0  0  0  0
   11.2669   -2.3773    0.0000 C   0  0  0  0  0  0  0  0  0  0  0  0
    3.5040   -5.0138    0.0000 C   0  0  0  0  0  0  0  0  0  0  0  0
    3.5040   -3.6843    0.0000 C   0  0  0  0  0  0  0  0  0  0  0  0
    9.2276   -0.3605    0.0000 C   0  0  0  0  0  0  0  0  0  0  0  0
   10.8387    0.0000    0.0000 O   0  0  0  0  0  0  0  0  0  0  0  0
    2.3097   -5.7236    0.0000 O   0  0  0  0  0  0  0  0  0  0  0  0
    8.0783   -2.3435    0.0000 H   0  0  0  0  0  0  0  0  0  0  0  0
    6.9291   -4.3715    0.0000 H   0  0  0  0  0  0  0  0  0  0  0  0
    9.2276   -4.3715    0.0000 H   0  0  0  0  0  0  0  0  0  0  0  0
    1.1605   -5.0588    0.0000 C   0  0  0  0  0  0  0  0  0  0  0  0
    0.0000   -5.7348    0.0000 O   0  0  0  0  0  0  0  0  0  0  0  0
    1.1380   -3.7293    0.0000 C   0  0  0  0  0  0  0  0  0  0  0  0
  1  2  1  0  0  0  0
  1  7  1  0  0  0  0
  1 12  1  0  0  0  0
  1 18  1  1  0  0  0
  2  3  1  0  0  0  0
  2 10  1  0  0  0  0
  2 23  1  6  0  0  0
  3  9  1  0  0  0  0
  3  4  1  0  0  0  0
  3 21  1  1  0  0  0
  4  8  1  0  0  0  0
  4  5  1  0  0  0  0
  4 22  1  6  0  0  0
  5  6  1  0  0  0  0
  5 11  2  0  0  0  0
  6 14  2  0  0  0  0
  6 13  1  0  0  0  0
  7  8  1  0  0  0  0
  9 13  1  0  0  0  0
 10 15  1  0  0  0  0
 11 17  1  0  0  0  0
 12 15  1  0  0  0  0
 12 19  1  1  0  0  0
 14 16  1  0  0  0  0
 16 17  2  0  0  0  0
 16 20  1  0  0  0  0
 20 24  1  0  0  0  0
 24 25  2  0  0  0  0
 24 26  1  0  0  0  0
M  END
> <ID>
11254

> <Formula>
C20H26O3

> <FW>
314.4186

> <DSSTox_CID>
25867

> <DSSTox_RID>
81186

> <DSSTox_GSID>
45867

> <DSSTox_FileID_Sort>
5867

> <TS_ChemName>
Estradiol acetate

> <TS_ChemName_Synonyms>


> <TS_CASRN>
4245-41-4

> <CASRN_ChemName_Relationship>
primary

> <TS_Description>
single chemical compound

> <ChemNote>
stereochem

> <STRUCTURE_Shown>
tested chemical

> <STRUCTURE_Formula>
C20H26O3

> <STRUCTURE_MW>
314.4186

> <STRUCTURE_ChemType>
defined organic

> <STRUCTURE_DefinedOrganicForm>
parent

> <STRUCTURE_IUPAC>
(17beta)-17-hydroxyestra-1(10),2,4-trien-3-yl acetate

> <STRUCTURE_SMILES>
CC(=O)Oc3cc4CC[C@@H]1[C@H](CC[C@]2(C)[C@@H](O)CC[C@@H]12)c4cc3

> <STRUCTURE_SMILES_Desalt>
CC(=O)Oc3cc4CC[C@@H]1[C@H](CC[C@]2(C)[C@@H](O)CC[C@@H]12)c4cc3

> <Substance_modify_yyyymmdd>
20110922

$$$$
