4246-51-9
ChemmineR-0915142007XD

 15 14  0  0  0  0  0  0  0  0  1 V2000
    1.1627    0.0000    0.0000 C   0  0  0  0  0  0  0  0  0  0  0  0
    2.3093   -0.6621    0.0000 C   0  0  0  0  0  0  0  0  0  0  0  0
    3.4558    0.0000    0.0000 C   0  0  0  0  0  0  0  0  0  0  0  0
    0.0000   -0.6621    0.0000 N   0  0  0  0  0  0  0  0  0  0  0  0
   14.9860    0.0000    0.0000 C   0  0  0  0  0  0  0  0  0  0  0  0
   13.8394   -0.6621    0.0000 C   0  0  0  0  0  0  0  0  0  0  0  0
   12.6929    0.0000    0.0000 C   0  0  0  0  0  0  0  0  0  0  0  0
   16.1487   -0.6621    0.0000 N   0  0  0  0  0  0  0  0  0  0  0  0
    8.0743    0.0000    0.0000 O   0  0  0  0  0  0  0  0  0  0  0  0
   10.3836    0.0000    0.0000 C   0  0  0  0  0  0  0  0  0  0  0  0
    9.2371   -0.6621    0.0000 C   0  0  0  0  0  0  0  0  0  0  0  0
    5.7651    0.0000    0.0000 C   0  0  0  0  0  0  0  0  0  0  0  0
    6.9116   -0.6621    0.0000 C   0  0  0  0  0  0  0  0  0  0  0  0
   11.5463   -0.6621    0.0000 O   0  0  0  0  0  0  0  0  0  0  0  0
    4.6024   -0.6621    0.0000 O   0  0  0  0  0  0  0  0  0  0  0  0
  1  2  1  0  0  0  0
  1  4  1  0  0  0  0
  2  3  1  0  0  0  0
  3 15  1  0  0  0  0
  5  6  1  0  0  0  0
  5  8  1  0  0  0  0
  6  7  1  0  0  0  0
  7 14  1  0  0  0  0
  9 11  1  0  0  0  0
  9 13  1  0  0  0  0
 10 11  1  0  0  0  0
 10 14  1  0  0  0  0
 12 13  1  0  0  0  0
 12 15  1  0  0  0  0
M  END
> <ID>
10219

> <Formula>
C10H24N2O3

> <FW>
220.3092

> <DSSTox_CID>
24565

> <DSSTox_RID>
80317

> <DSSTox_GSID>
44565

> <DSSTox_FileID_Sort>
4999

> <TS_ChemName>
3,3'-[Oxybis(ethane-2,1-diyloxy)]dipropan-1-amine

> <TS_ChemName_Synonyms>
3,3'-[Oxybis(ethane-2,1-diyloxy)]dipropan-1-amine (1-Propanamine, 3,3'-[oxybis(2,1-ethanediyloxy)]bis-)

> <TS_CASRN>
4246-51-9

> <CASRN_ChemName_Relationship>
primary

> <TS_Description>
single chemical compound

> <ChemNote>


> <STRUCTURE_Shown>
tested chemical

> <STRUCTURE_Formula>
C10H24N2O3

> <STRUCTURE_MW>
220.3092

> <STRUCTURE_ChemType>
defined organic

> <STRUCTURE_DefinedOrganicForm>
parent

> <STRUCTURE_IUPAC>
3,3'-[oxybis(ethane-2,1-diyloxy)]dipropan-1-amine

> <STRUCTURE_SMILES>
NCCCOCCOCCOCCCN

> <STRUCTURE_SMILES_Desalt>
NCCCOCCOCCOCCCN

> <Substance_modify_yyyymmdd>
20091116

$$$$
