42461-84-7
ChemmineR-0915142007XD

 34 34  0  0  1  0  0  0  0  0  1 V2000
    2.5462   -2.6598    0.0000 C   0  0  0  0  0  0  0  0  0  0  0  0
    1.3914   -1.9877    0.0000 C   0  0  0  0  0  0  0  0  0  0  0  0
    8.3106   -1.9877    0.0000 C   0  0  0  0  0  0  0  0  0  0  0  0
    3.6820   -1.9877    0.0000 N   0  0  0  0  0  0  0  0  0  0  0  0
    7.1558   -2.6598    0.0000 C   0  0  0  0  0  0  0  0  0  0  0  0
    5.9916   -1.9877    0.0000 C   0  0  0  0  0  0  0  0  0  0  0  0
    4.8557   -2.6598    0.0000 C   0  0  0  0  0  0  0  0  0  0  0  0
    1.3914   -0.6531    0.0000 C   0  0  0  0  0  0  0  0  0  0  0  0
    2.5462   -3.9849    0.0000 N   0  0  0  0  0  0  0  0  0  0  0  0
    0.2366    0.0000    0.0000 O   0  0  0  0  0  0  0  0  0  0  0  0
    7.6386   -0.8330    0.0000 F   0  0  0  0  0  0  0  0  0  0  0  0
    9.4654   -1.3062    0.0000 F   0  0  0  0  0  0  0  0  0  0  0  0
    8.9826   -3.1330    0.0000 F   0  0  0  0  0  0  0  0  0  0  0  0
    2.5462    0.0000    0.0000 O   0  0  0  0  0  0  0  0  0  0  0  0
    0.2366   -2.6598    0.0000 C   0  0  0  0  0  0  0  0  0  0  0  0
    7.1558   -3.9849    0.0000 C   0  0  0  0  0  0  0  0  0  0  0  0
    4.8557   -3.9849    0.0000 C   0  0  0  0  0  0  0  0  0  0  0  0
    5.9916   -0.6531    0.0000 C   0  0  0  0  0  0  0  0  0  0  0  0
    5.9916   -4.6380    0.0000 C   0  0  0  0  0  0  0  0  0  0  0  0
    1.3914   -4.6380    0.0000 C   0  0  0  0  0  0  0  0  0  0  0  0
    0.2366   -3.9849    0.0000 C   0  0  0  0  0  0  0  0  0  0  0  0
    2.2906   -7.2694    0.0000 C   0  0  0  0  0  0  0  0  0  0  0  0
    3.4454   -7.8941    0.0000 C   0  0  0  0  0  0  0  0  0  0  0  0
    3.4454   -9.2382    0.0000 O   0  0  0  0  0  0  0  0  0  0  0  0
    4.6002   -7.2315    0.0000 C   0  0  0  0  0  0  0  0  0  0  0  0
    4.6002   -5.9064    0.0000 O   0  0  0  0  0  0  0  0  0  0  0  0
    5.7455   -7.8941    0.0000 C   0  0  0  0  0  0  0  0  0  0  0  0
    5.7455   -9.2382    0.0000 O   0  0  0  0  0  0  0  0  0  0  0  0
    6.9003   -7.2315    0.0000 C   0  0  0  0  0  0  0  0  0  0  0  0
    6.9003   -5.9064    0.0000 O   0  0  0  0  0  0  0  0  0  0  0  0
    8.0740   -7.8941    0.0000 C   0  0  0  0  0  0  0  0  0  0  0  0
    9.2287   -7.2221    0.0000 O   0  0  0  0  0  0  0  0  0  0  0  0
    1.1548   -7.8941    0.0000 N   0  0  0  0  0  0  0  0  0  0  0  0
    0.0000   -7.2315    0.0000 C   0  0  0  0  0  0  0  0  0  0  0  0
  1  2  1  0  0  0  0
  1  4  1  0  0  0  0
  1  9  2  0  0  0  0
  2  8  1  0  0  0  0
  2 15  2  0  0  0  0
  3  5  1  0  0  0  0
  3 11  1  0  0  0  0
  3 12  1  0  0  0  0
  3 13  1  0  0  0  0
  4  7  1  0  0  0  0
  5  6  2  0  0  0  0
  5 16  1  0  0  0  0
  6  7  1  0  0  0  0
  6 18  1  0  0  0  0
  7 17  2  0  0  0  0
  8 10  2  0  0  0  0
  8 14  1  0  0  0  0
  9 20  1  0  0  0  0
 15 21  1  0  0  0  0
 16 19  2  0  0  0  0
 17 19  1  0  0  0  0
 20 21  2  0  0  0  0
 22 33  1  0  0  0  0
 22 23  1  0  0  0  0
 23 24  1  1  0  0  0
 23 25  1  0  0  0  0
 25 26  1  1  0  0  0
 25 27  1  0  0  0  0
 27 28  1  6  0  0  0
 27 29  1  0  0  0  0
 29 30  1  6  0  0  0
 29 31  1  0  0  0  0
 31 32  1  0  0  0  0
 33 34  1  0  0  0  0
M  END
> <ID>
11048

> <Formula>
C21H28F3N3O7

> <FW>
491.4581 (296.2445+195.2136)

> <DSSTox_CID>
25584

> <DSSTox_RID>
80980

> <DSSTox_GSID>
45584

> <DSSTox_FileID_Sort>
5661

> <TS_ChemName>
Flunixin meglumine

> <TS_ChemName_Synonyms>


> <TS_CASRN>
42461-84-7

> <CASRN_ChemName_Relationship>
primary

> <TS_Description>
single chemical compound

> <ChemNote>
parent [38677-85-9]

> <STRUCTURE_Shown>
tested chemical

> <STRUCTURE_Formula>
C21H28F3N3O7

> <STRUCTURE_MW>
491.4581

> <STRUCTURE_ChemType>
defined organic

> <STRUCTURE_DefinedOrganicForm>
complex

> <STRUCTURE_IUPAC>
2-{[2-methyl-3-(trifluoromethyl)phenyl]amino}pyridine-3-carboxylic acid - 1-deoxy-1-(methylamino)-D-galactitol (1:1)

> <STRUCTURE_SMILES>
CNC[C@H](O)[C@@H](O)[C@@H](O)[C@H](O)CO.FC(F)(F)c2cccc(Nc1ncccc1C(=O)O)c2C

> <STRUCTURE_SMILES_Desalt>
FC(F)(F)c2cccc(Nc1ncccc1C(=O)O)c2C

> <Substance_modify_yyyymmdd>
20100107

$$$$
