4247-02-3
ChemmineR-0915142007XD

 14 14  0  0  0  0  0  0  0  0  1 V2000
    5.7568   -1.9895    0.0000 C   0  0  0  0  0  0  0  0  0  0  0  0
    4.6054   -1.3264    0.0000 C   0  0  0  0  0  0  0  0  0  0  0  0
    3.4541   -1.9895    0.0000 O   0  0  0  0  0  0  0  0  0  0  0  0
    2.3027   -1.3264    0.0000 C   0  0  0  0  0  0  0  0  0  0  0  0
    1.1514   -1.9895    0.0000 C   0  0  0  0  0  0  0  0  0  0  0  0
    1.1514   -3.3251    0.0000 C   0  0  0  0  0  0  0  0  0  0  0  0
    0.0000   -1.3264    0.0000 C   0  0  0  0  0  0  0  0  0  0  0  0
    4.6054    0.0000    0.0000 O   0  0  0  0  0  0  0  0  0  0  0  0
    6.9081   -1.3264    0.0000 C   0  0  0  0  0  0  0  0  0  0  0  0
    8.0595   -1.9895    0.0000 C   0  0  0  0  0  0  0  0  0  0  0  0
    8.0595   -3.3251    0.0000 C   0  0  0  0  0  0  0  0  0  0  0  0
    9.2108   -3.9883    0.0000 O   0  0  0  0  0  0  0  0  0  0  0  0
    6.9081   -3.9883    0.0000 C   0  0  0  0  0  0  0  0  0  0  0  0
    5.7568   -3.3251    0.0000 C   0  0  0  0  0  0  0  0  0  0  0  0
  1  2  1  0  0  0  0
  1  9  2  0  0  0  0
  1 14  1  0  0  0  0
  2  3  1  0  0  0  0
  2  8  2  0  0  0  0
  3  4  1  0  0  0  0
  4  5  1  0  0  0  0
  5  6  1  0  0  0  0
  5  7  1  0  0  0  0
  9 10  1  0  0  0  0
 10 11  2  0  0  0  0
 11 12  1  0  0  0  0
 11 13  1  0  0  0  0
 13 14  2  0  0  0  0
M  END
> <ID>
719

> <Formula>
C11H14O3

> <FW>
194.2271

> <DSSTox_CID>
749

> <DSSTox_RID>
75767

> <DSSTox_GSID>
20749

> <DSSTox_FileID_Sort>
451

> <TS_ChemName>
Isobutylparaben

> <TS_ChemName_Synonyms>
Isobutyl p-hydroxybenzoate

> <TS_CASRN>
4247-02-3

> <CASRN_ChemName_Relationship>
primary

> <TS_Description>
single chemical compound

> <ChemNote>


> <STRUCTURE_Shown>
tested chemical

> <STRUCTURE_Formula>
C11H14O3

> <STRUCTURE_MW>
194.2271

> <STRUCTURE_ChemType>
defined organic

> <STRUCTURE_DefinedOrganicForm>
parent

> <STRUCTURE_IUPAC>
2-methylpropyl 4-hydroxybenzoate

> <STRUCTURE_SMILES>
Oc1ccc(cc1)C(=O)OCC(C)C

> <STRUCTURE_SMILES_Desalt>
Oc1ccc(cc1)C(=O)OCC(C)C

> <Substance_modify_yyyymmdd>
20080429

$$$$
