42482-06-4
ChemmineR-0915142007XD

 15 15  0  0  0  0  0  0  0  0  1 V2000
    9.1514    0.0000    0.0000 O   0  0  0  0  0  0  0  0  0  0  0  0
   10.2321   -0.7933    0.0000 C   0  0  0  0  0  0  0  0  0  0  0  0
    8.0822   -0.7588    0.0000 C   0  0  0  0  0  0  0  0  0  0  0  0
    9.7952   -2.0579    0.0000 C   0  0  0  0  0  0  0  0  0  0  0  0
    8.4616   -2.0464    0.0000 C   0  0  0  0  0  0  0  0  0  0  0  0
    6.8175   -0.3449    0.0000 O   0  0  0  0  0  0  0  0  0  0  0  0
   11.4967   -0.3909    0.0000 O   0  0  0  0  0  0  0  0  0  0  0  0
    7.6798   -3.1271    0.0000 C   0  0  0  0  0  0  0  0  0  0  0  0
    6.3692   -2.9661    0.0000 C   0  0  0  0  0  0  0  0  0  0  0  0
    5.5529   -4.0353    0.0000 C   0  0  0  0  0  0  0  0  0  0  0  0
    4.2538   -3.8859    0.0000 C   0  0  0  0  0  0  0  0  0  0  0  0
    3.4260   -4.9551    0.0000 C   0  0  0  0  0  0  0  0  0  0  0  0
    2.1154   -4.8056    0.0000 C   0  0  0  0  0  0  0  0  0  0  0  0
    1.3106   -5.8633    0.0000 C   0  0  0  0  0  0  0  0  0  0  0  0
    0.0000   -5.7139    0.0000 C   0  0  0  0  0  0  0  0  0  0  0  0
  1  2  1  0  0  0  0
  1  3  1  0  0  0  0
  2  4  1  0  0  0  0
  2  7  2  0  0  0  0
  3  5  1  0  0  0  0
  3  6  2  0  0  0  0
  4  5  1  0  0  0  0
  5  8  1  0  0  0  0
  8  9  1  0  0  0  0
  9 10  2  3  0  0  0
 10 11  1  0  0  0  0
 11 12  1  0  0  0  0
 12 13  1  0  0  0  0
 13 14  1  0  0  0  0
 14 15  1  0  0  0  0
M  END
> <ID>
8339

> <Formula>
C12H18O3

> <FW>
210.2695

> <DSSTox_CID>
21373

> <DSSTox_RID>
79707

> <DSSTox_GSID>
41373

> <DSSTox_FileID_Sort>
4389

> <TS_ChemName>
2-Octen-1-ylsuccinic anhydride

> <TS_ChemName_Synonyms>
2-Octen-1-ylsuccinic anhydride (2,5-Furandione, dihydro-3-(2-octenyl)-)

> <TS_CASRN>
42482-06-4

> <CASRN_ChemName_Relationship>
primary

> <TS_Description>
mixture of Z,E isomers

> <ChemNote>
mixture of Z,E isomers

> <STRUCTURE_Shown>
representative isomer in mixture

> <STRUCTURE_Formula>
C12H18O3

> <STRUCTURE_MW>
210.2695

> <STRUCTURE_ChemType>
defined organic

> <STRUCTURE_DefinedOrganicForm>
parent

> <STRUCTURE_IUPAC>
3-(oct-2-en-1-yl)dihydrofuran-2,5-dione

> <STRUCTURE_SMILES>
O=C1OC(=O)CC1CC=CCCCCC

> <STRUCTURE_SMILES_Desalt>
O=C1OC(=O)CC1CC=CCCCCC

> <Substance_modify_yyyymmdd>
20080825

$$$$
