4252-78-2
ChemmineR-0915142007XD

 12 12  0  0  0  0  0  0  0  0  1 V2000
    3.9905   -2.3033    0.0000 C    0  0  0  0  0  0  0  0  0  0  0  0
    3.3264   -3.4580    0.0000 C    0  0  0  0  0  0  0  0  0  0  0  0
    1.9922   -3.4580    0.0000 C    0  0  0  0  0  0  0  0  0  0  0  0
    1.3282   -2.3033    0.0000 C    0  0  0  0  0  0  0  0  0  0  0  0
    1.9922   -1.1547    0.0000 C    0  0  0  0  0  0  0  0  0  0  0  0
    3.3264   -1.1547    0.0000 C    0  0  0  0  0  0  0  0  0  0  0  0
    0.0000   -2.3033    0.0000 Cl   0  0  0  0  0  0  0  0  0  0  0  0
    3.9905   -4.6067    0.0000 Cl   0  0  0  0  0  0  0  0  0  0  0  0
    5.3186   -2.3033    0.0000 C    0  0  0  0  0  0  0  0  0  0  0  0
    5.9827   -1.1547    0.0000 C    0  0  0  0  0  0  0  0  0  0  0  0
    5.3186    0.0000    0.0000 Cl   0  0  0  0  0  0  0  0  0  0  0  0
    5.9827   -3.4580    0.0000 O    0  0  0  0  0  0  0  0  0  0  0  0
  1  2  2  0  0  0  0
  1  6  1  0  0  0  0
  1  9  1  0  0  0  0
  2  3  1  0  0  0  0
  2  8  1  0  0  0  0
  3  4  2  0  0  0  0
  4  5  1  0  0  0  0
  4  7  1  0  0  0  0
  5  6  2  0  0  0  0
  9 10  1  0  0  0  0
  9 12  2  0  0  0  0
 10 11  1  0  0  0  0
M  END
> <ID>
4585

> <Formula>
C8H5Cl3O

> <FW>
223.4837

> <DSSTox_CID>
6190

> <DSSTox_RID>
78051

> <DSSTox_GSID>
26190

> <DSSTox_FileID_Sort>
2734

> <TS_ChemName>
2,2',4'-Trichloroacetophenone

> <TS_ChemName_Synonyms>


> <TS_CASRN>
4252-78-2

> <CASRN_ChemName_Relationship>
primary

> <TS_Description>
single chemical compound

> <ChemNote>


> <STRUCTURE_Shown>
tested chemical

> <STRUCTURE_Formula>
C8H5Cl3O

> <STRUCTURE_MW>
223.4837

> <STRUCTURE_ChemType>
defined organic

> <STRUCTURE_DefinedOrganicForm>
parent

> <STRUCTURE_IUPAC>
2-chloro-1-(2,4-dichlorophenyl)ethanone

> <STRUCTURE_SMILES>
O=C(CCl)c1ccc(Cl)cc1Cl

> <STRUCTURE_SMILES_Desalt>
O=C(CCl)c1ccc(Cl)cc1Cl

> <Substance_modify_yyyymmdd>
20080429

$$$$
