4253-34-3
ChemmineR-0915142007XD

 14 13  0  0  0  0  0  0  0  0  1 V2000
    2.2930   -2.6601    0.0000 Si   0  0  0  0  0  0  0  0  0  0  0  0
    1.1385   -2.0057    0.0000 O    0  0  0  0  0  0  0  0  0  0  0  0
    3.4475   -3.3358    0.0000 O    0  0  0  0  0  0  0  0  0  0  0  0
    2.9634   -1.5056    0.0000 O    0  0  0  0  0  0  0  0  0  0  0  0
    1.6333   -3.8146    0.0000 C    0  0  0  0  0  0  0  0  0  0  0  0
    1.1385   -0.6544    0.0000 C    0  0  0  0  0  0  0  0  0  0  0  0
    0.0000    0.0000    0.0000 O    0  0  0  0  0  0  0  0  0  0  0  0
    2.2930    0.0000    0.0000 C    0  0  0  0  0  0  0  0  0  0  0  0
    3.4475   -4.6659    0.0000 C    0  0  0  0  0  0  0  0  0  0  0  0
    4.5967   -5.3202    0.0000 O    0  0  0  0  0  0  0  0  0  0  0  0
    2.2930   -5.3202    0.0000 C    0  0  0  0  0  0  0  0  0  0  0  0
    4.2934   -1.5056    0.0000 C    0  0  0  0  0  0  0  0  0  0  0  0
    4.9531   -0.3511    0.0000 O    0  0  0  0  0  0  0  0  0  0  0  0
    4.9531   -2.6601    0.0000 C    0  0  0  0  0  0  0  0  0  0  0  0
  1  2  1  0  0  0  0
  1  3  1  0  0  0  0
  1  4  1  0  0  0  0
  1  5  1  0  0  0  0
  2  6  1  0  0  0  0
  3  9  1  0  0  0  0
  4 12  1  0  0  0  0
  6  7  2  0  0  0  0
  6  8  1  0  0  0  0
  9 10  2  0  0  0  0
  9 11  1  0  0  0  0
 12 13  2  0  0  0  0
 12 14  1  0  0  0  0
M  END
> <ID>
5252

> <Formula>
C7H12O6Si

> <FW>
220.2521

> <DSSTox_CID>
7565

> <DSSTox_RID>
78506

> <DSSTox_GSID>
27565

> <DSSTox_FileID_Sort>
3189

> <TS_ChemName>
Methylsilanetriyl triacetate

> <TS_ChemName_Synonyms>


> <TS_CASRN>
4253-34-3

> <CASRN_ChemName_Relationship>
primary

> <TS_Description>
single chemical compound

> <ChemNote>


> <STRUCTURE_Shown>
tested chemical

> <STRUCTURE_Formula>
C7H12O6Si

> <STRUCTURE_MW>
220.2521

> <STRUCTURE_ChemType>
organometallic

> <STRUCTURE_DefinedOrganicForm>


> <STRUCTURE_IUPAC>
methylsilanetriyl triacetate

> <STRUCTURE_SMILES>
O=C(C)O[Si](C)(OC(C)=O)OC(=O)C

> <STRUCTURE_SMILES_Desalt>
O=C(C)O[Si](C)(OC(C)=O)OC(=O)C

> <Substance_modify_yyyymmdd>
20080429

$$$$
