42553-65-1
ChemmineR-0915142007XD

 68 71  0  0  1  0  0  0  0  0  1 V2000
    1.6336   -3.5138    0.0000 C   0  0  0  0  0  0  0  0  0  0  0  0
    1.2946   -2.2192    0.0000 C   0  0  0  0  0  0  0  0  0  0  0  0
    2.8973   -3.8528    0.0000 O   0  0  0  0  0  0  0  0  0  0  0  0
    2.2192   -1.2946    0.0000 C   0  0  0  0  0  0  0  0  0  0  0  0
    3.8528   -2.8973    0.0000 C   0  0  0  0  0  0  0  0  0  0  0  0
    3.5138   -1.6336    0.0000 C   0  0  0  0  0  0  0  0  0  0  0  0
    0.6781   -4.4385    0.0000 O   0  0  0  0  0  0  0  0  0  0  0  0
    0.0000   -1.8802    0.0000 O   0  0  0  0  0  0  0  0  0  0  0  0
    1.8802    0.0000    0.0000 O   0  0  0  0  0  0  0  0  0  0  0  0
    4.4385   -0.7089    0.0000 O   0  0  0  0  0  0  0  0  0  0  0  0
    5.1166   -3.2672    0.0000 C   0  0  0  0  0  0  0  0  0  0  0  0
    6.0721   -2.3117    0.0000 O   0  0  0  0  0  0  0  0  0  0  0  0
    5.0858   -6.1337    0.0000 C   0  0  0  0  0  0  0  0  0  0  0  0
    5.0858   -7.4591    0.0000 C   0  0  0  0  0  0  0  0  0  0  0  0
    3.9453   -5.4556    0.0000 O   0  0  0  0  0  0  0  0  0  0  0  0
    3.9453   -8.1064    0.0000 C   0  0  0  0  0  0  0  0  0  0  0  0
    2.7740   -6.1337    0.0000 C   0  0  0  0  0  0  0  0  0  0  0  0
    2.7740   -7.4591    0.0000 C   0  0  0  0  0  0  0  0  0  0  0  0
    6.2262   -8.1064    0.0000 O   0  0  0  0  0  0  0  0  0  0  0  0
    3.9453   -9.4318    0.0000 O   0  0  0  0  0  0  0  0  0  0  0  0
    1.6336   -8.1064    0.0000 O   0  0  0  0  0  0  0  0  0  0  0  0
    1.6336   -5.4556    0.0000 C   0  0  0  0  0  0  0  0  0  0  0  0
    7.3666   -6.1337    0.0000 C   0  0  0  0  0  0  0  0  0  0  0  0
    8.5379   -5.4556    0.0000 C   0  0  0  0  0  0  0  0  0  0  0  0
    9.6783   -6.1337    0.0000 C   0  0  0  0  0  0  0  0  0  0  0  0
   10.8188   -5.4556    0.0000 C   0  0  0  0  0  0  0  0  0  0  0  0
   11.9592   -6.1337    0.0000 C   0  0  0  0  0  0  0  0  0  0  0  0
   13.1305   -5.4556    0.0000 C   0  0  0  0  0  0  0  0  0  0  0  0
   14.2709   -6.1337    0.0000 C   0  0  0  0  0  0  0  0  0  0  0  0
   15.4114   -5.4556    0.0000 C   0  0  0  0  0  0  0  0  0  0  0  0
   16.5826   -6.1337    0.0000 C   0  0  0  0  0  0  0  0  0  0  0  0
   17.7231   -5.4556    0.0000 C   0  0  0  0  0  0  0  0  0  0  0  0
   18.8635   -6.1337    0.0000 C   0  0  0  0  0  0  0  0  0  0  0  0
   18.8635   -7.4591    0.0000 C   0  0  0  0  0  0  0  0  0  0  0  0
   20.0040   -5.4556    0.0000 C   0  0  0  0  0  0  0  0  0  0  0  0
   21.1752   -6.1337    0.0000 C   0  0  0  0  0  0  0  0  0  0  0  0
   22.3157   -5.4556    0.0000 C   0  0  0  0  0  0  0  0  0  0  0  0
   23.4561   -6.1337    0.0000 C   0  0  0  0  0  0  0  0  0  0  0  0
   23.4561   -7.4591    0.0000 C   0  0  0  0  0  0  0  0  0  0  0  0
   24.5965   -5.4556    0.0000 C   0  0  0  0  0  0  0  0  0  0  0  0
    8.5379   -4.1302    0.0000 C   0  0  0  0  0  0  0  0  0  0  0  0
   13.1305   -4.1302    0.0000 C   0  0  0  0  0  0  0  0  0  0  0  0
    6.2262   -5.4556    0.0000 O   0  0  0  0  0  0  0  0  0  0  0  0
    7.3666   -7.4591    0.0000 O   0  0  0  0  0  0  0  0  0  0  0  0
   25.7678   -6.1337    0.0000 O   0  0  0  0  0  0  0  0  0  0  0  0
   24.5965   -4.1302    0.0000 O   0  0  0  0  0  0  0  0  0  0  0  0
   29.4665   -8.2297    0.0000 C   0  0  0  0  0  0  0  0  0  0  0  0
   29.6207   -9.5550    0.0000 C   0  0  0  0  0  0  0  0  0  0  0  0
   28.2336   -7.7057    0.0000 O   0  0  0  0  0  0  0  0  0  0  0  0
   28.5419  -10.3256    0.0000 C   0  0  0  0  0  0  0  0  0  0  0  0
   27.1857   -8.4763    0.0000 C   0  0  0  0  0  0  0  0  0  0  0  0
   27.3089   -9.8016    0.0000 C   0  0  0  0  0  0  0  0  0  0  0  0
   30.5145   -7.4283    0.0000 O   0  0  0  0  0  0  0  0  0  0  0  0
   30.8227  -10.0790    0.0000 O   0  0  0  0  0  0  0  0  0  0  0  0
   28.6960  -11.6510    0.0000 O   0  0  0  0  0  0  0  0  0  0  0  0
   26.2610  -10.6030    0.0000 O   0  0  0  0  0  0  0  0  0  0  0  0
   25.9527   -7.9523    0.0000 C   0  0  0  0  0  0  0  0  0  0  0  0
   24.9048   -8.7537    0.0000 O   0  0  0  0  0  0  0  0  0  0  0  0
   26.9083   -5.4556    0.0000 C   0  0  0  0  0  0  0  0  0  0  0  0
   26.9083   -4.1302    0.0000 C   0  0  0  0  0  0  0  0  0  0  0  0
   28.0487   -6.1337    0.0000 O   0  0  0  0  0  0  0  0  0  0  0  0
   28.0487   -3.4521    0.0000 C   0  0  0  0  0  0  0  0  0  0  0  0
   29.1891   -5.4556    0.0000 C   0  0  0  0  0  0  0  0  0  0  0  0
   29.1891   -4.1302    0.0000 C   0  0  0  0  0  0  0  0  0  0  0  0
   25.7678   -3.4521    0.0000 O   0  0  0  0  0  0  0  0  0  0  0  0
   28.0487   -2.1268    0.0000 O   0  0  0  0  0  0  0  0  0  0  0  0
   30.3604   -3.4521    0.0000 O   0  0  0  0  0  0  0  0  0  0  0  0
   30.3604   -6.1029    0.0000 C   0  0  0  0  0  0  0  0  0  0  0  0
  1  2  1  0  0  0  0
  1  3  1  0  0  0  0
  1  7  1  1  0  0  0
  2  4  1  0  0  0  0
  2  8  1  6  0  0  0
  3  5  1  0  0  0  0
  4  6  1  0  0  0  0
  4  9  1  1  0  0  0
  5  6  1  0  0  0  0
  5 11  1  1  0  0  0
  6 10  1  6  0  0  0
  7 22  1  0  0  0  0
 11 12  1  0  0  0  0
 13 14  1  0  0  0  0
 13 15  1  0  0  0  0
 13 43  1  1  0  0  0
 14 16  1  0  0  0  0
 14 19  1  6  0  0  0
 15 17  1  0  0  0  0
 16 18  1  0  0  0  0
 16 20  1  1  0  0  0
 17 18  1  0  0  0  0
 17 22  1  1  0  0  0
 18 21  1  6  0  0  0
 23 24  1  0  0  0  0
 23 43  1  0  0  0  0
 23 44  2  0  0  0  0
 24 25  2  0  0  0  0
 24 41  1  0  0  0  0
 25 26  1  0  0  0  0
 26 27  2  0  0  0  0
 27 28  1  0  0  0  0
 28 29  2  0  0  0  0
 28 42  1  0  0  0  0
 29 30  1  0  0  0  0
 30 31  2  0  0  0  0
 31 32  1  0  0  0  0
 32 33  2  0  0  0  0
 33 35  1  0  0  0  0
 33 34  1  0  0  0  0
 35 36  2  0  0  0  0
 36 37  1  0  0  0  0
 37 38  2  0  0  0  0
 38 40  1  0  0  0  0
 38 39  1  0  0  0  0
 40 45  1  0  0  0  0
 40 46  2  0  0  0  0
 59 45  1  1  0  0  0
 47 48  1  0  0  0  0
 47 49  1  0  0  0  0
 47 53  1  1  0  0  0
 48 50  1  0  0  0  0
 48 54  1  6  0  0  0
 49 51  1  0  0  0  0
 50 52  1  0  0  0  0
 50 55  1  1  0  0  0
 51 52  1  0  0  0  0
 51 57  1  1  0  0  0
 52 56  1  6  0  0  0
 53 68  1  0  0  0  0
 57 58  1  0  0  0  0
 59 60  1  0  0  0  0
 59 61  1  0  0  0  0
 60 62  1  0  0  0  0
 60 65  1  6  0  0  0
 61 63  1  0  0  0  0
 62 64  1  0  0  0  0
 62 66  1  1  0  0  0
 63 64  1  0  0  0  0
 63 68  1  1  0  0  0
 64 67  1  6  0  0  0
M  END
> <ID>
1398

> <Formula>
C44H64O24

> <FW>
976.9646

> <DSSTox_CID>
1457

> <DSSTox_RID>
81403

> <DSSTox_GSID>
46172

> <DSSTox_FileID_Sort>
6084

> <TS_ChemName>
Crocin

> <TS_ChemName_Synonyms>


> <TS_CASRN>
42553-65-1

> <CASRN_ChemName_Relationship>
primary

> <TS_Description>
single chemical compound

> <ChemNote>
stereochem

> <STRUCTURE_Shown>
tested chemical

> <STRUCTURE_Formula>
C44H64O24

> <STRUCTURE_MW>
976.9646

> <STRUCTURE_ChemType>
defined organic

> <STRUCTURE_DefinedOrganicForm>
parent

> <STRUCTURE_IUPAC>
bis[(2S,3R,4S,5S,6R)-3,4,5-trihydroxy-6-({[(2R,3R,4S,5S,6R)-3,4,5-trihydroxy-6-(hydroxymethyl)tetrahydro-2H-pyran-2-yl]oxy}methyl)tetrahydro-2H-pyran-2-yl] (2E,4E,6E,8E,10E,12E,14E)-2,6,11,15-tetramethylhexadeca-2,4,6,8,10,12,14-heptaenedioate

> <STRUCTURE_SMILES>
O=C(O[C@@H]2O[C@H](CO[C@@H]1O[C@H](CO)[C@@H](O)[C@H](O)[C@H]1O)[C@@H](O)[C@H](O)[C@H]2O)C(\C)=C\C=C\C(\C)=C\C=C\C=C(/C)\C=C\C=C(/C)C(=O)O[C@@H]4O[C@H](CO[C@@H]3O[C@H](CO)[C@@H](O)[C@H](O)[C@H]3O)[C@@H](O)[C@H](O)[C@H]4O

> <STRUCTURE_SMILES_Desalt>
O=C(O[C@@H]2O[C@H](CO[C@@H]1O[C@H](CO)[C@@H](O)[C@H](O)[C@H]1O)[C@@H](O)[C@H](O)[C@H]2O)C(\C)=C\C=C\C(\C)=C\C=C\C=C(/C)\C=C\C=C(/C)C(=O)O[C@@H]4O[C@H](CO[C@@H]3O[C@H](CO)[C@@H](O)[C@H](O)[C@H]3O)[C@@H](O)[C@H](O)[C@H]4O

> <Substance_modify_yyyymmdd>
20110818

$$$$
