42576-02-3
ChemmineR-0915142007XD

 22 23  0  0  0  0  0  0  0  0  2 V2000
    6.9126   -3.9856    0.0000 C    0  0  0  0  0  0  0  0  0  0  0  0
    9.2271   -3.9960    0.0000 N    0  3  0  0  0  0  0  0  0  0  0  0
    8.0646   -3.3213    0.0000 C    0  0  0  0  0  0  0  0  0  0  0  0
    6.9126   -5.3142    0.0000 C    0  0  0  0  0  0  0  0  0  0  0  0
    3.4563   -1.9928    0.0000 C    0  0  0  0  0  0  0  0  0  0  0  0
    2.3146   -1.3285    0.0000 C    0  0  0  0  0  0  0  0  0  0  0  0
    5.7605   -3.3213    0.0000 C    0  0  0  0  0  0  0  0  0  0  0  0
    8.0646   -1.9928    0.0000 C    0  0  0  0  0  0  0  0  0  0  0  0
   10.3792   -3.3317    0.0000 O    0  5  0  0  0  0  0  0  0  0  0  0
    1.1521   -1.9928    0.0000 C    0  0  0  0  0  0  0  0  0  0  0  0
    4.6084   -1.3285    0.0000 O    0  0  0  0  0  0  0  0  0  0  0  0
    9.2271   -5.3349    0.0000 O    0  0  0  0  0  0  0  0  0  0  0  0
    5.7605   -1.9928    0.0000 C    0  0  0  0  0  0  0  0  0  0  0  0
    8.0646   -5.9680    0.0000 O    0  0  0  0  0  0  0  0  0  0  0  0
    3.4563   -3.3213    0.0000 C    0  0  0  0  0  0  0  0  0  0  0  0
    1.1521   -3.3213    0.0000 C    0  0  0  0  0  0  0  0  0  0  0  0
    6.9126   -1.3285    0.0000 C    0  0  0  0  0  0  0  0  0  0  0  0
    2.3146    0.0000    0.0000 Cl   0  0  0  0  0  0  0  0  0  0  0  0
    5.7605   -5.9680    0.0000 O    0  0  0  0  0  0  0  0  0  0  0  0
    2.3146   -3.9856    0.0000 C    0  0  0  0  0  0  0  0  0  0  0  0
    0.0000   -3.9960    0.0000 Cl   0  0  0  0  0  0  0  0  0  0  0  0
    4.6291   -5.2830    0.0000 C    0  0  0  0  0  0  0  0  0  0  0  0
  1  3  2  0  0  0  0
  1  4  1  0  0  0  0
  1  7  1  0  0  0  0
  2  3  1  0  0  0  0
  2  9  1  0  0  0  0
  2 12  2  0  0  0  0
  3  8  1  0  0  0  0
  4 14  2  0  0  0  0
  4 19  1  0  0  0  0
  5 11  1  0  0  0  0
  5  6  1  0  0  0  0
  5 15  2  0  0  0  0
  6 10  2  0  0  0  0
  6 18  1  0  0  0  0
  7 13  2  0  0  0  0
  8 17  2  0  0  0  0
 10 16  1  0  0  0  0
 11 13  1  0  0  0  0
 13 17  1  0  0  0  0
 15 20  1  0  0  0  0
 16 20  2  0  0  0  0
 16 21  1  0  0  0  0
 19 22  1  0  0  0  0
M  END
> <ID>
7692

> <Formula>
C14H9Cl2NO5

> <FW>
342.131

> <DSSTox_CID>
20320

> <DSSTox_RID>
79477

> <DSSTox_GSID>
40320

> <DSSTox_FileID_Sort>
4159

> <TS_ChemName>
Bifenox

> <TS_ChemName_Synonyms>


> <TS_CASRN>
42576-02-3

> <CASRN_ChemName_Relationship>
primary

> <TS_Description>
single chemical compound

> <ChemNote>


> <STRUCTURE_Shown>
tested chemical

> <STRUCTURE_Formula>
C14H9Cl2NO5

> <STRUCTURE_MW>
342.131

> <STRUCTURE_ChemType>
defined organic

> <STRUCTURE_DefinedOrganicForm>
parent

> <STRUCTURE_IUPAC>
methyl 5-(2,4-dichlorophenoxy)-2-nitrobenzoate

> <STRUCTURE_SMILES>
Clc2cc(Cl)ccc2Oc1cc(C(=O)OC)c(cc1)[N+]([O-])=O

> <STRUCTURE_SMILES_Desalt>
Clc2cc(Cl)ccc2Oc1cc(C(=O)OC)c(cc1)[N+]([O-])=O

> <Substance_modify_yyyymmdd>
20080429

$$$$
