42588-37-4
ChemmineR-0915142007XD

 20 19  0  0  0  0  0  0  0  0  1 V2000
    5.0081   -1.3262    0.0000 C   0  0  0  0  0  0  0  0  0  0  0  0
    6.1249   -1.9718    0.0000 C   0  0  0  0  0  0  0  0  0  0  0  0
    7.2417   -1.3262    0.0000 C   0  0  0  0  0  0  0  0  0  0  0  0
    8.3934   -1.9718    0.0000 C   0  0  0  0  0  0  0  0  0  0  0  0
    9.5102   -1.3262    0.0000 C   0  0  0  0  0  0  0  0  0  0  0  0
   10.6794   -1.9718    0.0000 C   0  0  0  0  0  0  0  0  0  0  0  0
   11.7787   -1.3262    0.0000 C   0  0  0  0  0  0  0  0  0  0  0  0
   12.9478   -1.9718    0.0000 C   0  0  0  0  0  0  0  0  0  0  0  0
   14.0646   -1.3262    0.0000 C   0  0  0  0  0  0  0  0  0  0  0  0
   15.1640   -1.9718    0.0000 C   0  0  0  0  0  0  0  0  0  0  0  0
   16.3331   -1.3262    0.0000 C   0  0  0  0  0  0  0  0  0  0  0  0
   17.4499   -1.9718    0.0000 C   0  0  0  0  0  0  0  0  0  0  0  0
    5.0081    0.0000    0.0000 O   0  0  0  0  0  0  0  0  0  0  0  0
    3.8564   -1.9718    0.0000 O   0  0  0  0  0  0  0  0  0  0  0  0
    7.2417    0.0000    0.0000 C   0  0  0  0  0  0  0  0  0  0  0  0
   11.7787    0.0000    0.0000 C   0  0  0  0  0  0  0  0  0  0  0  0
   16.3331    0.0000    0.0000 C   0  0  0  0  0  0  0  0  0  0  0  0
    2.7396   -1.3262    0.0000 C   0  0  0  0  0  0  0  0  0  0  0  0
    1.5879   -1.9718    0.0000 C   0  0  0  0  0  0  0  0  0  0  0  0
    0.0000   -1.3436    0.0000 C   0  0  0  0  0  0  0  0  0  0  0  0
  1  2  1  0  0  0  0
  1 14  1  0  0  0  0
  1 13  2  0  0  0  0
  2  3  2  0  0  0  0
  3  4  1  0  0  0  0
  3 15  1  0  0  0  0
  4  5  2  0  0  0  0
  5  6  1  0  0  0  0
  6  7  1  0  0  0  0
  7  8  1  0  0  0  0
  7 16  1  0  0  0  0
  8  9  1  0  0  0  0
  9 10  1  0  0  0  0
 10 11  1  0  0  0  0
 11 12  1  0  0  0  0
 11 17  1  0  0  0  0
 14 18  1  0  0  0  0
 18 19  1  0  0  0  0
 19 20  3  0  0  0  0
M  END
> <ID>
6548

> <Formula>
C18H28O2

> <FW>
276.4137

> <DSSTox_CID>
12624

> <DSSTox_RID>
79011

> <DSSTox_GSID>
32624

> <DSSTox_FileID_Sort>
3693

> <TS_ChemName>
Kinoprene

> <TS_ChemName_Synonyms>


> <TS_CASRN>
42588-37-4

> <CASRN_ChemName_Relationship>
primary

> <TS_Description>
single chemical compound

> <ChemNote>
stereochem

> <STRUCTURE_Shown>
tested chemical

> <STRUCTURE_Formula>
C18H28O2

> <STRUCTURE_MW>
276.4137

> <STRUCTURE_ChemType>
defined organic

> <STRUCTURE_DefinedOrganicForm>
parent

> <STRUCTURE_IUPAC>
prop-2-yn-1-yl (2E,4E)-3,7,11-trimethyldodeca-2,4-dienoate

> <STRUCTURE_SMILES>
C\C(=C/C(=O)OCC#C)\C=C\CC(C)CCCC(C)C

> <STRUCTURE_SMILES_Desalt>
C\C(=C/C(=O)OCC#C)\C=C\CC(C)CCCC(C)C

> <Substance_modify_yyyymmdd>
20080429

$$$$
