426-13-1
ChemmineR-0915142007XD

 29 32  0  0  1  0  0  0  0  0  1 V2000
    3.5110   -4.6946    0.0000 C   0  0  0  0  0  0  0  0  0  0  0  0
    4.6648   -4.0282    0.0000 C   0  0  0  0  0  0  0  0  0  0  0  0
    7.0021   -2.6954    0.0000 C   0  0  0  0  0  0  0  0  0  0  0  0
    3.5110   -6.0473    0.0000 C   0  0  0  0  0  0  0  0  0  0  0  0
    5.8384   -4.6946    0.0000 C   0  0  0  0  0  0  0  0  0  0  0  0
    8.2752   -2.2578    0.0000 C   0  0  0  0  0  0  0  0  0  0  0  0
    7.0021   -4.0282    0.0000 C   0  0  0  0  0  0  0  0  0  0  0  0
    4.6648   -2.6954    0.0000 C   0  0  0  0  0  0  0  0  0  0  0  0
    2.3771   -4.0282    0.0000 C   0  0  0  0  0  0  0  0  0  0  0  0
    5.8384   -2.0290    0.0000 C   0  0  0  0  0  0  0  0  0  0  0  0
    5.8384   -6.0473    0.0000 C   0  0  0  0  0  0  0  0  0  0  0  0
    2.3771   -6.7137    0.0000 C   0  0  0  0  0  0  0  0  0  0  0  0
    4.6648   -6.7137    0.0000 C   0  0  0  0  0  0  0  0  0  0  0  0
    9.0809   -3.3618    0.0000 C   0  0  0  0  0  0  0  0  0  0  0  0
    8.2752   -4.4360    0.0000 C   0  0  0  0  0  0  0  0  0  0  0  0
    1.2035   -4.6946    0.0000 C   0  0  0  0  0  0  0  0  0  0  0  0
    8.6433   -0.9747    0.0000 C   0  0  0  0  0  0  0  0  0  0  0  0
    1.2035   -6.0473    0.0000 C   0  0  0  0  0  0  0  0  0  0  0  0
    4.6648   -5.1820    0.0000 F   0  0  0  0  0  0  0  0  0  0  0  0
    7.7083    0.0000    0.0000 O   0  0  0  0  0  0  0  0  0  0  0  0
    0.0000   -6.7435    0.0000 O   0  0  0  0  0  0  0  0  0  0  0  0
    9.6379   -2.2578    0.0000 O   0  0  0  0  0  0  0  0  0  0  0  0
    3.5110   -3.3618    0.0000 C   0  0  0  0  0  0  0  0  0  0  0  0
    7.0021   -1.3328    0.0000 C   0  0  0  0  0  0  0  0  0  0  0  0
    3.4911   -1.9992    0.0000 O   0  0  0  0  0  0  0  0  0  0  0  0
    4.6847   -7.7680    0.0000 C   0  0  0  0  0  0  0  0  0  0  0  0
    9.9462   -0.6366    0.0000 C   0  0  0  0  0  0  0  0  0  0  0  0
    5.8384   -3.3618    0.0000 H   0  0  0  0  0  0  0  0  0  0  0  0
    7.0021   -5.3610    0.0000 H   0  0  0  0  0  0  0  0  0  0  0  0
  1  2  1  0  0  0  0
  1  4  1  0  0  0  0
  1  9  1  0  0  0  0
  1 23  1  1  0  0  0
  2  5  1  0  0  0  0
  2  8  1  0  0  0  0
  2 19  1  6  0  0  0
  3 10  1  0  0  0  0
  3  6  1  0  0  0  0
  3 24  1  1  0  0  0
  3  7  1  0  0  0  0
  4 12  2  0  0  0  0
  4 13  1  0  0  0  0
  5  7  1  0  0  0  0
  5 11  1  0  0  0  0
  5 28  1  1  0  0  0
  6 17  1  1  0  0  0
  6 22  1  0  0  0  0
  6 14  1  0  0  0  0
  7 15  1  0  0  0  0
  7 29  1  6  0  0  0
  8 10  1  0  0  0  0
  8 25  1  1  0  0  0
  9 16  2  0  0  0  0
 11 13  1  0  0  0  0
 12 18  1  0  0  0  0
 13 26  1  6  0  0  0
 14 15  1  0  0  0  0
 16 18  1  0  0  0  0
 17 20  2  0  0  0  0
 17 27  1  0  0  0  0
 18 21  2  0  0  0  0
M  END
> <ID>
12576

> <Formula>
C22H29FO4

> <FW>
376.4617

> <DSSTox_CID>
27435

> <DSSTox_RID>
82345

> <DSSTox_GSID>
47435

> <DSSTox_FileID_Sort>
7026

> <TS_ChemName>
Fluorometholone

> <TS_ChemName_Synonyms>


> <TS_CASRN>
426-13-1

> <CASRN_ChemName_Relationship>
primary

> <TS_Description>
single chemical compound

> <ChemNote>
stereochem

> <STRUCTURE_Shown>
tested chemical

> <STRUCTURE_Formula>
C22H29FO4

> <STRUCTURE_MW>
376.4617

> <STRUCTURE_ChemType>
defined organic

> <STRUCTURE_DefinedOrganicForm>
parent

> <STRUCTURE_IUPAC>
(6alpha,11beta)-9-fluoro-11,17-dihydroxy-6-methylpregna-1,4-diene-3,20-dione

> <STRUCTURE_SMILES>
CC(=O)[C@@]4(O)CC[C@@H]3[C@]4(C)C[C@H](O)[C@@]2(F)[C@H]3C[C@H](C)C1=CC(=O)C=C[C@@]12C

> <STRUCTURE_SMILES_Desalt>
CC(=O)[C@@]4(O)CC[C@@H]3[C@]4(C)C[C@H](O)[C@@]2(F)[C@H]3C[C@H](C)C1=CC(=O)C=C[C@@]12C

> <Substance_modify_yyyymmdd>
20100619

$$$$
