4265-16-1
ChemmineR-0915142007XD

 11 12  0  0  0  0  0  0  0  0  1 V2000
    3.5487   -0.2662    0.0000 O   0  0  0  0  0  0  0  0  0  0  0  0
    2.2813   -0.6337    0.0000 C   0  0  0  0  0  0  0  0  0  0  0  0
    4.3281   -1.3308    0.0000 C   0  0  0  0  0  0  0  0  0  0  0  0
    2.2813   -2.0278    0.0000 C   0  0  0  0  0  0  0  0  0  0  0  0
    3.5487   -2.3954    0.0000 C   0  0  0  0  0  0  0  0  0  0  0  0
    1.1216    0.0000    0.0000 C   0  0  0  0  0  0  0  0  0  0  0  0
    0.0000   -0.6337    0.0000 C   0  0  0  0  0  0  0  0  0  0  0  0
    0.0000   -2.0278    0.0000 C   0  0  0  0  0  0  0  0  0  0  0  0
    1.1216   -2.6615    0.0000 C   0  0  0  0  0  0  0  0  0  0  0  0
    5.6589   -1.3308    0.0000 C   0  0  0  0  0  0  0  0  0  0  0  0
    6.3369   -0.1711    0.0000 O   0  0  0  0  0  0  0  0  0  0  0  0
  1  2  1  0  0  0  0
  1  3  1  0  0  0  0
  2  4  2  0  0  0  0
  2  6  1  0  0  0  0
  3  5  2  0  0  0  0
  3 10  1  0  0  0  0
  4  5  1  0  0  0  0
  4  9  1  0  0  0  0
  6  7  2  0  0  0  0
  7  8  1  0  0  0  0
  8  9  2  0  0  0  0
 10 11  2  0  0  0  0
M  END
> <ID>
12271

> <Formula>
C9H6O2

> <FW>
146.1427

> <DSSTox_CID>
27121

> <DSSTox_RID>
82129

> <DSSTox_GSID>
47121

> <DSSTox_FileID_Sort>
6810

> <TS_ChemName>
2-Benzofurancarboxaldehyde

> <TS_ChemName_Synonyms>


> <TS_CASRN>
4265-16-1

> <CASRN_ChemName_Relationship>
primary

> <TS_Description>
single chemical compound

> <ChemNote>


> <STRUCTURE_Shown>
tested chemical

> <STRUCTURE_Formula>
C9H6O2

> <STRUCTURE_MW>
146.1427

> <STRUCTURE_ChemType>
defined organic

> <STRUCTURE_DefinedOrganicForm>
parent

> <STRUCTURE_IUPAC>
1-benzofuran-2-carbaldehyde

> <STRUCTURE_SMILES>
O=Cc1cc2ccccc2o1

> <STRUCTURE_SMILES_Desalt>
O=Cc1cc2ccccc2o1

> <Substance_modify_yyyymmdd>
20100429

$$$$
