4273-98-7
ChemmineR-0915142007XD

 16 17  0  0  0  0  0  0  0  0  1 V2000
    5.9879   -1.1561    0.0000 C   0  0  0  0  0  0  0  0  0  0  0  0
    7.3195   -1.1561    0.0000 C   0  0  0  0  0  0  0  0  0  0  0  0
    7.9733   -2.3043    0.0000 C   0  0  0  0  0  0  0  0  0  0  0  0
    7.3195   -3.4604    0.0000 C   0  0  0  0  0  0  0  0  0  0  0  0
    5.9879   -3.4604    0.0000 C   0  0  0  0  0  0  0  0  0  0  0  0
    5.3182   -2.3043    0.0000 C   0  0  0  0  0  0  0  0  0  0  0  0
    5.3182    0.0000    0.0000 N   0  0  0  0  0  0  0  0  0  0  0  0
    3.9866   -2.3043    0.0000 S   0  0  0  0  0  0  0  0  0  0  0  0
    3.9866   -3.6358    0.0000 O   0  0  0  0  0  0  0  0  0  0  0  0
    3.9866   -0.9807    0.0000 O   0  0  0  0  0  0  0  0  0  0  0  0
    0.6698   -3.4604    0.0000 C   0  0  0  0  0  0  0  0  0  0  0  0
    0.0000   -2.3043    0.0000 C   0  0  0  0  0  0  0  0  0  0  0  0
    0.6698   -1.1561    0.0000 C   0  0  0  0  0  0  0  0  0  0  0  0
    2.0013   -1.1561    0.0000 C   0  0  0  0  0  0  0  0  0  0  0  0
    2.6551   -2.3043    0.0000 C   0  0  0  0  0  0  0  0  0  0  0  0
    2.0013   -3.4604    0.0000 C   0  0  0  0  0  0  0  0  0  0  0  0
  1  2  2  0  0  0  0
  1  6  1  0  0  0  0
  1  7  1  0  0  0  0
  2  3  1  0  0  0  0
  3  4  2  0  0  0  0
  4  5  1  0  0  0  0
  5  6  2  0  0  0  0
  6  8  1  0  0  0  0
  8  9  2  0  0  0  0
  8 10  2  0  0  0  0
  8 15  1  0  0  0  0
 11 16  2  0  0  0  0
 11 12  1  0  0  0  0
 12 13  2  0  0  0  0
 13 14  1  0  0  0  0
 14 15  2  0  0  0  0
 15 16  1  0  0  0  0
M  END
> <ID>
10588

> <Formula>
C12H11NO2S

> <FW>
233.2862

> <DSSTox_CID>
24941

> <DSSTox_RID>
80605

> <DSSTox_GSID>
44941

> <DSSTox_FileID_Sort>
5287

> <TS_ChemName>
2-(Phenylsulfonyl)aniline

> <TS_ChemName_Synonyms>
2-(Phenylsulfonyl)aniline (Benzenamine, 2-(phenylsulfonyl)-)

> <TS_CASRN>
4273-98-7

> <CASRN_ChemName_Relationship>
primary

> <TS_Description>
single chemical compound

> <ChemNote>


> <STRUCTURE_Shown>
tested chemical

> <STRUCTURE_Formula>
C12H11NO2S

> <STRUCTURE_MW>
233.2862

> <STRUCTURE_ChemType>
defined organic

> <STRUCTURE_DefinedOrganicForm>
parent

> <STRUCTURE_IUPAC>
2-(phenylsulfonyl)aniline

> <STRUCTURE_SMILES>
Nc1ccccc1S(=O)(=O)c2ccccc2

> <STRUCTURE_SMILES_Desalt>
Nc1ccccc1S(=O)(=O)c2ccccc2

> <Substance_modify_yyyymmdd>
20091116

$$$$
