42779-82-8
ChemmineR-0915142007XD

 18 19  0  0  0  0  0  0  0  0  1 V2000
    5.3348   -2.3373    0.0000 N    0  0  0  0  0  0  0  0  0  0  0  0
    7.3691   -3.0191    0.0000 C    0  0  0  0  0  0  0  0  0  0  0  0
    6.1139   -1.2769    0.0000 C    0  0  0  0  0  0  0  0  0  0  0  0
    6.1139   -3.4303    0.0000 C    0  0  0  0  0  0  0  0  0  0  0  0
    7.3691   -1.6881    0.0000 C    0  0  0  0  0  0  0  0  0  0  0  0
    3.9929   -2.3373    0.0000 C    0  0  0  0  0  0  0  0  0  0  0  0
    8.5269   -3.6575    0.0000 C    0  0  0  0  0  0  0  0  0  0  0  0
    9.6848   -2.9974    0.0000 C    0  0  0  0  0  0  0  0  0  0  0  0
    9.6848   -1.6664    0.0000 O    0  0  0  0  0  0  0  0  0  0  0  0
    3.3220   -3.5168    0.0000 C    0  0  0  0  0  0  0  0  0  0  0  0
    3.3220   -1.2011    0.0000 C    0  0  0  0  0  0  0  0  0  0  0  0
    1.3310   -2.3373    0.0000 C    0  0  0  0  0  0  0  0  0  0  0  0
    5.7027    0.0000    0.0000 C    0  0  0  0  0  0  0  0  0  0  0  0
   10.8210   -3.6575    0.0000 O    0  0  0  0  0  0  0  0  0  0  0  0
    5.7027   -4.6855    0.0000 C    0  0  0  0  0  0  0  0  0  0  0  0
    1.9911   -3.5168    0.0000 C    0  0  0  0  0  0  0  0  0  0  0  0
    1.9911   -1.2011    0.0000 C    0  0  0  0  0  0  0  0  0  0  0  0
    0.0000   -2.3373    0.0000 Cl   0  0  0  0  0  0  0  0  0  0  0  0
  1  3  1  0  0  0  0
  1  4  1  0  0  0  0
  1  6  1  0  0  0  0
  2  4  2  0  0  0  0
  2  7  1  0  0  0  0
  2  5  1  0  0  0  0
  3  5  2  0  0  0  0
  3 13  1  0  0  0  0
  4 15  1  0  0  0  0
  6 10  2  0  0  0  0
  6 11  1  0  0  0  0
  7  8  1  0  0  0  0
  8  9  2  0  0  0  0
  8 14  1  0  0  0  0
 10 16  1  0  0  0  0
 11 17  2  0  0  0  0
 12 17  1  0  0  0  0
 12 18  1  0  0  0  0
 12 16  2  0  0  0  0
M  END
> <ID>
11457

> <Formula>
C14H14ClNO2

> <FW>
263.7195

> <DSSTox_CID>
26158

> <DSSTox_RID>
81389

> <DSSTox_GSID>
46158

> <DSSTox_FileID_Sort>
6070

> <TS_ChemName>
Clopirac

> <TS_ChemName_Synonyms>


> <TS_CASRN>
42779-82-8

> <CASRN_ChemName_Relationship>
primary

> <TS_Description>
single chemical compound

> <ChemNote>


> <STRUCTURE_Shown>
tested chemical

> <STRUCTURE_Formula>
C14H14ClNO2

> <STRUCTURE_MW>
263.7195

> <STRUCTURE_ChemType>
defined organic

> <STRUCTURE_DefinedOrganicForm>
parent

> <STRUCTURE_IUPAC>
[1-(4-chlorophenyl)-2,5-dimethyl-1H-pyrrol-3-yl]acetic acid

> <STRUCTURE_SMILES>
O=C(O)Cc2cc(C)n(c1ccc(Cl)cc1)c2C

> <STRUCTURE_SMILES_Desalt>
O=C(O)Cc2cc(C)n(c1ccc(Cl)cc1)c2C

> <Substance_modify_yyyymmdd>
20110818

$$$$
