42835-25-6
ChemmineR-0915142007XD

 19 21  0  0  0  0  0  0  0  0  1 V2000
    5.7628   -3.9871    0.0000 C   0  0  0  0  0  0  0  0  0  0  0  0
    4.6086   -2.0016    0.0000 N   0  0  0  0  0  0  0  0  0  0  0  0
    3.4625   -3.9871    0.0000 C   0  0  0  0  0  0  0  0  0  0  0  0
    5.7628   -2.6554    0.0000 C   0  0  0  0  0  0  0  0  0  0  0  0
    3.4625   -2.6554    0.0000 C   0  0  0  0  0  0  0  0  0  0  0  0
    4.6086   -4.6570    0.0000 C   0  0  0  0  0  0  0  0  0  0  0  0
    2.3083   -2.0016    0.0000 C   0  0  0  0  0  0  0  0  0  0  0  0
    6.9170   -4.6570    0.0000 C   0  0  0  0  0  0  0  0  0  0  0  0
    2.3083   -4.6570    0.0000 C   0  0  0  0  0  0  0  0  0  0  0  0
    4.6086   -0.6699    0.0000 C   0  0  0  0  0  0  0  0  0  0  0  0
    1.1703   -2.6554    0.0000 C   0  0  0  0  0  0  0  0  0  0  0  0
    4.6086   -5.9888    0.0000 O   0  0  0  0  0  0  0  0  0  0  0  0
    2.3083   -0.6699    0.0000 C   0  0  0  0  0  0  0  0  0  0  0  0
    1.1703   -3.9871    0.0000 C   0  0  0  0  0  0  0  0  0  0  0  0
    8.0711   -4.0033    0.0000 O   0  0  0  0  0  0  0  0  0  0  0  0
    3.4625    0.0000    0.0000 C   0  0  0  0  0  0  0  0  0  0  0  0
    6.9170   -5.9888    0.0000 O   0  0  0  0  0  0  0  0  0  0  0  0
    0.0000   -4.6570    0.0000 F   0  0  0  0  0  0  0  0  0  0  0  0
    5.7628    0.0000    0.0000 C   0  0  0  0  0  0  0  0  0  0  0  0
  1  4  2  0  0  0  0
  1  6  1  0  0  0  0
  1  8  1  0  0  0  0
  2  4  1  0  0  0  0
  2 10  1  0  0  0  0
  2  5  1  0  0  0  0
  3  6  1  0  0  0  0
  3  5  2  0  0  0  0
  3  9  1  0  0  0  0
  5  7  1  0  0  0  0
  6 12  2  0  0  0  0
  7 13  1  0  0  0  0
  7 11  2  0  0  0  0
  8 15  2  0  0  0  0
  8 17  1  0  0  0  0
  9 14  2  0  0  0  0
 10 16  1  0  0  0  0
 10 19  1  0  0  0  0
 11 14  1  0  0  0  0
 13 16  1  0  0  0  0
 14 18  1  0  0  0  0
M  END
> <ID>
11076

> <Formula>
C14H12FNO3

> <FW>
261.2484

> <DSSTox_CID>
25623

> <DSSTox_RID>
81008

> <DSSTox_GSID>
45623

> <DSSTox_FileID_Sort>
5689

> <TS_ChemName>
Flumequine

> <TS_ChemName_Synonyms>


> <TS_CASRN>
42835-25-6

> <CASRN_ChemName_Relationship>
primary

> <TS_Description>
single chemical compound

> <ChemNote>


> <STRUCTURE_Shown>
tested chemical

> <STRUCTURE_Formula>
C14H12FNO3

> <STRUCTURE_MW>
261.2484

> <STRUCTURE_ChemType>
defined organic

> <STRUCTURE_DefinedOrganicForm>
parent

> <STRUCTURE_IUPAC>
9-fluoro-5-methyl-1-oxo-6,7-dihydro-1H,5H-pyrido[3,2,1-ij]quinoline-2-carboxylic acid

> <STRUCTURE_SMILES>
O=C(O)C3=CN1c2c(cc(F)cc2CCC1C)C3=O

> <STRUCTURE_SMILES_Desalt>
O=C(O)C3=CN1c2c(cc(F)cc2CCC1C)C3=O

> <Substance_modify_yyyymmdd>
20100107

$$$$
