42864-78-8
ChemmineR-0915142007XD

 26 26  0  0  0  0  0  0  0  0  1 V2000
   12.6687   -4.0185    0.0000 C    0  0  0  0  0  0  0  0  0  0  0  0
   13.8145   -3.3407    0.0000 C    0  0  0  0  0  0  0  0  0  0  0  0
   11.5067   -3.3407    0.0000 C    0  0  0  0  0  0  0  0  0  0  0  0
   13.8145   -1.9850    0.0000 C    0  0  0  0  0  0  0  0  0  0  0  0
    3.4536   -1.3556    0.0000 O    0  0  0  0  0  0  0  0  0  0  0  0
   11.5067   -1.9850    0.0000 C    0  0  0  0  0  0  0  0  0  0  0  0
    5.7614   -1.3556    0.0000 C    0  0  0  0  0  0  0  0  0  0  0  0
    2.2917   -1.9850    0.0000 C    0  0  0  0  0  0  0  0  0  0  0  0
    2.2917   -3.3407    0.0000 C    0  0  0  0  0  0  0  0  0  0  0  0
    4.5995   -1.9850    0.0000 C    0  0  0  0  0  0  0  0  0  0  0  0
   12.6687   -1.3395    0.0000 C    0  0  0  0  0  0  0  0  0  0  0  0
   12.6687   -5.3418    0.0000 O    0  0  0  0  0  0  0  0  0  0  0  0
    8.0370   -1.3556    0.0000 N    0  0  0  0  0  0  0  0  0  0  0  0
    1.1458   -4.0185    0.0000 C    0  0  0  0  0  0  0  0  0  0  0  0
   14.9927   -4.0023    0.0000 O    0  0  0  0  0  0  0  0  0  0  0  0
    5.7614    0.0000    0.0000 O    0  0  0  0  0  0  0  0  0  0  0  0
    0.0000   -1.9850    0.0000 C    0  0  0  0  0  0  0  0  0  0  0  0
    6.8911   -1.9850    0.0000 C    0  0  0  0  0  0  0  0  0  0  0  0
    1.1458   -1.3556    0.0000 C    0  0  0  0  0  0  0  0  0  0  0  0
    9.1828   -1.9850    0.0000 C    0  0  0  0  0  0  0  0  0  0  0  0
    0.0000   -3.3407    0.0000 C    0  0  0  0  0  0  0  0  0  0  0  0
   10.3609   -1.3556    0.0000 C    0  0  0  0  0  0  0  0  0  0  0  0
    1.1458   -5.3418    0.0000 C    0  0  0  0  0  0  0  0  0  0  0  0
   11.4261   -5.9067    0.0000 C    0  0  0  0  0  0  0  0  0  0  0  0
   16.1385   -3.3084    0.0000 C    0  0  0  0  0  0  0  0  0  0  0  0
    5.9067   -3.1631    0.0000 Cl   0  0  0  0  0  0  0  0  0  0  0  0
  1  2  2  0  0  0  0
  1  3  1  0  0  0  0
  1 12  1  0  0  0  0
  2  4  1  0  0  0  0
  2 15  1  0  0  0  0
  3  6  2  0  0  0  0
  4 11  2  0  0  0  0
  5 10  1  0  0  0  0
  5  8  1  0  0  0  0
  6 11  1  0  0  0  0
  6 22  1  0  0  0  0
  7 18  1  0  0  0  0
  7 10  1  0  0  0  0
  7 16  1  0  0  0  0
  8  9  2  0  0  0  0
  8 19  1  0  0  0  0
  9 14  1  0  0  0  0
 12 24  1  0  0  0  0
 13 20  1  0  0  0  0
 13 18  1  0  0  0  0
 14 23  1  0  0  0  0
 14 21  2  0  0  0  0
 15 25  1  0  0  0  0
 17 19  2  0  0  0  0
 17 21  1  0  0  0  0
 20 22  1  0  0  0  0
M  END
> <ID>
13630

> <Formula>
C20H28ClNO4

> <FW>
381.8936 (345.4327+36.4609)

> <DSSTox_CID>
28559

> <DSSTox_RID>
82831

> <DSSTox_GSID>
48633

> <DSSTox_FileID_Sort>
7508

> <TS_ChemName>
Bevantolol hydrochloride

> <TS_ChemName_Synonyms>
Bevantolol

> <TS_CASRN>
42864-78-8

> <CASRN_ChemName_Relationship>
primary

> <TS_Description>
single chemical compound

> <ChemNote>
parent [59170-23-9]

> <STRUCTURE_Shown>
tested chemical

> <STRUCTURE_Formula>
C20H28ClNO4

> <STRUCTURE_MW>
381.8936

> <STRUCTURE_ChemType>
defined organic

> <STRUCTURE_DefinedOrganicForm>
complex

> <STRUCTURE_IUPAC>
1-{[2-(3,4-dimethoxyphenyl)ethyl]amino}-3-(3-methylphenoxy)propan-2-ol hydrochloride (1:1)

> <STRUCTURE_SMILES>
Cl.COc1cc(ccc1OC)CCNCC(O)COc2cc(C)ccc2

> <STRUCTURE_SMILES_Desalt>
COc1cc(ccc1OC)CCNCC(O)COc2cc(C)ccc2

> <Substance_modify_yyyymmdd>
20111015

$$$$
