42879-47-0
ChemmineR-0915142007XD

 22 22  0  0  0  0  0  0  0  0  2 V2000
    2.2971   -1.9777    0.0000 C    0  0  0  0  0  0  0  0  0  0  0  0
    3.4518   -2.6533    0.0000 C    0  0  0  0  0  0  0  0  0  0  0  0
    1.1547   -2.6533    0.0000 C    0  0  0  0  0  0  0  0  0  0  0  0
    2.2971   -0.6510    0.0000 C    0  0  0  0  0  0  0  0  0  0  0  0
    4.6065   -1.9777    0.0000 O    0  0  0  0  0  0  0  0  0  0  0  0
    3.4518   -3.9800    0.0000 C    0  0  0  0  0  0  0  0  0  0  0  0
    1.1547   -3.9800    0.0000 C    0  0  0  0  0  0  0  0  0  0  0  0
    0.0000   -1.9777    0.0000 C    0  0  0  0  0  0  0  0  0  0  0  0
    1.1547    0.0000    0.0000 C    0  0  0  0  0  0  0  0  0  0  0  0
    5.7612   -2.6533    0.0000 C    0  0  0  0  0  0  0  0  0  0  0  0
    2.2971   -4.6311    0.0000 C    0  0  0  0  0  0  0  0  0  0  0  0
    0.0000   -0.6510    0.0000 C    0  0  0  0  0  0  0  0  0  0  0  0
    6.9404   -1.9777    0.0000 C    0  0  0  0  0  0  0  0  0  0  0  0
    8.0828   -2.6533    0.0000 C    0  0  0  0  0  0  0  0  0  0  0  0
    6.9404   -0.6510    0.0000 O    0  0  0  0  0  0  0  0  0  0  0  0
    8.0828   -3.9800    0.0000 N    0  3  0  0  0  0  0  0  0  0  0  0
    9.4095   -3.9800    0.0000 C    0  0  0  0  0  0  0  0  0  0  0  0
    6.7439   -3.9800    0.0000 C    0  0  0  0  0  0  0  0  0  0  0  0
    8.0828   -5.3067    0.0000 C    0  0  0  0  0  0  0  0  0  0  0  0
   10.0606   -2.8253    0.0000 C    0  0  0  0  0  0  0  0  0  0  0  0
   10.0606   -5.1470    0.0000 C    0  0  0  0  0  0  0  0  0  0  0  0
   12.2840   -3.9432    0.0000 Cl   0  5  0  0  0  0  0  0  0  0  0  0
  1  2  2  0  0  0  0
  1  3  1  0  0  0  0
  1  4  1  0  0  0  0
  2  5  1  0  0  0  0
  2  6  1  0  0  0  0
  3  7  2  0  0  0  0
  3  8  1  0  0  0  0
  4  9  2  0  0  0  0
  5 10  1  0  0  0  0
  6 11  2  0  0  0  0
  7 11  1  0  0  0  0
  8 12  2  0  0  0  0
  9 12  1  0  0  0  0
 10 13  1  0  0  0  0
 13 14  1  0  0  0  0
 13 15  1  0  0  0  0
 14 16  1  0  0  0  0
 16 17  1  0  0  0  0
 16 18  1  0  0  0  0
 16 19  1  0  0  0  0
 17 20  1  0  0  0  0
 17 21  1  0  0  0  0
M  END
> <ID>
11423

> <Formula>
C18H26ClNO2

> <FW>
323.8575 (288.4040+35.4535)

> <DSSTox_CID>
26119

> <DSSTox_RID>
81355

> <DSSTox_GSID>
46119

> <DSSTox_FileID_Sort>
6036

> <TS_ChemName>
Pranolium chloride

> <TS_ChemName_Synonyms>


> <TS_CASRN>
42879-47-0

> <CASRN_ChemName_Relationship>
primary

> <TS_Description>
single chemical compound

> <ChemNote>
ammonium; parent [50643-33-9]

> <STRUCTURE_Shown>
tested chemical

> <STRUCTURE_Formula>
C18H26ClNO2

> <STRUCTURE_MW>
323.8575

> <STRUCTURE_ChemType>
defined organic

> <STRUCTURE_DefinedOrganicForm>
salt

> <STRUCTURE_IUPAC>
2-hydroxy-N,N-dimethyl-3-(naphthalen-1-yloxy)-N-(propan-2-yl)propan-1-aminium chloride

> <STRUCTURE_SMILES>
[Cl-].CC(C)[N+](C)(C)CC(O)COc2cccc1ccccc12

> <STRUCTURE_SMILES_Desalt>
CC(C)[N+](C)(C)CC(O)COc2cccc1ccccc12

> <Substance_modify_yyyymmdd>
20110818

$$$$
