42874-03-3
ChemmineR-0915142007XD

 24 25  0  0  0  0  0  0  0  0  2 V2000
   10.3860   -4.0024    0.0000 N    0  3  0  0  0  0  0  0  0  0  0  0
    9.2081   -3.3311    0.0000 C    0  0  0  0  0  0  0  0  0  0  0  0
    1.1779   -4.0024    0.0000 C    0  0  0  0  0  0  0  0  0  0  0  0
    9.2081   -1.9885    0.0000 C    0  0  0  0  0  0  0  0  0  0  0  0
    2.3432   -3.3311    0.0000 C    0  0  0  0  0  0  0  0  0  0  0  0
    4.6230   -1.9885    0.0000 C    0  0  0  0  0  0  0  0  0  0  0  0
    3.4958   -1.3299    0.0000 C    0  0  0  0  0  0  0  0  0  0  0  0
    8.0555   -1.3299    0.0000 C    0  0  0  0  0  0  0  0  0  0  0  0
    8.0555   -3.9897    0.0000 C    0  0  0  0  0  0  0  0  0  0  0  0
    2.3432   -1.9885    0.0000 C    0  0  0  0  0  0  0  0  0  0  0  0
   10.3860   -5.3323    0.0000 O    0  5  0  0  0  0  0  0  0  0  0  0
    5.7756   -1.3299    0.0000 O    0  0  0  0  0  0  0  0  0  0  0  0
   11.5259   -3.3438    0.0000 O    0  0  0  0  0  0  0  0  0  0  0  0
    6.9156   -1.9885    0.0000 C    0  0  0  0  0  0  0  0  0  0  0  0
    3.4958   -3.9897    0.0000 C    0  0  0  0  0  0  0  0  0  0  0  0
    4.6230   -3.3311    0.0000 C    0  0  0  0  0  0  0  0  0  0  0  0
    0.0000   -4.6610    0.0000 F    0  0  0  0  0  0  0  0  0  0  0  0
    0.4940   -2.8372    0.0000 F    0  0  0  0  0  0  0  0  0  0  0  0
    1.8366   -5.1550    0.0000 F    0  0  0  0  0  0  0  0  0  0  0  0
    6.9156   -3.3311    0.0000 C    0  0  0  0  0  0  0  0  0  0  0  0
    3.4958    0.0000    0.0000 Cl   0  0  0  0  0  0  0  0  0  0  0  0
   10.3860   -1.3173    0.0000 O    0  0  0  0  0  0  0  0  0  0  0  0
   11.5259   -1.9759    0.0000 C    0  0  0  0  0  0  0  0  0  0  0  0
   12.6659   -1.3426    0.0000 C    0  0  0  0  0  0  0  0  0  0  0  0
  1  2  1  0  0  0  0
  1 11  1  0  0  0  0
  1 13  2  0  0  0  0
  2  4  1  0  0  0  0
  2  9  2  0  0  0  0
  3  5  1  0  0  0  0
  3 17  1  0  0  0  0
  3 18  1  0  0  0  0
  3 19  1  0  0  0  0
  4  8  2  0  0  0  0
  4 22  1  0  0  0  0
  5 15  2  0  0  0  0
  5 10  1  0  0  0  0
  6 12  1  0  0  0  0
  6  7  1  0  0  0  0
  6 16  2  0  0  0  0
  7 10  2  0  0  0  0
  7 21  1  0  0  0  0
  8 14  1  0  0  0  0
  9 20  1  0  0  0  0
 12 14  1  0  0  0  0
 14 20  2  0  0  0  0
 15 16  1  0  0  0  0
 22 23  1  0  0  0  0
 23 24  1  0  0  0  0
M  END
> <ID>
3576

> <Formula>
C15H11ClF3NO4

> <FW>
361.7003

> <DSSTox_CID>
4241

> <DSSTox_RID>
77337

> <DSSTox_GSID>
24241

> <DSSTox_FileID_Sort>
2020

> <TS_ChemName>
Oxyfluorfen

> <TS_ChemName_Synonyms>


> <TS_CASRN>
42874-03-3

> <CASRN_ChemName_Relationship>
primary

> <TS_Description>
single chemical compound

> <ChemNote>


> <STRUCTURE_Shown>
tested chemical

> <STRUCTURE_Formula>
C15H11ClF3NO4

> <STRUCTURE_MW>
361.7003

> <STRUCTURE_ChemType>
defined organic

> <STRUCTURE_DefinedOrganicForm>
parent

> <STRUCTURE_IUPAC>
2-chloro-1-(3-ethoxy-4-nitrophenoxy)-4-(trifluoromethyl)benzene

> <STRUCTURE_SMILES>
Clc2cc(ccc2Oc1ccc([N+]([O-])=O)c(OCC)c1)C(F)(F)F

> <STRUCTURE_SMILES_Desalt>
Clc2cc(ccc2Oc1ccc([N+]([O-])=O)c(OCC)c1)C(F)(F)F

> <Substance_modify_yyyymmdd>
20080429

$$$$
