42924-53-8
ChemmineR-0915142007XD

 17 18  0  0  0  0  0  0  0  0  1 V2000
   11.5183   -3.3173    0.0000 C   0  0  0  0  0  0  0  0  0  0  0  0
   10.3664   -3.9853    0.0000 O   0  0  0  0  0  0  0  0  0  0  0  0
    9.2146   -3.3173    0.0000 C   0  0  0  0  0  0  0  0  0  0  0  0
    8.0628   -3.9853    0.0000 C   0  0  0  0  0  0  0  0  0  0  0  0
    6.9110   -3.3173    0.0000 C   0  0  0  0  0  0  0  0  0  0  0  0
    5.7591   -3.9853    0.0000 C   0  0  0  0  0  0  0  0  0  0  0  0
    4.6073   -3.3173    0.0000 C   0  0  0  0  0  0  0  0  0  0  0  0
    4.6073   -1.9927    0.0000 C   0  0  0  0  0  0  0  0  0  0  0  0
    3.4555   -1.3246    0.0000 C   0  0  0  0  0  0  0  0  0  0  0  0
    2.3037   -1.9927    0.0000 C   0  0  0  0  0  0  0  0  0  0  0  0
    1.1518   -1.3246    0.0000 C   0  0  0  0  0  0  0  0  0  0  0  0
    0.0000   -1.9927    0.0000 C   0  0  0  0  0  0  0  0  0  0  0  0
    1.1518    0.0000    0.0000 O   0  0  0  0  0  0  0  0  0  0  0  0
    5.7591   -1.3246    0.0000 C   0  0  0  0  0  0  0  0  0  0  0  0
    6.9110   -1.9927    0.0000 C   0  0  0  0  0  0  0  0  0  0  0  0
    8.0628   -1.3246    0.0000 C   0  0  0  0  0  0  0  0  0  0  0  0
    9.2146   -1.9927    0.0000 C   0  0  0  0  0  0  0  0  0  0  0  0
  1  2  1  0  0  0  0
  2  3  1  0  0  0  0
  3  4  2  0  0  0  0
  3 17  1  0  0  0  0
  4  5  1  0  0  0  0
  5  6  2  0  0  0  0
  5 15  1  0  0  0  0
  6  7  1  0  0  0  0
  7  8  2  0  0  0  0
  8  9  1  0  0  0  0
  8 14  1  0  0  0  0
  9 10  1  0  0  0  0
 10 11  1  0  0  0  0
 11 12  1  0  0  0  0
 11 13  2  0  0  0  0
 14 15  2  0  0  0  0
 15 16  1  0  0  0  0
 16 17  2  0  0  0  0
M  END
> <ID>
10969

> <Formula>
C15H16O2

> <FW>
228.2863

> <DSSTox_CID>
25472

> <DSSTox_RID>
80901

> <DSSTox_GSID>
45472

> <DSSTox_FileID_Sort>
5582

> <TS_ChemName>
Nabumetone

> <TS_ChemName_Synonyms>


> <TS_CASRN>
42924-53-8

> <CASRN_ChemName_Relationship>
primary

> <TS_Description>
single chemical compound

> <ChemNote>


> <STRUCTURE_Shown>
tested chemical

> <STRUCTURE_Formula>
C15H16O2

> <STRUCTURE_MW>
228.2863

> <STRUCTURE_ChemType>
defined organic

> <STRUCTURE_DefinedOrganicForm>
parent

> <STRUCTURE_IUPAC>
4-(6-methoxynaphthalen-2-yl)butan-2-one

> <STRUCTURE_SMILES>
CC(=O)CCc1ccc2cc(ccc2c1)OC

> <STRUCTURE_SMILES_Desalt>
CC(=O)CCc1ccc2cc(ccc2c1)OC

> <Substance_modify_yyyymmdd>
20100107

$$$$
