42978-66-5
ChemmineR-0915142007XD

 21 20  0  0  0  0  0  0  0  0  1 V2000
   13.7864   -1.9990    0.0000 O   0  0  0  0  0  0  0  0  0  0  0  0
   12.6318   -1.3269    0.0000 C   0  0  0  0  0  0  0  0  0  0  0  0
   11.4772   -1.9990    0.0000 C   0  0  0  0  0  0  0  0  0  0  0  0
   10.3398   -1.3269    0.0000 O   0  0  0  0  0  0  0  0  0  0  0  0
    9.1852   -1.9990    0.0000 C   0  0  0  0  0  0  0  0  0  0  0  0
    8.0478   -1.3269    0.0000 C   0  0  0  0  0  0  0  0  0  0  0  0
    6.8932   -1.9990    0.0000 O   0  0  0  0  0  0  0  0  0  0  0  0
    5.7558   -1.3269    0.0000 C   0  0  0  0  0  0  0  0  0  0  0  0
    4.6012   -1.9990    0.0000 C   0  0  0  0  0  0  0  0  0  0  0  0
    3.4466   -1.3269    0.0000 O   0  0  0  0  0  0  0  0  0  0  0  0
    5.7558    0.0000    0.0000 C   0  0  0  0  0  0  0  0  0  0  0  0
    9.1852   -3.3260    0.0000 C   0  0  0  0  0  0  0  0  0  0  0  0
   12.6318    0.0000    0.0000 C   0  0  0  0  0  0  0  0  0  0  0  0
   14.9410   -1.3269    0.0000 C   0  0  0  0  0  0  0  0  0  0  0  0
   14.9410    0.0000    0.0000 O   0  0  0  0  0  0  0  0  0  0  0  0
   16.0784   -1.9990    0.0000 C   0  0  0  0  0  0  0  0  0  0  0  0
   17.2330   -1.3269    0.0000 C   0  0  0  0  0  0  0  0  0  0  0  0
    2.2920   -1.9990    0.0000 C   0  0  0  0  0  0  0  0  0  0  0  0
    2.2920   -3.3260    0.0000 O   0  0  0  0  0  0  0  0  0  0  0  0
    1.1546   -1.3269    0.0000 C   0  0  0  0  0  0  0  0  0  0  0  0
    0.0000   -1.9990    0.0000 C   0  0  0  0  0  0  0  0  0  0  0  0
  1  2  1  0  0  0  0
  1 14  1  0  0  0  0
  2  3  1  0  0  0  0
  2 13  1  0  0  0  0
  3  4  1  0  0  0  0
  4  5  1  0  0  0  0
  5  6  1  0  0  0  0
  5 12  1  0  0  0  0
  6  7  1  0  0  0  0
  7  8  1  0  0  0  0
  8  9  1  0  0  0  0
  8 11  1  0  0  0  0
  9 10  1  0  0  0  0
 10 18  1  0  0  0  0
 14 15  2  0  0  0  0
 14 16  1  0  0  0  0
 16 17  2  0  0  0  0
 18 19  2  0  0  0  0
 18 20  1  0  0  0  0
 20 21  2  0  0  0  0
M  END
> <ID>
5588

> <Formula>
C15H24O6

> <FW>
300.3475

> <DSSTox_CID>
8015

> <DSSTox_RID>
78640

> <DSSTox_GSID>
28015

> <DSSTox_FileID_Sort>
3322

> <TS_ChemName>
Tripropylene glycol diacrylate

> <TS_ChemName_Synonyms>
Tripropylene glycol diacrylate (2-Propenoic acid, (1-methyl-1,2-ethanediyl)bis[oxy(methyl-2,1-ethanediyl)] ester)

> <TS_CASRN>
42978-66-5

> <CASRN_ChemName_Relationship>
primary

> <TS_Description>
single chemical compound

> <ChemNote>
structure shown

> <STRUCTURE_Shown>
tested chemical

> <STRUCTURE_Formula>
C15H24O6

> <STRUCTURE_MW>
300.3475

> <STRUCTURE_ChemType>
defined organic

> <STRUCTURE_DefinedOrganicForm>
parent

> <STRUCTURE_IUPAC>
1-[(1-{[1-(acryloyloxy)propan-2-yl]oxy}propan-2-yl)oxy]propan-2-yl prop-2-enoate

> <STRUCTURE_SMILES>
O=C(OC(C)COC(C)COC(C)COC(=O)C=C)C=C

> <STRUCTURE_SMILES_Desalt>
O=C(OC(C)COC(C)COC(C)COC(=O)C=C)C=C

> <Substance_modify_yyyymmdd>
20080429

$$$$
