43076-61-5
ChemmineR-0915142007XD

 16 16  0  0  0  0  0  0  0  0  1 V2000
    5.4999   -6.4283    0.0000 C    0  0  0  0  0  0  0  0  0  0  0  0
    6.6467   -5.7574    0.0000 C    0  0  0  0  0  0  0  0  0  0  0  0
    7.8013   -5.0943    0.0000 C    0  0  0  0  0  0  0  0  0  0  0  0
    7.3176   -6.9120    0.0000 C    0  0  0  0  0  0  0  0  0  0  0  0
    5.9836   -4.6106    0.0000 C    0  0  0  0  0  0  0  0  0  0  0  0
    6.6467   -3.4560    0.0000 C    0  0  0  0  0  0  0  0  0  0  0  0
    5.9836   -2.3092    0.0000 C    0  0  0  0  0  0  0  0  0  0  0  0
    4.6574   -2.3092    0.0000 C    0  0  0  0  0  0  0  0  0  0  0  0
    3.9865   -3.4560    0.0000 C    0  0  0  0  0  0  0  0  0  0  0  0
    4.6574   -4.6106    0.0000 C    0  0  0  0  0  0  0  0  0  0  0  0
    3.9865   -1.1546    0.0000 C    0  0  0  0  0  0  0  0  0  0  0  0
    4.6574    0.0000    0.0000 O    0  0  0  0  0  0  0  0  0  0  0  0
    2.6603   -1.1546    0.0000 C    0  0  0  0  0  0  0  0  0  0  0  0
    1.9971   -2.3092    0.0000 C    0  0  0  0  0  0  0  0  0  0  0  0
    0.6631   -2.3092    0.0000 C    0  0  0  0  0  0  0  0  0  0  0  0
    0.0000   -3.4560    0.0000 Cl   0  0  0  0  0  0  0  0  0  0  0  0
  1  2  1  0  0  0  0
  2  3  1  0  0  0  0
  2  4  1  0  0  0  0
  2  5  1  0  0  0  0
  5  6  2  0  0  0  0
  5 10  1  0  0  0  0
  6  7  1  0  0  0  0
  7  8  2  0  0  0  0
  8  9  1  0  0  0  0
  8 11  1  0  0  0  0
  9 10  2  0  0  0  0
 11 12  2  0  0  0  0
 11 13  1  0  0  0  0
 13 14  1  0  0  0  0
 14 15  1  0  0  0  0
 15 16  1  0  0  0  0
M  END
> <ID>
16145

> <Formula>
C14H19ClO

> <FW>
238.7531

> <DSSTox_CID>
31534

> <DSSTox_RID>
97419

> <DSSTox_GSID>
57745

> <DSSTox_FileID_Sort>
8486

> <TS_ChemName>
4'-Tert-butyl-4-chlorobutyrophenone

> <TS_ChemName_Synonyms>


> <TS_CASRN>
43076-61-5

> <CASRN_ChemName_Relationship>
primary

> <TS_Description>
single chemical compound

> <ChemNote>


> <STRUCTURE_Shown>
tested chemical

> <STRUCTURE_Formula>
C14H19ClO

> <STRUCTURE_MW>
238.7531

> <STRUCTURE_ChemType>
defined organic

> <STRUCTURE_DefinedOrganicForm>
parent

> <STRUCTURE_IUPAC>
1-(4-tert-butylphenyl)-4-chlorobutan-1-one

> <STRUCTURE_SMILES>
CC(C)(C)c1ccc(cc1)C(=O)CCCCl

> <STRUCTURE_SMILES_Desalt>
CC(C)(C)c1ccc(cc1)C(=O)CCCCl

> <Substance_modify_yyyymmdd>
20131018

$$$$
