431-03-8
ChemmineR-0915142007XD

  6  5  0  0  0  0  0  0  0  0  1 V2000
    1.3307    0.0000    0.0000 C   0  0  0  0  0  0  0  0  0  0  0  0
    1.9943   -1.1509    0.0000 C   0  0  0  0  0  0  0  0  0  0  0  0
    1.3307   -2.3053    0.0000 C   0  0  0  0  0  0  0  0  0  0  0  0
    1.9943   -3.4563    0.0000 C   0  0  0  0  0  0  0  0  0  0  0  0
    0.0000   -2.3053    0.0000 O   0  0  0  0  0  0  0  0  0  0  0  0
    3.3250   -1.1509    0.0000 O   0  0  0  0  0  0  0  0  0  0  0  0
  1  2  1  0  0  0  0
  2  3  1  0  0  0  0
  2  6  2  0  0  0  0
  3  4  1  0  0  0  0
  3  5  2  0  0  0  0
M  END
> <ID>
1520

> <Formula>
C4H6O2

> <FW>
86.0892

> <DSSTox_CID>
1583

> <DSSTox_RID>
76219

> <DSSTox_GSID>
21583

> <DSSTox_FileID_Sort>
903

> <TS_ChemName>
2,3-Butanedione

> <TS_ChemName_Synonyms>
Diacetyl; Dimethyl glyoxal

> <TS_CASRN>
431-03-8

> <CASRN_ChemName_Relationship>
primary

> <TS_Description>
single chemical compound

> <ChemNote>


> <STRUCTURE_Shown>
tested chemical

> <STRUCTURE_Formula>
C4H6O2

> <STRUCTURE_MW>
86.0892

> <STRUCTURE_ChemType>
defined organic

> <STRUCTURE_DefinedOrganicForm>
parent

> <STRUCTURE_IUPAC>
butane-2,3-dione

> <STRUCTURE_SMILES>
CC(=O)C(C)=O

> <STRUCTURE_SMILES_Desalt>
CC(=O)C(C)=O

> <Substance_modify_yyyymmdd>
20080429

$$$$
