4310-35-4
ChemmineR-0915142007XD

 24 24  0  0  0  0  0  0  0  0  2 V2000
    9.2113   -0.6632    0.0000 C    0  0  0  0  0  0  0  0  0  0  0  0
    9.2113   -1.9896    0.0000 C    0  0  0  0  0  0  0  0  0  0  0  0
    8.0599   -2.6621    0.0000 C    0  0  0  0  0  0  0  0  0  0  0  0
    6.9085   -1.9896    0.0000 C    0  0  0  0  0  0  0  0  0  0  0  0
    5.7570   -2.6621    0.0000 C    0  0  0  0  0  0  0  0  0  0  0  0
    5.0938   -1.5106    0.0000 O    0  0  0  0  0  0  0  0  0  0  0  0
    4.6056   -3.3253    0.0000 C    0  0  0  0  0  0  0  0  0  0  0  0
    3.4542   -2.6621    0.0000 C    0  0  0  0  0  0  0  0  0  0  0  0
    2.3028   -3.3253    0.0000 N    0  3  0  0  0  0  0  0  0  0  0  0
    1.1514   -3.9885    0.0000 C    0  0  0  0  0  0  0  0  0  0  0  0
    0.0000   -3.3253    0.0000 C    0  0  0  0  0  0  0  0  0  0  0  0
    1.6396   -2.1739    0.0000 C    0  0  0  0  0  0  0  0  0  0  0  0
    0.3040   -2.1739    0.0000 C    0  0  0  0  0  0  0  0  0  0  0  0
    2.9660   -4.4767    0.0000 C    0  0  0  0  0  0  0  0  0  0  0  0
    2.3028   -5.6281    0.0000 C    0  0  0  0  0  0  0  0  0  0  0  0
    6.4203   -3.8135    0.0000 C    0  0  0  0  0  0  0  0  0  0  0  0
    7.7559   -3.8135    0.0000 C    0  0  0  0  0  0  0  0  0  0  0  0
    8.4191   -4.9649    0.0000 C    0  0  0  0  0  0  0  0  0  0  0  0
    7.7559   -6.1163    0.0000 C    0  0  0  0  0  0  0  0  0  0  0  0
    6.4203   -6.1163    0.0000 C    0  0  0  0  0  0  0  0  0  0  0  0
    5.7570   -4.9649    0.0000 C    0  0  0  0  0  0  0  0  0  0  0  0
    6.9085   -0.6632    0.0000 C    0  0  0  0  0  0  0  0  0  0  0  0
    8.0599    0.0000    0.0000 C    0  0  0  0  0  0  0  0  0  0  0  0
    4.6517   -7.4427    0.0000 Cl   0  5  0  0  0  0  0  0  0  0  0  0
  1  2  2  0  0  0  0
  1 23  1  0  0  0  0
  2  3  1  0  0  0  0
  3  4  2  0  0  0  0
  4  5  1  0  0  0  0
  4 22  1  0  0  0  0
  5  6  1  0  0  0  0
  5  7  1  0  0  0  0
  5 16  1  0  0  0  0
  7  8  1  0  0  0  0
  8  9  1  0  0  0  0
  9 10  1  0  0  0  0
  9 12  1  0  0  0  0
  9 14  1  0  0  0  0
 10 11  1  0  0  0  0
 12 13  1  0  0  0  0
 14 15  1  0  0  0  0
 16 17  1  0  0  0  0
 16 21  1  0  0  0  0
 17 18  1  0  0  0  0
 18 19  1  0  0  0  0
 19 20  1  0  0  0  0
 20 21  1  0  0  0  0
 22 23  2  0  0  0  0
M  END
> <ID>
3306

> <Formula>
C21H36ClNO

> <FW>
353.9696 (318.5161+35.4535)

> <DSSTox_CID>
3701

> <DSSTox_RID>
77155

> <DSSTox_GSID>
23701

> <DSSTox_FileID_Sort>
1838

> <TS_ChemName>
Tridihexethyl chloride

> <TS_ChemName_Synonyms>
Tridihexethyl

> <TS_CASRN>
4310-35-4

> <CASRN_ChemName_Relationship>
primary

> <TS_Description>
single chemical compound

> <ChemNote>
ammonium; parent [60-49-1]

> <STRUCTURE_Shown>
tested chemical

> <STRUCTURE_Formula>
C21H36ClNO

> <STRUCTURE_MW>
353.9696

> <STRUCTURE_ChemType>
defined organic

> <STRUCTURE_DefinedOrganicForm>
salt

> <STRUCTURE_IUPAC>
3-cyclohexyl-N,N,N-triethyl-3-hydroxy-3-phenylpropan-1-aminium chloride

> <STRUCTURE_SMILES>
[Cl-].OC(CC[N+](CC)(CC)CC)(c1ccccc1)C2CCCCC2

> <STRUCTURE_SMILES_Desalt>
OC(CC[N+](CC)(CC)CC)(c1ccccc1)C2CCCCC2

> <Substance_modify_yyyymmdd>
20080429

$$$$
