43119-47-7
ChemmineR-0915142007XD

 39 41  0  0  1  0  0  0  0  0  1 V2000
    8.0154   -3.9573    0.0000 C   0  0  0  0  0  0  0  0  0  0  0  0
    8.0154   -2.6466    0.0000 C   0  0  0  0  0  0  0  0  0  0  0  0
    6.8811   -4.6630    0.0000 C   0  0  0  0  0  0  0  0  0  0  0  0
    5.7217   -2.6466    0.0000 C   0  0  0  0  0  0  0  0  0  0  0  0
    6.8811   -2.0165    0.0000 C   0  0  0  0  0  0  0  0  0  0  0  0
    5.7217   -3.9573    0.0000 C   0  0  0  0  0  0  0  0  0  0  0  0
    9.1497   -4.6630    0.0000 O   0  0  0  0  0  0  0  0  0  0  0  0
    9.1497   -2.0165    0.0000 C   0  0  0  0  0  0  0  0  0  0  0  0
   10.3091   -3.9573    0.0000 C   0  0  0  0  0  0  0  0  0  0  0  0
   10.3091   -2.6466    0.0000 C   0  0  0  0  0  0  0  0  0  0  0  0
    4.5874   -2.0165    0.0000 O   0  0  0  0  0  0  0  0  0  0  0  0
    6.8811   -5.9737    0.0000 C   0  0  0  0  0  0  0  0  0  0  0  0
    6.8811   -0.6553    0.0000 C   0  0  0  0  0  0  0  0  0  0  0  0
    4.5874   -4.6630    0.0000 C   0  0  0  0  0  0  0  0  0  0  0  0
   11.4434   -4.6630    0.0000 C   0  0  0  0  0  0  0  0  0  0  0  0
   12.6028   -3.9573    0.0000 C   0  0  0  0  0  0  0  0  0  0  0  0
   21.7777   -3.9573    0.0000 C   0  0  0  0  0  0  0  0  0  0  0  0
   17.1903   -3.9573    0.0000 C   0  0  0  0  0  0  0  0  0  0  0  0
   22.9119   -4.6630    0.0000 C   0  0  0  0  0  0  0  0  0  0  0  0
   13.7371   -4.6630    0.0000 C   0  0  0  0  0  0  0  0  0  0  0  0
   18.3497   -4.6630    0.0000 C   0  0  0  0  0  0  0  0  0  0  0  0
   20.6434   -4.6630    0.0000 C   0  0  0  0  0  0  0  0  0  0  0  0
   16.0560   -4.6630    0.0000 C   0  0  0  0  0  0  0  0  0  0  0  0
   14.8965   -3.9573    0.0000 C   0  0  0  0  0  0  0  0  0  0  0  0
   19.4840   -3.9573    0.0000 C   0  0  0  0  0  0  0  0  0  0  0  0
   24.0714   -3.9573    0.0000 C   0  0  0  0  0  0  0  0  0  0  0  0
   24.0714   -2.6466    0.0000 C   0  0  0  0  0  0  0  0  0  0  0  0
   25.2057   -4.6630    0.0000 C   0  0  0  0  0  0  0  0  0  0  0  0
   19.4840   -2.6466    0.0000 C   0  0  0  0  0  0  0  0  0  0  0  0
   14.8965   -2.6466    0.0000 C   0  0  0  0  0  0  0  0  0  0  0  0
   10.3091   -5.2932    0.0000 C   0  0  0  0  0  0  0  0  0  0  0  0
    3.4280   -2.6718    0.0000 C   0  0  0  0  0  0  0  0  0  0  0  0
    2.2937   -1.9912    0.0000 C   0  0  0  0  0  0  0  0  0  0  0  0
    3.4280   -3.9825    0.0000 O   0  0  0  0  0  0  0  0  0  0  0  0
    0.0000   -1.9660    0.0000 N   0  0  0  0  0  0  0  0  0  0  0  0
    1.1343   -2.6466    0.0000 C   0  0  0  0  0  0  0  0  0  0  0  0
    2.2937   -0.6553    0.0000 C   0  0  0  0  0  0  0  0  0  0  0  0
    0.0000   -0.6553    0.0000 C   0  0  0  0  0  0  0  0  0  0  0  0
    1.1343    0.0000    0.0000 C   0  0  0  0  0  0  0  0  0  0  0  0
  1  2  2  0  0  0  0
  1  3  1  0  0  0  0
  1  7  1  0  0  0  0
  2  5  1  0  0  0  0
  2  8  1  0  0  0  0
  3  6  2  0  0  0  0
  3 12  1  0  0  0  0
  4  6  1  0  0  0  0
  4 11  1  0  0  0  0
  4  5  2  0  0  0  0
  5 13  1  0  0  0  0
  6 14  1  0  0  0  0
  7  9  1  0  0  0  0
  8 10  1  0  0  0  0
  9 10  1  0  0  0  0
  9 15  1  1  0  0  0
  9 31  1  6  0  0  0
 11 32  1  0  0  0  0
 15 16  1  0  0  0  0
 16 20  1  0  0  0  0
 17 22  1  0  0  0  0
 17 19  1  0  0  0  0
 18 23  1  0  0  0  0
 18 21  1  0  0  0  0
 19 26  1  0  0  0  0
 20 24  1  0  0  0  0
 21 25  1  0  0  0  0
 22 25  1  0  0  0  0
 23 24  1  0  0  0  0
 24 30  1  6  0  0  0
 25 29  1  6  0  0  0
 26 27  1  0  0  0  0
 26 28  1  0  0  0  0
 32 33  1  0  0  0  0
 32 34  2  0  0  0  0
 33 36  2  0  0  0  0
 33 37  1  0  0  0  0
 35 36  1  0  0  0  0
 35 38  2  0  0  0  0
 37 39  2  0  0  0  0
 38 39  1  0  0  0  0
M  END
> <ID>
11643

> <Formula>
C35H53NO3

> <FW>
535.8002

> <DSSTox_CID>
26396

> <DSSTox_RID>
81576

> <DSSTox_GSID>
46396

> <DSSTox_FileID_Sort>
6257

> <TS_ChemName>
DL-alpha Tocopheryl nicotinate

> <TS_ChemName_Synonyms>


> <TS_CASRN>
43119-47-7

> <CASRN_ChemName_Relationship>
primary

> <TS_Description>
single chemical compound

> <ChemNote>
stereochem

> <STRUCTURE_Shown>
tested chemical

> <STRUCTURE_Formula>
C35H53NO3

> <STRUCTURE_MW>
535.8002

> <STRUCTURE_ChemType>
defined organic

> <STRUCTURE_DefinedOrganicForm>
parent

> <STRUCTURE_IUPAC>
(2R)-2,5,7,8-tetramethyl-2-[(4R,8R)-4,8,12-trimethyltridecyl]-3,4-dihydro-2H-chromen-6-yl pyridine-3-carboxylate

> <STRUCTURE_SMILES>
CC(C)CCC[C@@H](C)CCC[C@@H](C)CCC[C@]1(C)CCc3c(O1)c(C)c(C)c(OC(=O)c2cccnc2)c3C

> <STRUCTURE_SMILES_Desalt>
CC(C)CCC[C@@H](C)CCC[C@@H](C)CCC[C@]1(C)CCc3c(O1)c(C)c(C)c(OC(=O)c2cccnc2)c3C

> <Substance_modify_yyyymmdd>
20110814

$$$$
