4312-99-6
ChemmineR-0915142007XD

  9  8  0  0  0  0  0  0  0  0  1 V2000
    0.0000   -1.3179    0.0000 C   0  0  0  0  0  0  0  0  0  0  0  0
    1.1411   -1.9929    0.0000 C   0  0  0  0  0  0  0  0  0  0  0  0
    2.2982   -1.3179    0.0000 C   0  0  0  0  0  0  0  0  0  0  0  0
    3.4554   -1.9929    0.0000 C   0  0  0  0  0  0  0  0  0  0  0  0
    4.6126   -1.3179    0.0000 C   0  0  0  0  0  0  0  0  0  0  0  0
    5.7376   -1.9929    0.0000 C   0  0  0  0  0  0  0  0  0  0  0  0
    6.8947   -1.3179    0.0000 C   0  0  0  0  0  0  0  0  0  0  0  0
    8.0358   -1.9929    0.0000 C   0  0  0  0  0  0  0  0  0  0  0  0
    2.2982    0.0000    0.0000 O   0  0  0  0  0  0  0  0  0  0  0  0
  1  2  2  0  0  0  0
  2  3  1  0  0  0  0
  3  4  1  0  0  0  0
  3  9  2  0  0  0  0
  4  5  1  0  0  0  0
  5  6  1  0  0  0  0
  6  7  1  0  0  0  0
  7  8  1  0  0  0  0
M  END
> <ID>
12310

> <Formula>
C8H14O

> <FW>
126.1962

> <DSSTox_CID>
27162

> <DSSTox_RID>
82163

> <DSSTox_GSID>
47162

> <DSSTox_FileID_Sort>
6844

> <TS_ChemName>
1-Octen-3-one

> <TS_ChemName_Synonyms>


> <TS_CASRN>
4312-99-6

> <CASRN_ChemName_Relationship>
primary

> <TS_Description>
single chemical compound

> <ChemNote>


> <STRUCTURE_Shown>
tested chemical

> <STRUCTURE_Formula>
C8H14O

> <STRUCTURE_MW>
126.1962

> <STRUCTURE_ChemType>
defined organic

> <STRUCTURE_DefinedOrganicForm>
parent

> <STRUCTURE_IUPAC>
oct-1-en-3-one

> <STRUCTURE_SMILES>
C=CC(=O)CCCCC

> <STRUCTURE_SMILES_Desalt>
C=CC(=O)CCCCC

> <Substance_modify_yyyymmdd>
20100503

$$$$
