43121-43-3
ChemmineR-0915142007XD

 20 21  0  0  0  0  0  0  0  0  1 V2000
    3.4354   -2.0078    0.0000 C    0  0  0  0  0  0  0  0  0  0  0  0
    3.4354   -3.3617    0.0000 N    0  0  0  0  0  0  0  0  0  0  0  0
    2.2933   -1.3355    0.0000 C    0  0  0  0  0  0  0  0  0  0  0  0
    2.7907   -5.4064    0.0000 N    0  0  0  0  0  0  0  0  0  0  0  0
    4.4946   -4.1538    0.0000 N    0  0  0  0  0  0  0  0  0  0  0  0
    2.3578   -4.1538    0.0000 C    0  0  0  0  0  0  0  0  0  0  0  0
    4.1077   -5.4064    0.0000 C    0  0  0  0  0  0  0  0  0  0  0  0
    4.6143   -1.3355    0.0000 O    0  0  0  0  0  0  0  0  0  0  0  0
    1.1513   -2.0078    0.0000 C    0  0  0  0  0  0  0  0  0  0  0  0
    2.2933    0.0000    0.0000 O    0  0  0  0  0  0  0  0  0  0  0  0
    5.7563   -2.0170    0.0000 C    0  0  0  0  0  0  0  0  0  0  0  0
    8.0589   -3.3341    0.0000 C    0  0  0  0  0  0  0  0  0  0  0  0
    9.2101   -4.0340    0.0000 Cl   0  0  0  0  0  0  0  0  0  0  0  0
    5.7563   -3.3341    0.0000 C    0  0  0  0  0  0  0  0  0  0  0  0
    6.8984   -1.3631    0.0000 C    0  0  0  0  0  0  0  0  0  0  0  0
    6.8984   -4.0064    0.0000 C    0  0  0  0  0  0  0  0  0  0  0  0
    8.0589   -2.0170    0.0000 C    0  0  0  0  0  0  0  0  0  0  0  0
    1.8144   -3.1499    0.0000 C    0  0  0  0  0  0  0  0  0  0  0  0
    0.4789   -0.8381    0.0000 C    0  0  0  0  0  0  0  0  0  0  0  0
    0.0000   -2.6617    0.0000 C    0  0  0  0  0  0  0  0  0  0  0  0
  1  2  1  0  0  0  0
  1  3  1  0  0  0  0
  1  8  1  0  0  0  0
  2  5  1  0  0  0  0
  2  6  1  0  0  0  0
  3  9  1  0  0  0  0
  3 10  2  0  0  0  0
  4  6  2  0  0  0  0
  4  7  1  0  0  0  0
  5  7  2  0  0  0  0
  8 11  1  0  0  0  0
  9 18  1  0  0  0  0
  9 19  1  0  0  0  0
  9 20  1  0  0  0  0
 11 14  1  0  0  0  0
 11 15  2  0  0  0  0
 12 17  2  0  0  0  0
 12 13  1  0  0  0  0
 12 16  1  0  0  0  0
 14 16  2  0  0  0  0
 15 17  1  0  0  0  0
M  END
> <ID>
3414

> <Formula>
C14H16ClN3O2

> <FW>
293.7487

> <DSSTox_CID>
3897

> <DSSTox_RID>
77222

> <DSSTox_GSID>
23897

> <DSSTox_FileID_Sort>
1905

> <TS_ChemName>
Triadimefon

> <TS_ChemName_Synonyms>
Triadimefon (Bayleton) (TDF)

> <TS_CASRN>
43121-43-3

> <CASRN_ChemName_Relationship>
primary

> <TS_Description>
single chemical compound

> <ChemNote>
mixture of (R,S) isomers; structure shown without stereochem

> <STRUCTURE_Shown>
tested chemical

> <STRUCTURE_Formula>
C14H16ClN3O2

> <STRUCTURE_MW>
293.7487

> <STRUCTURE_ChemType>
defined organic

> <STRUCTURE_DefinedOrganicForm>
parent

> <STRUCTURE_IUPAC>
1-(4-chlorophenoxy)-3,3-dimethyl-1-(1H-1,2,4-triazol-1-yl)butan-2-one

> <STRUCTURE_SMILES>
CC(C)(C)C(=O)C(Oc1ccc(Cl)cc1)n2cncn2

> <STRUCTURE_SMILES_Desalt>
CC(C)(C)C(=O)C(Oc1ccc(Cl)cc1)n2cncn2

> <Substance_modify_yyyymmdd>
20080429

$$$$
