4316-74-9
ChemmineR-0915142007XD

  9  7  0  0  0  0  0  0  0  0  2 V2000
    1.2785   -2.5942    0.0000 C    0  0  0  0  0  0  0  0  0  0  0  0
    2.4329   -3.2831    0.0000 C    0  0  0  0  0  0  0  0  0  0  0  0
    1.2785   -1.2785    0.0000 S    0  0  0  0  0  0  0  0  0  0  0  0
    2.7494   -1.2785    0.0000 O    0  0  0  0  0  0  0  0  0  0  0  0
    1.2785    0.0000    0.0000 O    0  5  0  0  0  0  0  0  0  0  0  0
    0.0000   -1.2785    0.0000 O    0  0  0  0  0  0  0  0  0  0  0  0
    2.4329   -4.5989    0.0000 N    0  0  0  0  0  0  0  0  0  0  0  0
    3.5686   -5.2443    0.0000 C    0  0  0  0  0  0  0  0  0  0  0  0
    6.2063   -2.6253    0.0000 Na   0  3  0  0  0  0  0  0  0  0  0  0
  1  2  1  0  0  0  0
  1  3  1  0  0  0  0
  2  7  1  0  0  0  0
  3  4  2  0  0  0  0
  3  5  1  0  0  0  0
  3  6  2  0  0  0  0
  7  8  1  0  0  0  0
M  END
> <ID>
5903

> <Formula>
C3H8NNaO3S

> <FW>
161.1553 (138.1661+22.9892)

> <DSSTox_CID>
9263

> <DSSTox_RID>
78739

> <DSSTox_GSID>
29263

> <DSSTox_FileID_Sort>
3421

> <TS_ChemName>
Sodium 2-(methylamino)ethanesulfonate

> <TS_ChemName_Synonyms>


> <TS_CASRN>
4316-74-9

> <CASRN_ChemName_Relationship>
primary

> <TS_Description>
single chemical compound

> <ChemNote>
parent [107-68-6]

> <STRUCTURE_Shown>
tested chemical

> <STRUCTURE_Formula>
C3H8NNaO3S

> <STRUCTURE_MW>
161.1553

> <STRUCTURE_ChemType>
defined organic

> <STRUCTURE_DefinedOrganicForm>
salt

> <STRUCTURE_IUPAC>
sodium 2-(methylamino)ethanesulfonate

> <STRUCTURE_SMILES>
[Na+].[O-]S(=O)(=O)CCNC

> <STRUCTURE_SMILES_Desalt>
CNCCS(=O)(=O)O

> <Substance_modify_yyyymmdd>
20080429

$$$$
