432-60-0
ChemmineR-0915142007XD

 26 29  0  0  1  0  0  0  0  0  1 V2000
    5.7823   -1.6808    0.0000 C   0  0  0  0  0  0  0  0  0  0  0  0
    5.7823   -3.0233    0.0000 C   0  0  0  0  0  0  0  0  0  0  0  0
    4.6300   -3.6787    0.0000 C   0  0  0  0  0  0  0  0  0  0  0  0
    3.4778   -3.0233    0.0000 C   0  0  0  0  0  0  0  0  0  0  0  0
    2.3044   -3.6681    0.0000 C   0  0  0  0  0  0  0  0  0  0  0  0
    7.0508   -1.2474    0.0000 C   0  0  0  0  0  0  0  0  0  0  0  0
    2.3044   -5.0106    0.0000 C   0  0  0  0  0  0  0  0  0  0  0  0
    4.6300   -0.9937    0.0000 C   0  0  0  0  0  0  0  0  0  0  0  0
    3.4778   -1.6808    0.0000 C   0  0  0  0  0  0  0  0  0  0  0  0
    7.0508   -3.4250    0.0000 C   0  0  0  0  0  0  0  0  0  0  0  0
    4.6300   -5.0106    0.0000 C   0  0  0  0  0  0  0  0  0  0  0  0
    3.4778   -5.6977    0.0000 C   0  0  0  0  0  0  0  0  0  0  0  0
    7.8330   -2.3362    0.0000 C   0  0  0  0  0  0  0  0  0  0  0  0
    1.1522   -5.6977    0.0000 C   0  0  0  0  0  0  0  0  0  0  0  0
    9.3235   -1.6913    0.0000 C   0  0  0  0  0  0  0  0  0  0  0  0
   10.5708   -1.2474    0.0000 C   0  0  0  0  0  0  0  0  0  0  0  0
    7.0613    0.0000    0.0000 O   0  0  0  0  0  0  0  0  0  0  0  0
    5.7823   -0.4440    0.0000 C   0  0  0  0  0  0  0  0  0  0  0  0
    8.3298   -0.8245    0.0000 C   0  0  0  0  0  0  0  0  0  0  0  0
    1.1522   -3.0233    0.0000 C   0  0  0  0  0  0  0  0  0  0  0  0
    0.0000   -5.0106    0.0000 C   0  0  0  0  0  0  0  0  0  0  0  0
    0.0000   -3.6787    0.0000 C   0  0  0  0  0  0  0  0  0  0  0  0
    2.3044   -2.3362    0.0000 H   0  0  0  0  0  0  0  0  0  0  0  0
    3.4778   -4.3552    0.0000 H   0  0  0  0  0  0  0  0  0  0  0  0
    4.6300   -2.3362    0.0000 H   0  0  0  0  0  0  0  0  0  0  0  0
    5.7823   -4.3658    0.0000 H   0  0  0  0  0  0  0  0  0  0  0  0
  1  2  1  0  0  0  0
  1  6  1  0  0  0  0
  1  8  1  0  0  0  0
  1 18  1  1  0  0  0
  2  3  1  0  0  0  0
  2 10  1  0  0  0  0
  2 26  1  6  0  0  0
  3 11  1  0  0  0  0
  3  4  1  0  0  0  0
  3 25  1  1  0  0  0
  4  9  1  0  0  0  0
  4  5  1  0  0  0  0
  4 24  1  6  0  0  0
  5  7  1  0  0  0  0
  5 20  1  0  0  0  0
  5 23  1  1  0  0  0
  6 13  1  0  0  0  0
  6 17  1  0  0  0  0
  6 19  1  6  0  0  0
  7 14  2  0  0  0  0
  7 12  1  0  0  0  0
  8  9  1  0  0  0  0
 10 13  1  0  0  0  0
 11 12  1  0  0  0  0
 14 21  1  0  0  0  0
 15 19  1  0  0  0  0
 15 16  2  0  0  0  0
 20 22  1  0  0  0  0
 21 22  1  0  0  0  0
M  END
> <ID>
2333

> <Formula>
C21H32O

> <FW>
300.4782

> <DSSTox_CID>
2574

> <DSSTox_RID>
76637

> <DSSTox_GSID>
22574

> <DSSTox_FileID_Sort>
1321

> <TS_ChemName>
Allylestrenol

> <TS_ChemName_Synonyms>


> <TS_CASRN>
432-60-0

> <CASRN_ChemName_Relationship>
primary

> <TS_Description>
single chemical compound

> <ChemNote>
stereochem

> <STRUCTURE_Shown>
tested chemical

> <STRUCTURE_Formula>
C21H32O

> <STRUCTURE_MW>
300.4782

> <STRUCTURE_ChemType>
defined organic

> <STRUCTURE_DefinedOrganicForm>
parent

> <STRUCTURE_IUPAC>
(17beta)-17-(prop-2-en-1-yl)estr-4-en-17-ol

> <STRUCTURE_SMILES>
C[C@]32CC[C@@H]1[C@H]4CCCC=C4CC[C@H]1[C@@H]3CC[C@@]2(O)CC=C

> <STRUCTURE_SMILES_Desalt>
C[C@]32CC[C@@H]1[C@H]4CCCC=C4CC[C@H]1[C@@H]3CC[C@@]2(O)CC=C

> <Substance_modify_yyyymmdd>
20080429

$$$$
