43210-67-9
ChemmineR-0915142007XD

 21 23  0  0  0  0  0  0  0  0  1 V2000
    8.9312   -1.3203    0.0000 C   0  0  0  0  0  0  0  0  0  0  0  0
    8.1676   -2.4076    0.0000 N   0  0  0  0  0  0  0  0  0  0  0  0
    8.1676   -0.2589    0.0000 N   0  0  0  0  0  0  0  0  0  0  0  0
   10.2645   -1.3203    0.0000 N   0  0  0  0  0  0  0  0  0  0  0  0
    6.9120   -1.9934    0.0000 C   0  0  0  0  0  0  0  0  0  0  0  0
   10.9375   -2.4723    0.0000 C   0  0  0  0  0  0  0  0  0  0  0  0
    6.9120   -0.6601    0.0000 C   0  0  0  0  0  0  0  0  0  0  0  0
    5.7600   -2.6664    0.0000 C   0  0  0  0  0  0  0  0  0  0  0  0
    4.6080   -1.9934    0.0000 C   0  0  0  0  0  0  0  0  0  0  0  0
    3.4431   -2.6664    0.0000 S   0  0  0  0  0  0  0  0  0  0  0  0
   10.2645   -3.6243    0.0000 O   0  0  0  0  0  0  0  0  0  0  0  0
    5.7600    0.0000    0.0000 C   0  0  0  0  0  0  0  0  0  0  0  0
   12.2837   -2.4723    0.0000 O   0  0  0  0  0  0  0  0  0  0  0  0
    4.6080   -0.6601    0.0000 C   0  0  0  0  0  0  0  0  0  0  0  0
    2.2911   -1.9934    0.0000 C   0  0  0  0  0  0  0  0  0  0  0  0
   12.9438   -3.6243    0.0000 C   0  0  0  0  0  0  0  0  0  0  0  0
    2.2911   -0.6601    0.0000 C   0  0  0  0  0  0  0  0  0  0  0  0
    1.1391   -2.6664    0.0000 C   0  0  0  0  0  0  0  0  0  0  0  0
    0.0000   -1.9934    0.0000 C   0  0  0  0  0  0  0  0  0  0  0  0
    1.1391    0.0000    0.0000 C   0  0  0  0  0  0  0  0  0  0  0  0
    0.0000   -0.6601    0.0000 C   0  0  0  0  0  0  0  0  0  0  0  0
  1  2  2  0  0  0  0
  1  3  1  0  0  0  0
  1  4  1  0  0  0  0
  2  5  1  0  0  0  0
  3  7  1  0  0  0  0
  4  6  1  0  0  0  0
  5  8  2  0  0  0  0
  5  7  1  0  0  0  0
  6 11  2  0  0  0  0
  6 13  1  0  0  0  0
  7 12  2  0  0  0  0
  8  9  1  0  0  0  0
  9 10  1  0  0  0  0
  9 14  2  0  0  0  0
 10 15  1  0  0  0  0
 12 14  1  0  0  0  0
 13 16  1  0  0  0  0
 15 17  2  0  0  0  0
 15 18  1  0  0  0  0
 17 20  1  0  0  0  0
 18 19  2  0  0  0  0
 19 21  1  0  0  0  0
 20 21  2  0  0  0  0
M  END
> <ID>
7871

> <Formula>
C15H13N3O2S

> <FW>
299.3476

> <DSSTox_CID>
20672

> <DSSTox_RID>
79532

> <DSSTox_GSID>
40672

> <DSSTox_FileID_Sort>
4214

> <TS_ChemName>
Fenbendazole

> <TS_ChemName_Synonyms>


> <TS_CASRN>
43210-67-9

> <CASRN_ChemName_Relationship>
primary

> <TS_Description>
single chemical compound

> <ChemNote>
tautomers

> <STRUCTURE_Shown>
tested chemical

> <STRUCTURE_Formula>
C15H13N3O2S

> <STRUCTURE_MW>
299.3476

> <STRUCTURE_ChemType>
defined organic

> <STRUCTURE_DefinedOrganicForm>
parent

> <STRUCTURE_IUPAC>
methyl [5-(phenylsulfanyl)-1H-benzimidazol-2-yl]carbamate

> <STRUCTURE_SMILES>
O=C(OC)Nc1nc2cc(ccc2n1)Sc3ccccc3

> <STRUCTURE_SMILES_Desalt>
O=C(OC)Nc1nc2cc(ccc2n1)Sc3ccccc3

> <Substance_modify_yyyymmdd>
20080429

$$$$
