43229-80-7
ChemmineR-0915142007XD

 58 59  0  0  1  0  0  0  0  0  1 V2000
    8.1839   -8.0796    0.0000 C   0  0  0  0  0  0  0  0  0  0  0  0
    9.3113   -8.7476    0.0000 C   0  0  0  0  0  0  0  0  0  0  0  0
    9.3113  -10.0838    0.0000 C   0  0  0  0  0  0  0  0  0  0  0  0
    7.0357   -8.7476    0.0000 C   0  0  0  0  0  0  0  0  0  0  0  0
    9.3113   -6.0962    0.0000 C   0  0  0  0  0  0  0  0  0  0  0  0
    8.1839   -6.7434    0.0000 N   0  0  0  0  0  0  0  0  0  0  0  0
   12.7978  -10.7519    0.0000 N   0  0  0  0  0  0  0  0  0  0  0  0
    8.1839  -10.7519    0.0000 C   0  0  0  0  0  0  0  0  0  0  0  0
   10.4805   -6.7434    0.0000 O   0  0  0  0  0  0  0  0  0  0  0  0
    7.0357  -10.0838    0.0000 C   0  0  0  0  0  0  0  0  0  0  0  0
   11.6287  -10.0838    0.0000 C   0  0  0  0  0  0  0  0  0  0  0  0
   10.4805  -10.7519    0.0000 C   0  0  0  0  0  0  0  0  0  0  0  0
   16.2217  -10.0838    0.0000 C   0  0  0  0  0  0  0  0  0  0  0  0
   18.5391   -8.7476    0.0000 C   0  0  0  0  0  0  0  0  0  0  0  0
   15.0944  -10.7519    0.0000 C   0  0  0  0  0  0  0  0  0  0  0  0
    5.8457   -8.0587    0.0000 O   0  0  0  0  0  0  0  0  0  0  0  0
   17.4118  -10.7519    0.0000 C   0  0  0  0  0  0  0  0  0  0  0  0
   16.2217   -8.7476    0.0000 C   0  0  0  0  0  0  0  0  0  0  0  0
   18.5391  -10.0838    0.0000 C   0  0  0  0  0  0  0  0  0  0  0  0
   17.4118   -8.0796    0.0000 C   0  0  0  0  0  0  0  0  0  0  0  0
   10.4596  -12.0463    0.0000 O   0  0  0  0  0  0  0  0  0  0  0  0
   13.9461  -10.0838    0.0000 C   0  0  0  0  0  0  0  0  0  0  0  0
   19.7083   -8.0587    0.0000 O   0  0  0  0  0  0  0  0  0  0  0  0
   20.8774   -8.7476    0.0000 C   0  0  0  0  0  0  0  0  0  0  0  0
   13.9461   -8.7476    0.0000 C   0  0  0  0  0  0  0  0  0  0  0  0
   18.7688   -6.0127    0.0000 C   0  0  0  0  0  0  0  0  0  0  0  0
   15.3240   -5.3446    0.0000 C   0  0  0  0  0  0  0  0  0  0  0  0
   16.4932   -6.0127    0.0000 C   0  0  0  0  0  0  0  0  0  0  0  0
   17.6205   -5.3446    0.0000 C   0  0  0  0  0  0  0  0  0  0  0  0
   18.7688   -7.3071    0.0000 O   0  0  0  0  0  0  0  0  0  0  0  0
   15.3240   -4.0293    0.0000 O   0  0  0  0  0  0  0  0  0  0  0  0
   19.9170   -5.3446    0.0000 O   0  0  0  0  0  0  0  0  0  0  0  0
   14.1966   -6.0127    0.0000 O   0  0  0  0  0  0  0  0  0  0  0  0
    2.3383   -1.9834    0.0000 C   0  0  0  0  0  0  0  0  0  0  0  0
    3.4656   -2.6723    0.0000 C   0  0  0  0  0  0  0  0  0  0  0  0
    3.4656   -3.9876    0.0000 C   0  0  0  0  0  0  0  0  0  0  0  0
    1.1900   -2.6723    0.0000 C   0  0  0  0  0  0  0  0  0  0  0  0
    3.4656    0.0000    0.0000 C   0  0  0  0  0  0  0  0  0  0  0  0
    2.3383   -0.6472    0.0000 N   0  0  0  0  0  0  0  0  0  0  0  0
    6.9522   -4.6557    0.0000 N   0  0  0  0  0  0  0  0  0  0  0  0
    2.3383   -4.6557    0.0000 C   0  0  0  0  0  0  0  0  0  0  0  0
    4.6348   -0.6472    0.0000 O   0  0  0  0  0  0  0  0  0  0  0  0
    1.1900   -3.9876    0.0000 C   0  0  0  0  0  0  0  0  0  0  0  0
    5.7622   -3.9876    0.0000 C   0  0  0  0  0  0  0  0  0  0  0  0
    4.6348   -4.6557    0.0000 C   0  0  0  0  0  0  0  0  0  0  0  0
   10.3761   -3.9876    0.0000 C   0  0  0  0  0  0  0  0  0  0  0  0
   12.6935   -2.6723    0.0000 C   0  0  0  0  0  0  0  0  0  0  0  0
    9.2487   -4.6557    0.0000 C   0  0  0  0  0  0  0  0  0  0  0  0
    0.0000   -1.9834    0.0000 O   0  0  0  0  0  0  0  0  0  0  0  0
   11.5661   -4.6557    0.0000 C   0  0  0  0  0  0  0  0  0  0  0  0
   10.3761   -2.6723    0.0000 C   0  0  0  0  0  0  0  0  0  0  0  0
   12.6935   -3.9876    0.0000 C   0  0  0  0  0  0  0  0  0  0  0  0
   11.5661   -1.9834    0.0000 C   0  0  0  0  0  0  0  0  0  0  0  0
    4.6139   -5.9501    0.0000 O   0  0  0  0  0  0  0  0  0  0  0  0
    8.1004   -3.9876    0.0000 C   0  0  0  0  0  0  0  0  0  0  0  0
   13.8626   -1.9834    0.0000 O   0  0  0  0  0  0  0  0  0  0  0  0
   15.0317   -2.6514    0.0000 C   0  0  0  0  0  0  0  0  0  0  0  0
    8.1004   -2.6723    0.0000 C   0  0  0  0  0  0  0  0  0  0  0  0
  1  2  1  0  0  0  0
  1  4  2  0  0  0  0
  1  6  1  0  0  0  0
  2  3  2  0  0  0  0
  3 12  1  0  0  0  0
  3  8  1  0  0  0  0
  4 10  1  0  0  0  0
  4 16  1  0  0  0  0
  5  6  1  0  0  0  0
  5  9  2  0  0  0  0
  7 11  1  0  0  0  0
  7 22  1  0  0  0  0
  8 10  2  0  0  0  0
 11 12  1  0  0  0  0
 12 21  1  6  0  0  0
 13 15  1  0  0  0  0
 13 17  1  0  0  0  0
 13 18  2  0  0  0  0
 14 20  2  0  0  0  0
 14 23  1  0  0  0  0
 14 19  1  0  0  0  0
 15 22  1  0  0  0  0
 17 19  2  0  0  0  0
 18 20  1  0  0  0  0
 22 25  1  6  0  0  0
 23 24  1  0  0  0  0
 26 29  1  0  0  0  0
 26 30  2  0  0  0  0
 26 32  1  0  0  0  0
 27 28  1  0  0  0  0
 27 31  2  0  0  0  0
 27 33  1  0  0  0  0
 28 29  2  0  0  0  0
 34 35  1  0  0  0  0
 34 37  2  0  0  0  0
 34 39  1  0  0  0  0
 35 36  2  0  0  0  0
 36 45  1  0  0  0  0
 36 41  1  0  0  0  0
 37 43  1  0  0  0  0
 37 49  1  0  0  0  0
 38 39  1  0  0  0  0
 38 42  2  0  0  0  0
 40 44  1  0  0  0  0
 40 55  1  0  0  0  0
 41 43  2  0  0  0  0
 44 45  1  0  0  0  0
 45 54  1  6  0  0  0
 46 48  1  0  0  0  0
 46 50  1  0  0  0  0
 46 51  2  0  0  0  0
 47 53  2  0  0  0  0
 47 56  1  0  0  0  0
 47 52  1  0  0  0  0
 48 55  1  0  0  0  0
 50 52  2  0  0  0  0
 51 53  1  0  0  0  0
 55 58  1  6  0  0  0
 56 57  1  0  0  0  0
M  END
> <ID>
9931

> <Formula>
C42H52N4O12

> <FW>
804.8819 (344.4049+116.0722+344.4049)

> <DSSTox_CID>
24239

> <DSSTox_RID>
80131

> <DSSTox_GSID>
44239

> <DSSTox_FileID_Sort>
4813

> <TS_ChemName>
Formoterol hemifumarate

> <TS_ChemName_Synonyms>
Formoterol fumarate (Atock) (BD 40A) (Aformoterol) (CGP 25827A) (YM-08316) (Foradil)

> <TS_CASRN>
43229-80-7

> <CASRN_ChemName_Relationship>
primary

> <TS_Description>
single chemical compound

> <ChemNote>
relative stereochem; parent [73573-87-2]

> <STRUCTURE_Shown>
tested chemical

> <STRUCTURE_Formula>
C42H52N4O12

> <STRUCTURE_MW>
804.8819

> <STRUCTURE_ChemType>
defined organic

> <STRUCTURE_DefinedOrganicForm>
complex

> <STRUCTURE_IUPAC>
N-{2-hydroxy-5-[(1R)-1-hydroxy-2-{[(2R)-1-(4-methoxyphenyl)propan-2-yl]amino}ethyl]phenyl}formamide (2E)-but-2-enedioate (2:1)

> <STRUCTURE_SMILES>
Oc1ccc(cc1NC=O)[C@@H](O)CN[C@H](C)Cc2ccc(OC)cc2.O=C(O)/C=C/C(=O)O.COc1ccc(cc1)C[C@@H](C)NC[C@H](O)c2ccc(O)c(NC=O)c2

> <STRUCTURE_SMILES_Desalt>
Oc1ccc(cc1NC=O)[C@@H](O)CN[C@H](C)Cc2ccc(OC)cc2

> <Substance_modify_yyyymmdd>
20110731

$$$$
