43222-48-6
ChemmineR-0915142007XD

 25 26  0  0  0  0  0  0  0  0  2 V2000
    5.5460   -3.3886    0.0000 N   0  3  0  0  0  0  0  0  0  0  0  0
    4.2174   -3.3886    0.0000 N   0  0  0  0  0  0  0  0  0  0  0  0
    4.8756   -1.3408    0.0000 C   0  0  0  0  0  0  0  0  0  0  0  0
    3.8030   -2.1209    0.0000 C   0  0  0  0  0  0  0  0  0  0  0  0
    5.9483   -2.1209    0.0000 C   0  0  0  0  0  0  0  0  0  0  0  0
    3.4373   -4.4612    0.0000 C   0  0  0  0  0  0  0  0  0  0  0  0
    6.3139   -4.4612    0.0000 C   0  0  0  0  0  0  0  0  0  0  0  0
    7.2281   -1.7187    0.0000 C   0  0  0  0  0  0  0  0  0  0  0  0
    7.5085   -0.4022    0.0000 C   0  0  0  0  0  0  0  0  0  0  0  0
    8.2154   -2.6085    0.0000 C   0  0  0  0  0  0  0  0  0  0  0  0
    8.7517    0.0000    0.0000 C   0  0  0  0  0  0  0  0  0  0  0  0
    9.4831   -2.1818    0.0000 C   0  0  0  0  0  0  0  0  0  0  0  0
    9.7512   -0.8898    0.0000 C   0  0  0  0  0  0  0  0  0  0  0  0
    2.5353   -1.7187    0.0000 C   0  0  0  0  0  0  0  0  0  0  0  0
    1.5358   -2.6085    0.0000 C   0  0  0  0  0  0  0  0  0  0  0  0
    2.2672   -0.4022    0.0000 C   0  0  0  0  0  0  0  0  0  0  0  0
    0.2682   -2.1818    0.0000 C   0  0  0  0  0  0  0  0  0  0  0  0
    0.9995    0.0000    0.0000 C   0  0  0  0  0  0  0  0  0  0  0  0
    0.0000   -0.8898    0.0000 C   0  0  0  0  0  0  0  0  0  0  0  0
   10.1900   -4.3027    0.0000 S   0  0  0  0  0  0  0  0  0  0  0  0
   10.1900   -2.9863    0.0000 O   0  0  0  0  0  0  0  0  0  0  0  0
   10.1900   -5.6313    0.0000 O   0  0  0  0  0  0  0  0  0  0  0  0
   11.5308   -4.3027    0.0000 O   0  0  0  0  0  0  0  0  0  0  0  0
   12.1890   -5.4607    0.0000 C   0  0  0  0  0  0  0  0  0  0  0  0
    8.8736   -4.3027    0.0000 O   0  5  0  0  0  0  0  0  0  0  0  0
  1  2  1  0  0  0  0
  1  5  2  0  0  0  0
  1  7  1  0  0  0  0
  2  4  1  0  0  0  0
  2  6  1  0  0  0  0
  3  4  2  0  0  0  0
  3  5  1  0  0  0  0
  4 14  1  0  0  0  0
  5  8  1  0  0  0  0
  8  9  2  0  0  0  0
  8 10  1  0  0  0  0
  9 11  1  0  0  0  0
 10 12  2  0  0  0  0
 11 13  2  0  0  0  0
 12 13  1  0  0  0  0
 14 15  2  0  0  0  0
 14 16  1  0  0  0  0
 15 17  1  0  0  0  0
 16 18  2  0  0  0  0
 17 19  2  0  0  0  0
 18 19  1  0  0  0  0
 20 21  2  0  0  0  0
 20 22  2  0  0  0  0
 20 23  1  0  0  0  0
 20 25  1  0  0  0  0
 23 24  1  0  0  0  0
M  END
> <ID>
3478

> <Formula>
C18H20N2O4S

> <FW>
360.4274 (249.3297+111.0977)

> <DSSTox_CID>
4048

> <DSSTox_RID>
77267

> <DSSTox_GSID>
24048

> <DSSTox_FileID_Sort>
1950

> <TS_ChemName>
Difenzoquat metilsulfate

> <TS_ChemName_Synonyms>
Difenzoquat metilsulfate (Difenzoquat methyl sulfate)

> <TS_CASRN>
43222-48-6

> <CASRN_ChemName_Relationship>
primary

> <TS_Description>
single chemical compound

> <ChemNote>
ammonium; parent [49866-87-7]

> <STRUCTURE_Shown>
tested chemical

> <STRUCTURE_Formula>
C18H20N2O4S

> <STRUCTURE_MW>
360.4274

> <STRUCTURE_ChemType>
defined organic

> <STRUCTURE_DefinedOrganicForm>
complex

> <STRUCTURE_IUPAC>
1,2-dimethyl-3,5-diphenyl-1H-pyrazol-2-ium methyl sulfate

> <STRUCTURE_SMILES>
Cn2[n+](C)c(cc2c1ccccc1)c3ccccc3.[O-]S(=O)(=O)OC

> <STRUCTURE_SMILES_Desalt>
Cn2[n+](C)c(cc2c1ccccc1)c3ccccc3

> <Substance_modify_yyyymmdd>
20080429

$$$$
