4330-99-8
ChemmineR-0915142007XD

 52 55  0  0  1  0  0  0  0  0  1 V2000
    4.0899   -2.6617    0.0000 C   0  0  0  0  0  0  0  0  0  0  0  0
    4.0899   -3.9925    0.0000 C   0  0  0  0  0  0  0  0  0  0  0  0
    2.9376   -4.6580    0.0000 C   0  0  0  0  0  0  0  0  0  0  0  0
    1.7853   -3.9925    0.0000 N   0  0  0  0  0  0  0  0  0  0  0  0
    0.6330   -4.6580    0.0000 C   0  0  0  0  0  0  0  0  0  0  0  0
    1.7853   -2.6617    0.0000 C   0  0  0  0  0  0  0  0  0  0  0  0
    5.2422   -4.6580    0.0000 C   0  0  0  0  0  0  0  0  0  0  0  0
    6.3783   -3.9925    0.0000 N   0  0  0  0  0  0  0  0  0  0  0  0
    7.5469   -4.6580    0.0000 C   0  0  0  0  0  0  0  0  0  0  0  0
    8.6992   -3.9925    0.0000 C   0  0  0  0  0  0  0  0  0  0  0  0
    8.6992   -2.6617    0.0000 S   0  0  0  0  0  0  0  0  0  0  0  0
    7.5469   -1.9800    0.0000 C   0  0  0  0  0  0  0  0  0  0  0  0
    6.3783   -2.6617    0.0000 C   0  0  0  0  0  0  0  0  0  0  0  0
    5.2422   -1.9800    0.0000 C   0  0  0  0  0  0  0  0  0  0  0  0
    5.2422   -0.6492    0.0000 C   0  0  0  0  0  0  0  0  0  0  0  0
    6.3783    0.0000    0.0000 C   0  0  0  0  0  0  0  0  0  0  0  0
    7.5469   -0.6492    0.0000 C   0  0  0  0  0  0  0  0  0  0  0  0
    9.8515   -4.6580    0.0000 C   0  0  0  0  0  0  0  0  0  0  0  0
    9.8515   -5.9888    0.0000 C   0  0  0  0  0  0  0  0  0  0  0  0
    8.6992   -6.6380    0.0000 C   0  0  0  0  0  0  0  0  0  0  0  0
    7.5469   -5.9888    0.0000 C   0  0  0  0  0  0  0  0  0  0  0  0
    4.3821  -12.2373    0.0000 C   0  0  0  0  0  0  0  0  0  0  0  0
    4.3821  -13.5682    0.0000 C   0  0  0  0  0  0  0  0  0  0  0  0
    3.2297  -14.2336    0.0000 C   0  0  0  0  0  0  0  0  0  0  0  0
    2.0774  -13.5682    0.0000 N   0  0  0  0  0  0  0  0  0  0  0  0
    0.9251  -14.2336    0.0000 C   0  0  0  0  0  0  0  0  0  0  0  0
    2.0774  -12.2373    0.0000 C   0  0  0  0  0  0  0  0  0  0  0  0
    5.5344  -14.2336    0.0000 C   0  0  0  0  0  0  0  0  0  0  0  0
    6.6705  -13.5682    0.0000 N   0  0  0  0  0  0  0  0  0  0  0  0
    7.8390  -14.2336    0.0000 C   0  0  0  0  0  0  0  0  0  0  0  0
    8.9913  -13.5682    0.0000 C   0  0  0  0  0  0  0  0  0  0  0  0
    8.9913  -12.2373    0.0000 S   0  0  0  0  0  0  0  0  0  0  0  0
    7.8390  -11.5719    0.0000 C   0  0  0  0  0  0  0  0  0  0  0  0
    6.6705  -12.2373    0.0000 C   0  0  0  0  0  0  0  0  0  0  0  0
    5.5344  -11.5719    0.0000 C   0  0  0  0  0  0  0  0  0  0  0  0
    5.5344  -10.2410    0.0000 C   0  0  0  0  0  0  0  0  0  0  0  0
    6.6705   -9.5756    0.0000 C   0  0  0  0  0  0  0  0  0  0  0  0
    7.8390  -10.2410    0.0000 C   0  0  0  0  0  0  0  0  0  0  0  0
   10.1437  -14.2336    0.0000 C   0  0  0  0  0  0  0  0  0  0  0  0
   10.1437  -15.5644    0.0000 C   0  0  0  0  0  0  0  0  0  0  0  0
    8.9913  -16.2299    0.0000 C   0  0  0  0  0  0  0  0  0  0  0  0
    7.8390  -15.5644    0.0000 C   0  0  0  0  0  0  0  0  0  0  0  0
    2.2884   -6.3459    0.0000 O   0  0  0  0  0  0  0  0  0  0  0  0
    2.2884   -7.6605    0.0000 C   0  0  0  0  0  0  0  0  0  0  0  0
    3.4570   -8.3259    0.0000 C   0  0  0  0  0  0  0  0  0  0  0  0
    3.4570   -9.6568    0.0000 O   0  0  0  0  0  0  0  0  0  0  0  0
    4.6093   -7.6605    0.0000 C   0  0  0  0  0  0  0  0  0  0  0  0
    5.7616   -8.3259    0.0000 O   0  0  0  0  0  0  0  0  0  0  0  0
    4.6093   -6.3459    0.0000 O   0  0  0  0  0  0  0  0  0  0  0  0
    1.1523   -8.3259    0.0000 C   0  0  0  0  0  0  0  0  0  0  0  0
    0.0000   -7.6605    0.0000 O   0  0  0  0  0  0  0  0  0  0  0  0
    1.1523   -9.6568    0.0000 O   0  0  0  0  0  0  0  0  0  0  0  0
  2  1  1  6  0  0  0
  2  3  1  0  0  0  0
  2  7  1  0  0  0  0
  3  4  1  0  0  0  0
  4  5  1  0  0  0  0
  4  6  1  0  0  0  0
  7  8  1  0  0  0  0
  8  9  1  0  0  0  0
  8 13  1  0  0  0  0
  9 10  2  0  0  0  0
  9 21  1  0  0  0  0
 10 11  1  0  0  0  0
 10 18  1  0  0  0  0
 11 12  1  0  0  0  0
 12 13  2  0  0  0  0
 12 17  1  0  0  0  0
 13 14  1  0  0  0  0
 14 15  2  0  0  0  0
 15 16  1  0  0  0  0
 16 17  2  0  0  0  0
 18 19  2  0  0  0  0
 19 20  1  0  0  0  0
 20 21  2  0  0  0  0
 23 22  1  6  0  0  0
 23 24  1  0  0  0  0
 23 28  1  0  0  0  0
 24 25  1  0  0  0  0
 25 26  1  0  0  0  0
 25 27  1  0  0  0  0
 28 29  1  0  0  0  0
 29 30  1  0  0  0  0
 29 34  1  0  0  0  0
 30 31  2  0  0  0  0
 30 42  1  0  0  0  0
 31 32  1  0  0  0  0
 31 39  1  0  0  0  0
 32 33  1  0  0  0  0
 33 34  2  0  0  0  0
 33 38  1  0  0  0  0
 34 35  1  0  0  0  0
 35 36  2  0  0  0  0
 36 37  1  0  0  0  0
 37 38  2  0  0  0  0
 39 40  2  0  0  0  0
 40 41  1  0  0  0  0
 41 42  2  0  0  0  0
 44 43  1  1  0  0  0
 44 45  1  0  0  0  0
 44 50  1  0  0  0  0
 45 46  1  6  0  0  0
 45 47  1  0  0  0  0
 47 48  1  0  0  0  0
 47 49  2  0  0  0  0
 50 51  1  0  0  0  0
 50 52  2  0  0  0  0
M  END
> <ID>
11025

> <Formula>
C40H50N4O6S2

> <FW>
746.9782 (298.4457+298.4457+150.0868)

> <DSSTox_CID>
25560

> <DSSTox_RID>
80957

> <DSSTox_GSID>
45560

> <DSSTox_FileID_Sort>
5638

> <TS_ChemName>
Trimeprazine tartrate

> <TS_ChemName_Synonyms>


> <TS_CASRN>
4330-99-8

> <CASRN_ChemName_Relationship>
primary

> <TS_Description>
single chemical compound

> <ChemNote>
stereochem; parent [84-96-8]

> <STRUCTURE_Shown>
tested chemical

> <STRUCTURE_Formula>
C40H50N4O6S2

> <STRUCTURE_MW>
746.9782

> <STRUCTURE_ChemType>
defined organic

> <STRUCTURE_DefinedOrganicForm>
complex

> <STRUCTURE_IUPAC>
(2R,3S)-2,3-dihydroxybutanedioic acid - (2S)-N,N,2-trimethyl-3-(10H-phenothiazin-10-yl)propan-1-amine (1:2)

> <STRUCTURE_SMILES>
O=C(O)[C@H](O)[C@H](O)C(=O)O.CN(C)C[C@H](C)CN1c3ccccc3Sc2ccccc12.CN(C)C[C@H](C)CN1c3ccccc3Sc2ccccc12

> <STRUCTURE_SMILES_Desalt>
CN(C)C[C@H](C)CN1c3ccccc3Sc2ccccc12

> <Substance_modify_yyyymmdd>
20100107

$$$$
