433337-23-6
ChemmineR-0915142007XD

 31 30  0  0  0  0  0  0  0  0  2 V2000
   13.7199   -1.0521    0.0000 N   0  3  0  0  0  0  0  0  0  0  0  0
   11.5946   -1.7045    0.0000 N   0  0  0  0  0  0  0  0  0  0  0  0
   12.9203   -2.1674    0.0000 C   0  0  0  0  0  0  0  0  0  0  0  0
   12.9203    0.0000    0.0000 C   0  0  0  0  0  0  0  0  0  0  0  0
   11.5946   -0.3788    0.0000 C   0  0  0  0  0  0  0  0  0  0  0  0
   10.5635   -2.5041    0.0000 C   0  0  0  0  0  0  0  0  0  0  0  0
    9.3009   -1.9780    0.0000 C   0  0  0  0  0  0  0  0  0  0  0  0
    8.2277   -2.7566    0.0000 C   0  0  0  0  0  0  0  0  0  0  0  0
    6.9652   -2.1674    0.0000 C   0  0  0  0  0  0  0  0  0  0  0  0
    5.8499   -2.9670    0.0000 C   0  0  0  0  0  0  0  0  0  0  0  0
    4.6084   -2.4410    0.0000 C   0  0  0  0  0  0  0  0  0  0  0  0
    3.5562   -3.2195    0.0000 C   0  0  0  0  0  0  0  0  0  0  0  0
    2.2937   -2.6935    0.0000 C   0  0  0  0  0  0  0  0  0  0  0  0
    1.1784   -3.4089    0.0000 C   0  0  0  0  0  0  0  0  0  0  0  0
    0.0000   -2.9039    0.0000 C   0  0  0  0  0  0  0  0  0  0  0  0
   15.0246   -1.0521    0.0000 C   0  0  0  0  0  0  0  0  0  0  0  0
   17.1499   -3.4300    0.0000 O   0  0  0  0  0  0  0  0  0  0  0  0
   16.4975   -4.5663    0.0000 S   0  0  0  0  0  0  0  0  0  0  0  0
   15.8242   -5.7026    0.0000 O   0  0  0  0  0  0  0  0  0  0  0  0
   15.3402   -3.9140    0.0000 C   0  0  0  0  0  0  0  0  0  0  0  0
   14.6879   -5.0503    0.0000 F   0  0  0  0  0  0  0  0  0  0  0  0
   15.9925   -2.7776    0.0000 F   0  0  0  0  0  0  0  0  0  0  0  0
   14.2249   -3.2406    0.0000 F   0  0  0  0  0  0  0  0  0  0  0  0
   17.6339   -5.2186    0.0000 N   0  5  0  0  0  0  0  0  0  0  0  0
   18.0968   -3.4300    0.0000 O   0  0  0  0  0  0  0  0  0  0  0  0
   18.7491   -4.5663    0.0000 S   0  0  0  0  0  0  0  0  0  0  0  0
   19.4225   -5.7026    0.0000 O   0  0  0  0  0  0  0  0  0  0  0  0
   19.9065   -3.9140    0.0000 C   0  0  0  0  0  0  0  0  0  0  0  0
   19.2331   -2.7776    0.0000 F   0  0  0  0  0  0  0  0  0  0  0  0
   20.5588   -5.0503    0.0000 F   0  0  0  0  0  0  0  0  0  0  0  0
   21.0428   -3.2406    0.0000 F   0  0  0  0  0  0  0  0  0  0  0  0
  1  3  2  0  0  0  0
  1  4  1  0  0  0  0
  1 16  1  0  0  0  0
  2  3  1  0  0  0  0
  2  5  1  0  0  0  0
  2  6  1  0  0  0  0
  4  5  2  0  0  0  0
  6  7  1  0  0  0  0
  7  8  1  0  0  0  0
  8  9  1  0  0  0  0
  9 10  1  0  0  0  0
 10 11  1  0  0  0  0
 11 12  1  0  0  0  0
 12 13  1  0  0  0  0
 13 14  1  0  0  0  0
 14 15  1  0  0  0  0
 17 18  2  0  0  0  0
 18 19  2  0  0  0  0
 18 20  1  0  0  0  0
 18 24  1  0  0  0  0
 20 21  1  0  0  0  0
 20 22  1  0  0  0  0
 20 23  1  0  0  0  0
 24 26  1  0  0  0  0
 25 26  2  0  0  0  0
 26 27  2  0  0  0  0
 26 28  1  0  0  0  0
 28 29  1  0  0  0  0
 28 30  1  0  0  0  0
 28 31  1  0  0  0  0
M  END
> <ID>
12988

> <Formula>
C16H27F6N3O4S2

> <FW>
503.5237 (223.3770+280.1467)

> <DSSTox_CID>
27889

> <DSSTox_RID>
82642

> <DSSTox_GSID>
47913

> <DSSTox_FileID_Sort>
7319

> <TS_ChemName>
1-Decyl-3-methylimidazolium bis(trifluoromethylsulfonyl)imide

> <TS_ChemName_Synonyms>


> <TS_CASRN>
433337-23-6

> <CASRN_ChemName_Relationship>
primary

> <TS_Description>
single chemical compound

> <ChemNote>
ammonium; parent [81994-88-9]

> <STRUCTURE_Shown>
tested chemical

> <STRUCTURE_Formula>
C16H27F6N3O4S2

> <STRUCTURE_MW>
503.5237

> <STRUCTURE_ChemType>
defined organic

> <STRUCTURE_DefinedOrganicForm>
salt

> <STRUCTURE_IUPAC>
1-decyl-3-methyl-1H-imidazol-3-ium bis[(trifluoromethyl)sulfonyl]azanide

> <STRUCTURE_SMILES>
FC(F)(F)S(=O)(=O)[N-]S(=O)(=O)C(F)(F)F.C[n+]1ccn(CCCCCCCCCC)c1

> <STRUCTURE_SMILES_Desalt>
C[n+]1ccn(CCCCCCCCCC)c1

> <Substance_modify_yyyymmdd>
20110419

$$$$
