434-22-0
ChemmineR-0915142007XD

 24 27  0  0  1  0  0  0  0  0  1 V2000
    6.9270   -1.6668    0.0000 C   0  0  0  0  0  0  0  0  0  0  0  0
    6.9270   -3.0110    0.0000 C   0  0  0  0  0  0  0  0  0  0  0  0
    3.4770   -5.0093    0.0000 C   0  0  0  0  0  0  0  0  0  0  0  0
    5.7800   -3.6651    0.0000 C   0  0  0  0  0  0  0  0  0  0  0  0
    4.6419   -2.9930    0.0000 C   0  0  0  0  0  0  0  0  0  0  0  0
    3.4770   -3.6651    0.0000 C   0  0  0  0  0  0  0  0  0  0  0  0
    2.3389   -5.6635    0.0000 C   0  0  0  0  0  0  0  0  0  0  0  0
    5.7800   -0.9947    0.0000 C   0  0  0  0  0  0  0  0  0  0  0  0
    4.6419   -1.6668    0.0000 C   0  0  0  0  0  0  0  0  0  0  0  0
    5.7800   -4.9914    0.0000 C   0  0  0  0  0  0  0  0  0  0  0  0
    8.1906   -3.4232    0.0000 C   0  0  0  0  0  0  0  0  0  0  0  0
    2.3389   -2.9930    0.0000 C   0  0  0  0  0  0  0  0  0  0  0  0
    8.1906   -1.2815    0.0000 C   0  0  0  0  0  0  0  0  0  0  0  0
    4.6419   -5.6635    0.0000 C   0  0  0  0  0  0  0  0  0  0  0  0
    1.1650   -4.9914    0.0000 C   0  0  0  0  0  0  0  0  0  0  0  0
    8.9612   -2.3389    0.0000 C   0  0  0  0  0  0  0  0  0  0  0  0
    0.0000   -5.6187    0.0000 O   0  0  0  0  0  0  0  0  0  0  0  0
    1.1650   -3.6651    0.0000 C   0  0  0  0  0  0  0  0  0  0  0  0
    6.9449   -0.3495    0.0000 C   0  0  0  0  0  0  0  0  0  0  0  0
    8.6297    0.0000    0.0000 O   0  0  0  0  0  0  0  0  0  0  0  0
    4.6419   -4.3372    0.0000 H   0  0  0  0  0  0  0  0  0  0  0  0
    3.4770   -2.3389    0.0000 H   0  0  0  0  0  0  0  0  0  0  0  0
    6.9449   -4.3372    0.0000 H   0  0  0  0  0  0  0  0  0  0  0  0
    5.7800   -2.3389    0.0000 H   0  0  0  0  0  0  0  0  0  0  0  0
  1  2  1  0  0  0  0
  1  8  1  0  0  0  0
  1 13  1  0  0  0  0
  1 19  1  1  0  0  0
  2  4  1  0  0  0  0
  2 11  1  0  0  0  0
  2 23  1  6  0  0  0
  3  6  1  0  0  0  0
  3  7  2  0  0  0  0
  3 14  1  0  0  0  0
  4 10  1  0  0  0  0
  4 24  1  1  0  0  0
  4  5  1  0  0  0  0
  5  9  1  0  0  0  0
  5  6  1  0  0  0  0
  5 21  1  6  0  0  0
  6 12  1  0  0  0  0
  6 22  1  1  0  0  0
  7 15  1  0  0  0  0
  8  9  1  0  0  0  0
 10 14  1  0  0  0  0
 11 16  1  0  0  0  0
 12 18  1  0  0  0  0
 13 16  1  0  0  0  0
 13 20  1  1  0  0  0
 15 18  1  0  0  0  0
 15 17  2  0  0  0  0
M  END
> <ID>
3006

> <Formula>
C18H26O2

> <FW>
274.3978

> <DSSTox_CID>
3350

> <DSSTox_RID>
76987

> <DSSTox_GSID>
23350

> <DSSTox_FileID_Sort>
1671

> <TS_ChemName>
Nandrolone

> <TS_ChemName_Synonyms>
Nandrolone (19-Nortestosterone)

> <TS_CASRN>
434-22-0

> <CASRN_ChemName_Relationship>
primary

> <TS_Description>
single chemical compound

> <ChemNote>
stereochem

> <STRUCTURE_Shown>
tested chemical

> <STRUCTURE_Formula>
C18H26O2

> <STRUCTURE_MW>
274.3978

> <STRUCTURE_ChemType>
defined organic

> <STRUCTURE_DefinedOrganicForm>
parent

> <STRUCTURE_IUPAC>
(17beta)-17-hydroxyestr-4-en-3-one

> <STRUCTURE_SMILES>
O=C4CC[C@H]3C(CC[C@@H]1[C@@H]3CC[C@]2(C)[C@@H](O)CC[C@@H]12)=C4

> <STRUCTURE_SMILES_Desalt>
O=C4CC[C@H]3C(CC[C@@H]1[C@@H]3CC[C@]2(C)[C@@H](O)CC[C@@H]12)=C4

> <Substance_modify_yyyymmdd>
20080429

$$$$
