434-07-1
ChemmineR-0915142007XD

 28 31  0  0  1  0  0  0  0  0  1 V2000
    4.6045   -3.9468    0.0000 C   0  0  0  0  0  0  0  0  0  0  0  0
    8.0633   -1.9415    0.0000 C   0  0  0  0  0  0  0  0  0  0  0  0
    5.7292   -3.2996    0.0000 C   0  0  0  0  0  0  0  0  0  0  0  0
    8.0633   -3.2996    0.0000 C   0  0  0  0  0  0  0  0  0  0  0  0
    2.3023   -3.9574    0.0000 C   0  0  0  0  0  0  0  0  0  0  0  0
    6.9068   -3.9574    0.0000 C   0  0  0  0  0  0  0  0  0  0  0  0
    3.4481   -3.2996    0.0000 C   0  0  0  0  0  0  0  0  0  0  0  0
    4.6045   -5.2836    0.0000 C   0  0  0  0  0  0  0  0  0  0  0  0
    2.2917   -5.2729    0.0000 C   0  0  0  0  0  0  0  0  0  0  0  0
    9.3258   -1.5596    0.0000 C   0  0  0  0  0  0  0  0  0  0  0  0
    6.8856   -1.2944    0.0000 C   0  0  0  0  0  0  0  0  0  0  0  0
    5.7292   -1.9415    0.0000 C   0  0  0  0  0  0  0  0  0  0  0  0
    3.4481   -5.9626    0.0000 C   0  0  0  0  0  0  0  0  0  0  0  0
    9.3258   -3.7027    0.0000 C   0  0  0  0  0  0  0  0  0  0  0  0
    6.9068   -5.2836    0.0000 C   0  0  0  0  0  0  0  0  0  0  0  0
    1.1458   -3.2890    0.0000 C   0  0  0  0  0  0  0  0  0  0  0  0
    5.7292   -5.9626    0.0000 C   0  0  0  0  0  0  0  0  0  0  0  0
   10.0897   -2.6206    0.0000 C   0  0  0  0  0  0  0  0  0  0  0  0
    1.1458   -5.9414    0.0000 O   0  0  0  0  0  0  0  0  0  0  0  0
    4.6045   -2.6206    0.0000 C   0  0  0  0  0  0  0  0  0  0  0  0
    9.3895    0.0000    0.0000 O   0  0  0  0  0  0  0  0  0  0  0  0
    8.0845   -0.5517    0.0000 C   0  0  0  0  0  0  0  0  0  0  0  0
    0.0000   -3.9574    0.0000 O   0  0  0  0  0  0  0  0  0  0  0  0
   10.6096   -1.3050    0.0000 C   0  0  0  0  0  0  0  0  0  0  0  0
    8.0951   -4.6894    0.0000 H   0  0  0  0  0  0  0  0  0  0  0  0
    6.9280   -2.8434    0.0000 H   0  0  0  0  0  0  0  0  0  0  0  0
    5.6761   -4.3924    0.0000 H   0  0  0  0  0  0  0  0  0  0  0  0
    4.6470   -6.7158    0.0000 H   0  0  0  0  0  0  0  0  0  0  0  0
  1  3  1  0  0  0  0
  1  7  1  0  0  0  0
  1  8  1  0  0  0  0
  1 20  1  1  0  0  0
  2 11  1  0  0  0  0
  2 10  1  0  0  0  0
  2 22  1  1  0  0  0
  2  4  1  0  0  0  0
  3  6  1  0  0  0  0
  3 12  1  0  0  0  0
  3 27  1  6  0  0  0
  4  6  1  0  0  0  0
  4 14  1  0  0  0  0
  4 25  1  6  0  0  0
  5  7  1  0  0  0  0
  5 16  2  0  0  0  0
  5  9  1  0  0  0  0
  6 15  1  0  0  0  0
  6 26  1  1  0  0  0
  8 13  1  0  0  0  0
  8 17  1  0  0  0  0
  8 28  1  6  0  0  0
  9 13  1  0  0  0  0
  9 19  2  0  0  0  0
 10 21  1  1  0  0  0
 10 24  1  6  0  0  0
 10 18  1  0  0  0  0
 11 12  1  0  0  0  0
 14 18  1  0  0  0  0
 15 17  1  0  0  0  0
 16 23  1  0  0  0  0
M  END
> <ID>
3367

> <Formula>
C21H32O3

> <FW>
332.477

> <DSSTox_CID>
3794

> <DSSTox_RID>
77193

> <DSSTox_GSID>
23794

> <DSSTox_FileID_Sort>
1876

> <TS_ChemName>
Oxymetholone

> <TS_ChemName_Synonyms>


> <TS_CASRN>
434-07-1

> <CASRN_ChemName_Relationship>
primary

> <TS_Description>
single chemical compound

> <ChemNote>
stereochem; tautomers

> <STRUCTURE_Shown>
tested chemical

> <STRUCTURE_Formula>
C21H32O3

> <STRUCTURE_MW>
332.477

> <STRUCTURE_ChemType>
defined organic

> <STRUCTURE_DefinedOrganicForm>
parent

> <STRUCTURE_IUPAC>
(2Z,5alpha,17beta)-17-hydroxy-2-(hydroxymethylidene)-17-methylandrostan-3-one

> <STRUCTURE_SMILES>
O=C3C[C@@H]4CC[C@@H]2[C@H](CC[C@@]1(C)[C@H]2CC[C@]1(C)O)[C@@]4(C)C\C3=C\O

> <STRUCTURE_SMILES_Desalt>
O=C3C[C@@H]4CC[C@@H]2[C@H](CC[C@@]1(C)[C@H]2CC[C@]1(C)O)[C@@]4(C)C\C3=C\O

> <Substance_modify_yyyymmdd>
20080429

$$$$
