434-03-7
ChemmineR-0915142007XD

 26 29  0  0  1  0  0  0  0  0  1 V2000
    3.4628   -3.7242    0.0000 C   0  0  0  0  0  0  0  0  0  0  0  0
    6.8821   -1.7205    0.0000 C   0  0  0  0  0  0  0  0  0  0  0  0
    3.4628   -5.0200    0.0000 C   0  0  0  0  0  0  0  0  0  0  0  0
    4.5845   -3.0490    0.0000 C   0  0  0  0  0  0  0  0  0  0  0  0
    6.8821   -3.0490    0.0000 C   0  0  0  0  0  0  0  0  0  0  0  0
    5.7279   -3.7242    0.0000 C   0  0  0  0  0  0  0  0  0  0  0  0
    8.1562   -1.3394    0.0000 C   0  0  0  0  0  0  0  0  0  0  0  0
    2.3195   -5.7170    0.0000 C   0  0  0  0  0  0  0  0  0  0  0  0
    9.3540   -1.3394    0.0000 C   0  0  0  0  0  0  0  0  0  0  0  0
    5.7279   -1.0563    0.0000 C   0  0  0  0  0  0  0  0  0  0  0  0
    4.5845   -1.7205    0.0000 C   0  0  0  0  0  0  0  0  0  0  0  0
    2.3195   -3.0490    0.0000 C   0  0  0  0  0  0  0  0  0  0  0  0
    5.7279   -5.0200    0.0000 C   0  0  0  0  0  0  0  0  0  0  0  0
    8.1562   -3.4520    0.0000 C   0  0  0  0  0  0  0  0  0  0  0  0
   10.8895   -1.3394    0.0000 C   0  0  0  0  0  0  0  0  0  0  0  0
    4.5845   -5.7170    0.0000 C   0  0  0  0  0  0  0  0  0  0  0  0
    1.1543   -5.0200    0.0000 C   0  0  0  0  0  0  0  0  0  0  0  0
    8.9403   -2.3848    0.0000 C   0  0  0  0  0  0  0  0  0  0  0  0
    0.0000   -5.7279    0.0000 O   0  0  0  0  0  0  0  0  0  0  0  0
    1.1543   -3.7242    0.0000 C   0  0  0  0  0  0  0  0  0  0  0  0
    8.1562    0.0000    0.0000 O   0  0  0  0  0  0  0  0  0  0  0  0
    3.4628   -2.3957    0.0000 C   0  0  0  0  0  0  0  0  0  0  0  0
    6.8821   -0.3920    0.0000 C   0  0  0  0  0  0  0  0  0  0  0  0
    5.7279   -2.3957    0.0000 H   0  0  0  0  0  0  0  0  0  0  0  0
    4.5845   -4.3776    0.0000 H   0  0  0  0  0  0  0  0  0  0  0  0
    6.8821   -4.3776    0.0000 H   0  0  0  0  0  0  0  0  0  0  0  0
  1  3  1  0  0  0  0
  1  4  1  0  0  0  0
  1 12  1  0  0  0  0
  1 22  1  1  0  0  0
  2 10  1  0  0  0  0
  2  7  1  0  0  0  0
  2 23  1  1  0  0  0
  2  5  1  0  0  0  0
  3  8  2  0  0  0  0
  3 16  1  0  0  0  0
  4  6  1  0  0  0  0
  4 11  1  0  0  0  0
  4 25  1  6  0  0  0
  5  6  1  0  0  0  0
  5 14  1  0  0  0  0
  5 26  1  6  0  0  0
  6 13  1  0  0  0  0
  6 24  1  1  0  0  0
  7  9  1  6  0  0  0
  7 21  1  1  0  0  0
  7 18  1  0  0  0  0
  8 17  1  0  0  0  0
  9 15  3  0  0  0  0
 10 11  1  0  0  0  0
 12 20  1  0  0  0  0
 13 16  1  0  0  0  0
 14 18  1  0  0  0  0
 17 20  1  0  0  0  0
 17 19  2  0  0  0  0
M  END
> <ID>
2712

> <Formula>
C21H28O2

> <FW>
312.4458

> <DSSTox_CID>
3016

> <DSSTox_RID>
76831

> <DSSTox_GSID>
23016

> <DSSTox_FileID_Sort>
1515

> <TS_ChemName>
Ethisterone

> <TS_ChemName_Synonyms>


> <TS_CASRN>
434-03-7

> <CASRN_ChemName_Relationship>
primary

> <TS_Description>
single chemical compound

> <ChemNote>
stereochem

> <STRUCTURE_Shown>
tested chemical

> <STRUCTURE_Formula>
C21H28O2

> <STRUCTURE_MW>
312.4458

> <STRUCTURE_ChemType>
defined organic

> <STRUCTURE_DefinedOrganicForm>
parent

> <STRUCTURE_IUPAC>
(17alpha)-17-hydroxypregn-4-en-20-yn-3-one

> <STRUCTURE_SMILES>
O=C4CC[C@@]3(C)C(CC[C@@H]2[C@@H]3CC[C@@]1(C)[C@H]2CC[C@@]1(O)C#C)=C4

> <STRUCTURE_SMILES_Desalt>
O=C4CC[C@@]3(C)C(CC[C@@H]2[C@@H]3CC[C@@]1(C)[C@H]2CC[C@@]1(O)C#C)=C4

> <Substance_modify_yyyymmdd>
20080429

$$$$
