4342-36-3
ChemmineR-0915142007XD

 22 22  0  0  0  0  0  0  0  0  1 V2000
    5.7636   -4.6130    0.0000 Sn   0  0  0  0  0  0  0  0  0  0  0  0
    4.6233   -5.2868    0.0000 O    0  0  0  0  0  0  0  0  0  0  0  0
    6.9143   -3.9495    0.0000 C    0  0  0  0  0  0  0  0  0  0  0  0
    5.0898   -3.4520    0.0000 C    0  0  0  0  0  0  0  0  0  0  0  0
    6.4167   -5.7636    0.0000 C    0  0  0  0  0  0  0  0  0  0  0  0
    3.4623   -4.6130    0.0000 C    0  0  0  0  0  0  0  0  0  0  0  0
    8.0753   -4.6130    0.0000 C    0  0  0  0  0  0  0  0  0  0  0  0
    5.7636   -2.3013    0.0000 C    0  0  0  0  0  0  0  0  0  0  0  0
    5.7636   -6.9039    0.0000 C    0  0  0  0  0  0  0  0  0  0  0  0
    2.3117   -5.2868    0.0000 C    0  0  0  0  0  0  0  0  0  0  0  0
    3.4623   -3.2757    0.0000 O    0  0  0  0  0  0  0  0  0  0  0  0
    9.2260   -3.9495    0.0000 C    0  0  0  0  0  0  0  0  0  0  0  0
    5.0898   -1.1403    0.0000 C    0  0  0  0  0  0  0  0  0  0  0  0
    6.4167   -8.0753    0.0000 C    0  0  0  0  0  0  0  0  0  0  0  0
    2.3117   -6.6137    0.0000 C    0  0  0  0  0  0  0  0  0  0  0  0
    1.1507   -4.6130    0.0000 C    0  0  0  0  0  0  0  0  0  0  0  0
   10.3662   -4.6130    0.0000 C    0  0  0  0  0  0  0  0  0  0  0  0
    5.7636    0.0000    0.0000 C    0  0  0  0  0  0  0  0  0  0  0  0
    5.7636   -9.2156    0.0000 C    0  0  0  0  0  0  0  0  0  0  0  0
    1.1507   -7.2564    0.0000 C    0  0  0  0  0  0  0  0  0  0  0  0
    0.0000   -5.2868    0.0000 C    0  0  0  0  0  0  0  0  0  0  0  0
    0.0000   -6.6137    0.0000 C    0  0  0  0  0  0  0  0  0  0  0  0
  1  2  1  0  0  0  0
  1  3  1  0  0  0  0
  1  4  1  0  0  0  0
  1  5  1  0  0  0  0
  2  6  1  0  0  0  0
  3  7  1  0  0  0  0
  4  8  1  0  0  0  0
  5  9  1  0  0  0  0
  6 10  1  0  0  0  0
  6 11  2  0  0  0  0
  7 12  1  0  0  0  0
  8 13  1  0  0  0  0
  9 14  1  0  0  0  0
 10 15  1  0  0  0  0
 10 16  2  0  0  0  0
 12 17  1  0  0  0  0
 13 18  1  0  0  0  0
 14 19  1  0  0  0  0
 15 20  2  0  0  0  0
 16 21  1  0  0  0  0
 20 22  1  0  0  0  0
 21 22  2  0  0  0  0
M  END
> <ID>
6972

> <Formula>
C19H32O2Sn

> <FW>
411.1662

> <DSSTox_CID>
14981

> <DSSTox_RID>
79233

> <DSSTox_GSID>
34981

> <DSSTox_FileID_Sort>
3915

> <TS_ChemName>
Tributyltin benzoate

> <TS_ChemName_Synonyms>


> <TS_CASRN>
4342-36-3

> <CASRN_ChemName_Relationship>
primary

> <TS_Description>
single chemical compound

> <ChemNote>


> <STRUCTURE_Shown>
tested chemical

> <STRUCTURE_Formula>
C19H32O2Sn

> <STRUCTURE_MW>
411.1662

> <STRUCTURE_ChemType>
organometallic

> <STRUCTURE_DefinedOrganicForm>


> <STRUCTURE_IUPAC>
(benzoyloxy)(tributyl)stannane

> <STRUCTURE_SMILES>
CCCC[Sn](OC(=O)c1ccccc1)(CCCC)CCCC

> <STRUCTURE_SMILES_Desalt>
CCCC[Sn](OC(=O)c1ccccc1)(CCCC)CCCC

> <Substance_modify_yyyymmdd>
20080429

$$$$
