4345-03-3
ChemmineR-0915142007XD

 38 39  0  0  1  0  0  0  0  0  1 V2000
    9.2559   -2.0272    0.0000 C   0  0  0  0  0  0  0  0  0  0  0  0
    6.8819   -3.3609    0.0000 C   0  0  0  0  0  0  0  0  0  0  0  0
    9.2559   -3.3343    0.0000 C   0  0  0  0  0  0  0  0  0  0  0  0
    8.0556   -4.0011    0.0000 C   0  0  0  0  0  0  0  0  0  0  0  0
    8.0556   -1.3604    0.0000 C   0  0  0  0  0  0  0  0  0  0  0  0
    6.8819   -2.0006    0.0000 C   0  0  0  0  0  0  0  0  0  0  0  0
   10.3762   -1.3604    0.0000 O   0  0  0  0  0  0  0  0  0  0  0  0
    5.8150   -4.1078    0.0000 O   0  0  0  0  0  0  0  0  0  0  0  0
   10.3762   -4.0011    0.0000 C   0  0  0  0  0  0  0  0  0  0  0  0
    4.5613   -3.4676    0.0000 C   0  0  0  0  0  0  0  0  0  0  0  0
   11.6032   -2.0006    0.0000 C   0  0  0  0  0  0  0  0  0  0  0  0
    1.1737   -4.1612    0.0000 C   0  0  0  0  0  0  0  0  0  0  0  0
    4.5613   -2.1873    0.0000 O   0  0  0  0  0  0  0  0  0  0  0  0
    1.1737   -5.4682    0.0000 O   0  0  0  0  0  0  0  0  0  0  0  0
   11.6032   -3.3609    0.0000 C   0  0  0  0  0  0  0  0  0  0  0  0
    3.4676   -4.1078    0.0000 C   0  0  0  0  0  0  0  0  0  0  0  0
    2.3473   -3.4676    0.0000 C   0  0  0  0  0  0  0  0  0  0  0  0
    0.0000   -3.5477    0.0000 O   0  0  0  0  0  0  0  0  0  0  0  0
    8.0556    0.0000    0.0000 C   0  0  0  0  0  0  0  0  0  0  0  0
    8.0556   -5.3615    0.0000 C   0  0  0  0  0  0  0  0  0  0  0  0
    5.8150   -1.3070    0.0000 C   0  0  0  0  0  0  0  0  0  0  0  0
   12.7769   -1.3070    0.0000 C   0  0  0  0  0  0  0  0  0  0  0  0
   13.8705   -1.9739    0.0000 C   0  0  0  0  0  0  0  0  0  0  0  0
   18.4852   -1.9472    0.0000 C   0  0  0  0  0  0  0  0  0  0  0  0
   23.2065   -1.8672    0.0000 C   0  0  0  0  0  0  0  0  0  0  0  0
   11.6032   -0.6135    0.0000 C   0  0  0  0  0  0  0  0  0  0  0  0
   24.3268   -1.2003    0.0000 C   0  0  0  0  0  0  0  0  0  0  0  0
   15.0175   -1.3070    0.0000 C   0  0  0  0  0  0  0  0  0  0  0  0
   22.0328   -1.2270    0.0000 C   0  0  0  0  0  0  0  0  0  0  0  0
   17.3382   -1.3070    0.0000 C   0  0  0  0  0  0  0  0  0  0  0  0
   19.6588   -1.2537    0.0000 C   0  0  0  0  0  0  0  0  0  0  0  0
   16.2179   -1.9472    0.0000 C   0  0  0  0  0  0  0  0  0  0  0  0
   20.8858   -1.9472    0.0000 C   0  0  0  0  0  0  0  0  0  0  0  0
   25.5004   -1.8672    0.0000 C   0  0  0  0  0  0  0  0  0  0  0  0
   25.5004   -3.1209    0.0000 C   0  0  0  0  0  0  0  0  0  0  0  0
   26.6741   -1.1737    0.0000 C   0  0  0  0  0  0  0  0  0  0  0  0
   16.2179   -3.1742    0.0000 C   0  0  0  0  0  0  0  0  0  0  0  0
   20.8858   -3.1742    0.0000 C   0  0  0  0  0  0  0  0  0  0  0  0
  1  3  2  0  0  0  0
  1  5  1  0  0  0  0
  1  7  1  0  0  0  0
  2  6  1  0  0  0  0
  2  8  1  0  0  0  0
  2  4  2  0  0  0  0
  3  4  1  0  0  0  0
  3  9  1  0  0  0  0
  4 20  1  0  0  0  0
  5  6  2  0  0  0  0
  5 19  1  0  0  0  0
  6 21  1  0  0  0  0
  7 11  1  0  0  0  0
  8 10  1  0  0  0  0
  9 15  1  0  0  0  0
 10 13  2  0  0  0  0
 10 16  1  0  0  0  0
 11 15  1  0  0  0  0
 11 22  1  6  0  0  0
 11 26  1  0  0  0  0
 12 17  1  0  0  0  0
 12 14  2  0  0  0  0
 12 18  1  0  0  0  0
 16 17  1  0  0  0  0
 22 23  1  0  0  0  0
 23 28  1  0  0  0  0
 24 30  1  0  0  0  0
 24 31  1  0  0  0  0
 25 29  1  0  0  0  0
 25 27  1  0  0  0  0
 27 34  1  0  0  0  0
 28 32  1  0  0  0  0
 29 33  1  0  0  0  0
 30 32  1  0  0  0  0
 31 33  1  0  0  0  0
 32 37  1  1  0  0  0
 33 38  1  1  0  0  0
 34 35  1  0  0  0  0
 34 36  1  0  0  0  0
M  END
> <ID>
4570

> <Formula>
C33H54O5

> <FW>
530.7789

> <DSSTox_CID>
6151

> <DSSTox_RID>
78037

> <DSSTox_GSID>
26151

> <DSSTox_FileID_Sort>
2720

> <TS_ChemName>
D-alpha-Tocopheryl succinate

> <TS_ChemName_Synonyms>


> <TS_CASRN>
4345-03-3

> <CASRN_ChemName_Relationship>
primary

> <TS_Description>
single chemical compound

> <ChemNote>
stereochem

> <STRUCTURE_Shown>
tested chemical

> <STRUCTURE_Formula>
C33H54O5

> <STRUCTURE_MW>
530.7789

> <STRUCTURE_ChemType>
defined organic

> <STRUCTURE_DefinedOrganicForm>
parent

> <STRUCTURE_IUPAC>
4-oxo-4-({(2R)-2,5,7,8-tetramethyl-2-[(4R,8R)-4,8,12-trimethyltridecyl]-3,4-dihydro-2H-chromen-6-yl}oxy)butanoic acid

> <STRUCTURE_SMILES>
O=C(O)CCC(=O)Oc2c(C)c(C)c1O[C@@](C)(CCc1c2C)CCC[C@H](C)CCC[C@H](C)CCCC(C)C

> <STRUCTURE_SMILES_Desalt>
O=C(O)CCC(=O)Oc2c(C)c(C)c1O[C@@](C)(CCc1c2C)CCC[C@H](C)CCC[C@H](C)CCCC(C)C

> <Substance_modify_yyyymmdd>
20080429

$$$$
