4360-12-7
ChemmineR-0915142007XD

 26 31  0  0  1  0  0  0  0  0  1 V2000
    5.6774   -2.9841    0.0000 N   0  0  0  0  0  0  0  0  0  0  0  0
    3.7878   -1.9238    0.0000 C   0  0  0  0  0  0  0  0  0  0  0  0
    2.8473   -3.5398    0.0000 N   0  0  0  0  0  0  0  0  0  0  0  0
    3.7878   -2.9841    0.0000 C   0  0  0  0  0  0  0  0  0  0  0  0
    4.7369   -3.5398    0.0000 C   0  0  0  0  0  0  0  0  0  0  0  0
    5.6774   -1.9238    0.0000 C   0  0  0  0  0  0  0  0  0  0  0  0
    6.7291   -0.6926    0.0000 C   0  0  0  0  0  0  0  0  0  0  0  0
    1.8725   -2.9841    0.0000 C   0  0  0  0  0  0  0  0  0  0  0  0
    1.8725   -1.9238    0.0000 C   0  0  0  0  0  0  0  0  0  0  0  0
    5.6774   -5.1901    0.0000 C   0  0  0  0  0  0  0  0  0  0  0  0
    4.7369   -1.3339    0.0000 C   0  0  0  0  0  0  0  0  0  0  0  0
    3.5313   -0.6926    0.0000 C   0  0  0  0  0  0  0  0  0  0  0  0
    6.6265   -3.5398    0.0000 C   0  0  0  0  0  0  0  0  0  0  0  0
    4.7369   -4.6514    0.0000 C   0  0  0  0  0  0  0  0  0  0  0  0
    6.6265   -4.6514    0.0000 C   0  0  0  0  0  0  0  0  0  0  0  0
    2.8473   -4.5317    0.0000 C   0  0  0  0  0  0  0  0  0  0  0  0
    0.9405   -3.5398    0.0000 C   0  0  0  0  0  0  0  0  0  0  0  0
    0.9405   -1.3339    0.0000 C   0  0  0  0  0  0  0  0  0  0  0  0
    7.5842   -5.1901    0.0000 C   0  0  0  0  0  0  0  0  0  0  0  0
    8.5503   -4.6514    0.0000 C   0  0  0  0  0  0  0  0  0  0  0  0
    0.0000   -1.9238    0.0000 C   0  0  0  0  0  0  0  0  0  0  0  0
    0.0000   -2.9841    0.0000 C   0  0  0  0  0  0  0  0  0  0  0  0
    4.7198   -2.1461    0.0000 H   0  0  0  0  0  0  0  0  0  0  0  0
    3.7878   -4.0785    0.0000 H   0  0  0  0  0  0  0  0  0  0  0  0
    7.5500   -2.9841    0.0000 O   0  0  0  0  0  0  0  0  0  0  0  0
    2.6848    0.0000    0.0000 O   0  0  0  0  0  0  0  0  0  0  0  0
  1  5  1  0  0  0  0
  1  6  1  0  0  0  0
  1 13  1  0  0  0  0
  2  9  1  6  0  0  0
  2  4  1  0  0  0  0
  2 12  1  0  0  0  0
  2 11  1  0  0  0  0
  3  4  1  0  0  0  0
  3  8  1  0  0  0  0
  3 16  1  0  0  0  0
  4  5  1  0  0  0  0
  4 24  1  1  0  0  0
  5 14  1  0  0  0  0
  5 23  1  6  0  0  0
  6  7  1  1  0  0  0
  6 11  1  0  0  0  0
  7 12  1  0  0  0  0
 10  7  1  1  0  0  0
  8 17  1  0  0  0  0
  8  9  2  0  0  0  0
  9 18  1  0  0  0  0
 10 15  1  0  0  0  0
 10 14  1  0  0  0  0
 12 26  1  6  0  0  0
 13 15  1  0  0  0  0
 13 25  1  6  0  0  0
 15 19  1  1  0  0  0
 17 22  2  0  0  0  0
 18 21  2  0  0  0  0
 19 20  1  0  0  0  0
 21 22  1  0  0  0  0
M  END
> <ID>
11007

> <Formula>
C20H26N2O2

> <FW>
326.4326

> <DSSTox_CID>
25537

> <DSSTox_RID>
80939

> <DSSTox_GSID>
45537

> <DSSTox_FileID_Sort>
5620

> <TS_ChemName>
Ajmaline

> <TS_ChemName_Synonyms>


> <TS_CASRN>
4360-12-7

> <CASRN_ChemName_Relationship>
primary

> <TS_Description>
single chemical compound

> <ChemNote>
stereochem

> <STRUCTURE_Shown>
tested chemical

> <STRUCTURE_Formula>
C20H26N2O2

> <STRUCTURE_MW>
326.4326

> <STRUCTURE_ChemType>
defined organic

> <STRUCTURE_DefinedOrganicForm>
parent

> <STRUCTURE_IUPAC>
(17R,21alpha)-ajmalan-17,21-diol

> <STRUCTURE_SMILES>
CN5c1ccccc1[C@@]26C[C@H]4C([C@H]2O)[C@H]3C[C@H](N4[C@H](O)[C@H]3CC)[C@H]56

> <STRUCTURE_SMILES_Desalt>
CN5c1ccccc1[C@@]26C[C@H]4C([C@H]2O)[C@H]3C[C@H](N4[C@H](O)[C@H]3CC)[C@H]56

> <Substance_modify_yyyymmdd>
20100107

$$$$
