437-38-7
ChemmineR-0915142007XD

 25 27  0  0  0  0  0  0  0  0  1 V2000
    3.4369   -3.3347    0.0000 N   0  0  0  0  0  0  0  0  0  0  0  0
    3.4369   -2.0059    0.0000 C   0  0  0  0  0  0  0  0  0  0  0  0
    6.9504   -5.2894    0.0000 N   0  0  0  0  0  0  0  0  0  0  0  0
    4.6634   -3.9990    0.0000 C   0  0  0  0  0  0  0  0  0  0  0  0
    5.8133   -3.3219    0.0000 C   0  0  0  0  0  0  0  0  0  0  0  0
    4.6634   -5.3150    0.0000 C   0  0  0  0  0  0  0  0  0  0  0  0
    2.2870   -1.3288    0.0000 O   0  0  0  0  0  0  0  0  0  0  0  0
    2.2998   -4.0246    0.0000 C   0  0  0  0  0  0  0  0  0  0  0  0
    5.8261   -5.9538    0.0000 C   0  0  0  0  0  0  0  0  0  0  0  0
    6.9504   -3.9607    0.0000 C   0  0  0  0  0  0  0  0  0  0  0  0
    8.1514   -5.9538    0.0000 C   0  0  0  0  0  0  0  0  0  0  0  0
    9.3140   -5.2894    0.0000 C   0  0  0  0  0  0  0  0  0  0  0  0
   10.4511   -5.9155    0.0000 C   0  0  0  0  0  0  0  0  0  0  0  0
    4.5995   -1.3288    0.0000 C   0  0  0  0  0  0  0  0  0  0  0  0
    1.1371   -3.3602    0.0000 C   0  0  0  0  0  0  0  0  0  0  0  0
    2.2998   -5.3150    0.0000 C   0  0  0  0  0  0  0  0  0  0  0  0
   10.4511   -7.2442    0.0000 C   0  0  0  0  0  0  0  0  0  0  0  0
   11.6266   -5.2383    0.0000 C   0  0  0  0  0  0  0  0  0  0  0  0
    4.5995    0.0000    0.0000 C   0  0  0  0  0  0  0  0  0  0  0  0
    0.0000   -4.0374    0.0000 C   0  0  0  0  0  0  0  0  0  0  0  0
    1.1371   -6.0049    0.0000 C   0  0  0  0  0  0  0  0  0  0  0  0
   11.6266   -7.8958    0.0000 C   0  0  0  0  0  0  0  0  0  0  0  0
   12.7764   -5.8899    0.0000 C   0  0  0  0  0  0  0  0  0  0  0  0
    0.0128   -5.3406    0.0000 C   0  0  0  0  0  0  0  0  0  0  0  0
   12.7764   -7.2059    0.0000 C   0  0  0  0  0  0  0  0  0  0  0  0
  1  2  1  0  0  0  0
  1  4  1  0  0  0  0
  1  8  1  0  0  0  0
  2  7  2  0  0  0  0
  2 14  1  0  0  0  0
  3  9  1  0  0  0  0
  3 11  1  0  0  0  0
  3 10  1  0  0  0  0
  4  5  1  0  0  0  0
  4  6  1  0  0  0  0
  5 10  1  0  0  0  0
  6  9  1  0  0  0  0
  8 15  1  0  0  0  0
  8 16  2  0  0  0  0
 11 12  1  0  0  0  0
 12 13  1  0  0  0  0
 13 17  1  0  0  0  0
 13 18  2  0  0  0  0
 14 19  1  0  0  0  0
 15 20  2  0  0  0  0
 16 21  1  0  0  0  0
 17 22  2  0  0  0  0
 18 23  1  0  0  0  0
 20 24  1  0  0  0  0
 21 24  2  0  0  0  0
 22 25  1  0  0  0  0
 23 25  2  0  0  0  0
M  END
> <ID>
2742

> <Formula>
C22H28N2O

> <FW>
336.4705

> <DSSTox_CID>
3049

> <DSSTox_RID>
76851

> <DSSTox_GSID>
23049

> <DSSTox_FileID_Sort>
1535

> <TS_ChemName>
Fentanyl

> <TS_ChemName_Synonyms>


> <TS_CASRN>
437-38-7

> <CASRN_ChemName_Relationship>
primary

> <TS_Description>
single chemical compound

> <ChemNote>


> <STRUCTURE_Shown>
tested chemical

> <STRUCTURE_Formula>
C22H28N2O

> <STRUCTURE_MW>
336.4705

> <STRUCTURE_ChemType>
defined organic

> <STRUCTURE_DefinedOrganicForm>
parent

> <STRUCTURE_IUPAC>
N-phenyl-N-[1-(2-phenylethyl)piperidin-4-yl]propanamide

> <STRUCTURE_SMILES>
CCC(=O)N(C2CCN(CCc1ccccc1)CC2)c3ccccc3

> <STRUCTURE_SMILES_Desalt>
CCC(=O)N(C2CCN(CCc1ccccc1)CC2)c3ccccc3

> <Substance_modify_yyyymmdd>
20080429

$$$$
