437-74-1
ChemmineR-0915142007XD

 31 32  0  0  0  0  0  0  0  0  1 V2000
    0.4698   -5.6979    0.0000 O   0  0  0  0  0  0  0  0  0  0  0  0
    1.1324   -4.5535    0.0000 C   0  0  0  0  0  0  0  0  0  0  0  0
    0.4698   -3.3971    0.0000 O   0  0  0  0  0  0  0  0  0  0  0  0
    2.4695   -4.5535    0.0000 C   0  0  0  0  0  0  0  0  0  0  0  0
    3.1200   -3.3971    0.0000 C   0  0  0  0  0  0  0  0  0  0  0  0
    4.4571   -3.3971    0.0000 C   0  0  0  0  0  0  0  0  0  0  0  0
    5.1197   -4.5535    0.0000 C   0  0  0  0  0  0  0  0  0  0  0  0
    4.4571   -5.6979    0.0000 N   0  0  0  0  0  0  0  0  0  0  0  0
    3.1200   -5.6979    0.0000 C   0  0  0  0  0  0  0  0  0  0  0  0
    0.0000   -0.3012    0.0000 O   0  0  0  0  0  0  0  0  0  0  0  0
    0.0000   -1.6263    0.0000 C   0  0  0  0  0  0  0  0  0  0  0  0
    1.1564   -2.2888    0.0000 C   0  0  0  0  0  0  0  0  0  0  0  0
    2.3008   -1.6022    0.0000 N   0  0  0  0  0  0  0  0  0  0  0  0
    2.3008   -0.2891    0.0000 C   0  0  0  0  0  0  0  0  0  0  0  0
    3.4573   -2.2888    0.0000 C   0  0  0  0  0  0  0  0  0  0  0  0
    4.6258   -1.6022    0.0000 C   0  0  0  0  0  0  0  0  0  0  0  0
    4.6258   -0.2891    0.0000 O   0  0  0  0  0  0  0  0  0  0  0  0
    5.7702   -2.2647    0.0000 C   0  0  0  0  0  0  0  0  0  0  0  0
    6.9266   -1.6022    0.0000 N   0  0  0  0  0  0  0  0  0  0  0  0
    7.0591   -0.2650    0.0000 C   0  0  0  0  0  0  0  0  0  0  0  0
    8.3601    0.0000    0.0000 N   0  0  0  0  0  0  0  0  0  0  0  0
    9.0227   -1.1564    0.0000 C   0  0  0  0  0  0  0  0  0  0  0  0
   10.3237   -1.4335    0.0000 N   0  0  0  0  0  0  0  0  0  0  0  0
   11.2031   -0.4337    0.0000 C   0  0  0  0  0  0  0  0  0  0  0  0
   10.7453   -2.6863    0.0000 C   0  0  0  0  0  0  0  0  0  0  0  0
   12.0463   -2.9634    0.0000 O   0  0  0  0  0  0  0  0  0  0  0  0
    9.8539   -3.6741    0.0000 N   0  0  0  0  0  0  0  0  0  0  0  0
   10.2635   -4.9390    0.0000 C   0  0  0  0  0  0  0  0  0  0  0  0
    8.5529   -3.3971    0.0000 C   0  0  0  0  0  0  0  0  0  0  0  0
    7.6615   -4.3969    0.0000 O   0  0  0  0  0  0  0  0  0  0  0  0
    8.1313   -2.1442    0.0000 C   0  0  0  0  0  0  0  0  0  0  0  0
  1  2  1  0  0  0  0
  2  3  2  0  0  0  0
  2  4  1  0  0  0  0
  4  5  2  0  0  0  0
  4  9  1  0  0  0  0
  5  6  1  0  0  0  0
  6  7  2  0  0  0  0
  7  8  1  0  0  0  0
  8  9  2  0  0  0  0
 10 11  1  0  0  0  0
 11 12  1  0  0  0  0
 12 13  1  0  0  0  0
 13 14  1  0  0  0  0
 13 15  1  0  0  0  0
 15 16  1  0  0  0  0
 16 17  1  0  0  0  0
 16 18  1  0  0  0  0
 18 19  1  0  0  0  0
 19 20  1  0  0  0  0
 19 31  1  0  0  0  0
 20 21  2  0  0  0  0
 21 22  1  0  0  0  0
 22 23  1  0  0  0  0
 22 31  2  0  0  0  0
 23 24  1  0  0  0  0
 23 25  1  0  0  0  0
 25 26  2  0  0  0  0
 25 27  1  0  0  0  0
 27 28  1  0  0  0  0
 27 29  1  0  0  0  0
 29 30  2  0  0  0  0
 29 31  1  0  0  0  0
M  END
> <ID>
3345

> <Formula>
C19H26N6O6

> <FW>
434.4463 (123.1094+311.3369)

> <DSSTox_CID>
3743

> <DSSTox_RID>
77178

> <DSSTox_GSID>
23743

> <DSSTox_FileID_Sort>
1861

> <TS_ChemName>
Xanthinol niacinate

> <TS_ChemName_Synonyms>


> <TS_CASRN>
437-74-1

> <CASRN_ChemName_Relationship>
primary

> <TS_Description>
single chemical compound

> <ChemNote>


> <STRUCTURE_Shown>
tested chemical

> <STRUCTURE_Formula>
C19H26N6O6

> <STRUCTURE_MW>
434.4463

> <STRUCTURE_ChemType>
defined organic

> <STRUCTURE_DefinedOrganicForm>
complex

> <STRUCTURE_IUPAC>
pyridine-3-carboxylic acid - 7-{2-hydroxy-3-[(2-hydroxyethyl)(methyl)amino]propyl}-1,3-dimethyl-3,7-dihydro-1H-purine-2,6-dione (1:1)

> <STRUCTURE_SMILES>
O=C(O)c1cccnc1.OCCN(C)CC(O)Cn2cnc1c2C(=O)N(C)C(=O)N1C

> <STRUCTURE_SMILES_Desalt>
OCCN(C)CC(O)Cn2cnc1c2C(=O)N(C)C(=O)N1C

> <Substance_modify_yyyymmdd>
20080429

$$$$
