4378-36-3
ChemmineR-0915142007XD

 27 29  0  0  0  0  0  0  0  0  1 V2000
   10.6441   -8.0672    0.0000 C   0  0  0  0  0  0  0  0  0  0  0  0
    9.9852   -6.9106    0.0000 C   0  0  0  0  0  0  0  0  0  0  0  0
   10.6441   -5.7686    0.0000 C   0  0  0  0  0  0  0  0  0  0  0  0
    9.9852   -4.6119    0.0000 C   0  0  0  0  0  0  0  0  0  0  0  0
   10.6441   -3.4553    0.0000 O   0  0  0  0  0  0  0  0  0  0  0  0
    8.6529   -4.6119    0.0000 O   0  0  0  0  0  0  0  0  0  0  0  0
    7.9794   -3.4553    0.0000 C   0  0  0  0  0  0  0  0  0  0  0  0
    6.6617   -3.4553    0.0000 C   0  0  0  0  0  0  0  0  0  0  0  0
    5.9882   -2.2987    0.0000 N   0  0  0  0  0  0  0  0  0  0  0  0
    6.6617   -1.1566    0.0000 C   0  0  0  0  0  0  0  0  0  0  0  0
    5.9882    0.0000    0.0000 C   0  0  0  0  0  0  0  0  0  0  0  0
    4.6559    0.0000    0.0000 O   0  0  0  0  0  0  0  0  0  0  0  0
    3.9970   -1.1566    0.0000 C   0  0  0  0  0  0  0  0  0  0  0  0
    4.6559   -2.2987    0.0000 C   0  0  0  0  0  0  0  0  0  0  0  0
    3.9970   -3.4553    0.0000 C   0  0  0  0  0  0  0  0  0  0  0  0
    2.6647   -1.1566    0.0000 C   0  0  0  0  0  0  0  0  0  0  0  0
    1.9912    0.0000    0.0000 C   0  0  0  0  0  0  0  0  0  0  0  0
    0.6588    0.0000    0.0000 C   0  0  0  0  0  0  0  0  0  0  0  0
    0.0000   -1.1566    0.0000 C   0  0  0  0  0  0  0  0  0  0  0  0
    0.6588   -2.2987    0.0000 C   0  0  0  0  0  0  0  0  0  0  0  0
    1.9912   -2.2987    0.0000 C   0  0  0  0  0  0  0  0  0  0  0  0
   11.9764   -5.7686    0.0000 C   0  0  0  0  0  0  0  0  0  0  0  0
   12.6499   -6.9106    0.0000 C   0  0  0  0  0  0  0  0  0  0  0  0
   13.9822   -6.9106    0.0000 C   0  0  0  0  0  0  0  0  0  0  0  0
   14.6411   -5.7686    0.0000 C   0  0  0  0  0  0  0  0  0  0  0  0
   13.9822   -4.6119    0.0000 C   0  0  0  0  0  0  0  0  0  0  0  0
   12.6499   -4.6119    0.0000 C   0  0  0  0  0  0  0  0  0  0  0  0
  1  2  1  0  0  0  0
  2  3  1  0  0  0  0
  3  4  1  0  0  0  0
  3 22  1  0  0  0  0
  4  5  2  0  0  0  0
  4  6  1  0  0  0  0
  6  7  1  0  0  0  0
  7  8  1  0  0  0  0
  8  9  1  0  0  0  0
  9 10  1  0  0  0  0
  9 14  1  0  0  0  0
 10 11  1  0  0  0  0
 11 12  1  0  0  0  0
 12 13  1  0  0  0  0
 13 14  1  0  0  0  0
 13 16  1  0  0  0  0
 14 15  1  0  0  0  0
 16 17  2  0  0  0  0
 16 21  1  0  0  0  0
 17 18  1  0  0  0  0
 18 19  2  0  0  0  0
 19 20  1  0  0  0  0
 20 21  2  0  0  0  0
 22 23  2  0  0  0  0
 22 27  1  0  0  0  0
 23 24  1  0  0  0  0
 24 25  2  0  0  0  0
 25 26  1  0  0  0  0
 26 27  2  0  0  0  0
M  END
> <ID>
16146

> <Formula>
C23H29NO3

> <FW>
367.4813

> <DSSTox_CID>
31535

> <DSSTox_RID>
97420

> <DSSTox_GSID>
57746

> <DSSTox_FileID_Sort>
8487

> <TS_ChemName>
Fenbutrazate

> <TS_ChemName_Synonyms>


> <TS_CASRN>
4378-36-3

> <CASRN_ChemName_Relationship>
primary

> <TS_Description>
single chemical compound

> <ChemNote>


> <STRUCTURE_Shown>
tested chemical

> <STRUCTURE_Formula>
C23H29NO3

> <STRUCTURE_MW>
367.4813

> <STRUCTURE_ChemType>
defined organic

> <STRUCTURE_DefinedOrganicForm>
parent

> <STRUCTURE_IUPAC>
2-(3-methyl-2-phenylmorpholin-4-yl)ethyl 2-phenylbutanoate

> <STRUCTURE_SMILES>
CCC(c1ccccc1)C(=O)OCCN2CCOC(C2C)c3ccccc3

> <STRUCTURE_SMILES_Desalt>
CCC(c1ccccc1)C(=O)OCCN2CCOC(C2C)c3ccccc3

> <Substance_modify_yyyymmdd>
20131018

$$$$
