439-14-5
ChemmineR-0915142007XD

 20 22  0  0  0  0  0  0  0  0  1 V2000
    7.3361   -1.5610    0.0000 C    0  0  0  0  0  0  0  0  0  0  0  0
    6.3979   -2.4993    0.0000 N    0  0  0  0  0  0  0  0  0  0  0  0
    5.1442   -1.9978    0.0000 C    0  0  0  0  0  0  0  0  0  0  0  0
    3.9956   -2.6611    0.0000 C    0  0  0  0  0  0  0  0  0  0  0  0
    2.8390   -1.9978    0.0000 C    0  0  0  0  0  0  0  0  0  0  0  0
    2.8390   -0.6632    0.0000 C    0  0  0  0  0  0  0  0  0  0  0  0
    3.9956    0.0000    0.0000 C    0  0  0  0  0  0  0  0  0  0  0  0
    5.1442   -0.6632    0.0000 C    0  0  0  0  0  0  0  0  0  0  0  0
    1.6905    0.0000    0.0000 Cl   0  0  0  0  0  0  0  0  0  0  0  0
    3.7772   -3.9956    0.0000 C    0  0  0  0  0  0  0  0  0  0  0  0
    4.7155   -4.9339    0.0000 N    0  0  0  0  0  0  0  0  0  0  0  0
    6.0258   -4.8530    0.0000 C    0  0  0  0  0  0  0  0  0  0  0  0
    6.7699   -3.7530    0.0000 C    0  0  0  0  0  0  0  0  0  0  0  0
    8.0883   -3.9552    0.0000 O    0  0  0  0  0  0  0  0  0  0  0  0
    2.5074   -4.3839    0.0000 C    0  0  0  0  0  0  0  0  0  0  0  0
    2.2243   -5.6618    0.0000 C    0  0  0  0  0  0  0  0  0  0  0  0
    0.9382   -6.0743    0.0000 C    0  0  0  0  0  0  0  0  0  0  0  0
    0.0000   -5.1361    0.0000 C    0  0  0  0  0  0  0  0  0  0  0  0
    0.2750   -3.8581    0.0000 C    0  0  0  0  0  0  0  0  0  0  0  0
    1.5691   -3.4456    0.0000 C    0  0  0  0  0  0  0  0  0  0  0  0
  1  2  1  0  0  0  0
  2  3  1  0  0  0  0
  2 13  1  0  0  0  0
  3  4  2  0  0  0  0
  3  8  1  0  0  0  0
  4  5  1  0  0  0  0
  4 10  1  0  0  0  0
  5  6  2  0  0  0  0
  6  7  1  0  0  0  0
  6  9  1  0  0  0  0
  7  8  2  0  0  0  0
 10 11  2  0  0  0  0
 10 15  1  0  0  0  0
 11 12  1  0  0  0  0
 12 13  1  0  0  0  0
 13 14  2  0  0  0  0
 15 16  2  0  0  0  0
 15 20  1  0  0  0  0
 16 17  1  0  0  0  0
 17 18  2  0  0  0  0
 18 19  1  0  0  0  0
 19 20  2  0  0  0  0
M  END
> <ID>
391

> <Formula>
C16H13ClN2O

> <FW>
284.7402

> <DSSTox_CID>
406

> <DSSTox_RID>
75566

> <DSSTox_GSID>
20406

> <DSSTox_FileID_Sort>
250

> <TS_ChemName>
Diazepam

> <TS_ChemName_Synonyms>


> <TS_CASRN>
439-14-5

> <CASRN_ChemName_Relationship>
primary

> <TS_Description>
single chemical compound

> <ChemNote>


> <STRUCTURE_Shown>
tested chemical

> <STRUCTURE_Formula>
C16H13ClN2O

> <STRUCTURE_MW>
284.7402

> <STRUCTURE_ChemType>
defined organic

> <STRUCTURE_DefinedOrganicForm>
parent

> <STRUCTURE_IUPAC>
7-chloro-1-methyl-5-phenyl-1,3-dihydro-2H-1,4-benzodiazepin-2-one

> <STRUCTURE_SMILES>
Clc1ccc2c(c1)C(=NCC(=O)N2C)c3ccccc3

> <STRUCTURE_SMILES_Desalt>
Clc1ccc2c(c1)C(=NCC(=O)N2C)c3ccccc3

> <Substance_modify_yyyymmdd>
20080429

$$$$
