4394-04-1
ChemmineR-0915142007XD

 18 19  0  0  0  0  0  0  0  0  1 V2000
    4.6224    0.0000    0.0000 O   0  0  0  0  0  0  0  0  0  0  0  0
    5.7728   -0.6584    0.0000 C   0  0  0  0  0  0  0  0  0  0  0  0
    5.7728   -1.9889    0.0000 C   0  0  0  0  0  0  0  0  0  0  0  0
    6.9301   -2.6611    0.0000 C   0  0  0  0  0  0  0  0  0  0  0  0
    6.9301   -3.9917    0.0000 C   0  0  0  0  0  0  0  0  0  0  0  0
    5.7728   -4.6362    0.0000 C   0  0  0  0  0  0  0  0  0  0  0  0
    4.6224   -3.9917    0.0000 N   0  0  0  0  0  0  0  0  0  0  0  0
    4.6224   -2.6611    0.0000 C   0  0  0  0  0  0  0  0  0  0  0  0
    3.4650   -1.9889    0.0000 N   0  0  0  0  0  0  0  0  0  0  0  0
    2.3077   -2.6611    0.0000 C   0  0  0  0  0  0  0  0  0  0  0  0
    2.3077   -3.9917    0.0000 C   0  0  0  0  0  0  0  0  0  0  0  0
    1.1573   -4.6362    0.0000 C   0  0  0  0  0  0  0  0  0  0  0  0
    0.0000   -3.9917    0.0000 C   0  0  0  0  0  0  0  0  0  0  0  0
    0.0000   -2.6611    0.0000 C   0  0  0  0  0  0  0  0  0  0  0  0
    1.1573   -1.9889    0.0000 C   0  0  0  0  0  0  0  0  0  0  0  0
    1.1573   -0.6584    0.0000 C   0  0  0  0  0  0  0  0  0  0  0  0
    6.9301    0.0000    0.0000 O   0  0  0  0  0  0  0  0  0  0  0  0
    3.4650   -4.6362    0.0000 C   0  0  0  0  0  0  0  0  0  0  0  0
  1  2  2  0  0  0  0
  2  3  1  0  0  0  0
  2 17  1  0  0  0  0
  3  4  2  0  0  0  0
  3  8  1  0  0  0  0
  4  5  1  0  0  0  0
  5  6  2  0  0  0  0
  6  7  1  0  0  0  0
  7  8  2  0  0  0  0
  8  9  1  0  0  0  0
  9 10  1  0  0  0  0
 10 11  2  0  0  0  0
 10 15  1  0  0  0  0
 11 12  1  0  0  0  0
 11 18  1  0  0  0  0
 12 13  2  0  0  0  0
 13 14  1  0  0  0  0
 14 15  2  0  0  0  0
 15 16  1  0  0  0  0
M  END
> <ID>
11134

> <Formula>
C14H14N2O2

> <FW>
242.2732

> <DSSTox_CID>
25693

> <DSSTox_RID>
81065

> <DSSTox_GSID>
45693

> <DSSTox_FileID_Sort>
5746

> <TS_ChemName>
Metanixin

> <TS_ChemName_Synonyms>


> <TS_CASRN>
4394-04-1

> <CASRN_ChemName_Relationship>
primary

> <TS_Description>
single chemical compound

> <ChemNote>


> <STRUCTURE_Shown>
tested chemical

> <STRUCTURE_Formula>
C14H14N2O2

> <STRUCTURE_MW>
242.2732

> <STRUCTURE_ChemType>
defined organic

> <STRUCTURE_DefinedOrganicForm>
parent

> <STRUCTURE_IUPAC>
2-[(2,6-dimethylphenyl)amino]pyridine-3-carboxylic acid

> <STRUCTURE_SMILES>
O=C(O)c2cccnc2Nc1c(C)cccc1C

> <STRUCTURE_SMILES_Desalt>
O=C(O)c2cccnc2Nc1c(C)cccc1C

> <Substance_modify_yyyymmdd>
20110819

$$$$
