4394-85-8
ChemmineR-0915142007XD

  8  8  0  0  0  0  0  0  0  0  1 V2000
    2.6542   -1.1554    0.0000 N   0  0  0  0  0  0  0  0  0  0  0  0
    0.0000   -1.1554    0.0000 O   0  0  0  0  0  0  0  0  0  0  0  0
    1.9860   -2.3062    0.0000 C   0  0  0  0  0  0  0  0  0  0  0  0
    1.9860    0.0000    0.0000 C   0  0  0  0  0  0  0  0  0  0  0  0
    0.6543    0.0000    0.0000 C   0  0  0  0  0  0  0  0  0  0  0  0
    0.6543   -2.3062    0.0000 C   0  0  0  0  0  0  0  0  0  0  0  0
    3.9859   -1.1554    0.0000 C   0  0  0  0  0  0  0  0  0  0  0  0
    4.6402    0.0000    0.0000 O   0  0  0  0  0  0  0  0  0  0  0  0
  1  3  1  0  0  0  0
  1  4  1  0  0  0  0
  1  7  1  0  0  0  0
  2  5  1  0  0  0  0
  2  6  1  0  0  0  0
  3  6  1  0  0  0  0
  4  5  1  0  0  0  0
  7  8  2  0  0  0  0
M  END
> <ID>
10084

> <Formula>
C5H9NO2

> <FW>
115.1305

> <DSSTox_CID>
24427

> <DSSTox_RID>
80219

> <DSSTox_GSID>
44427

> <DSSTox_FileID_Sort>
4901

> <TS_ChemName>
4-Morpholinecarboxaldehyde

> <TS_ChemName_Synonyms>


> <TS_CASRN>
4394-85-8

> <CASRN_ChemName_Relationship>
primary

> <TS_Description>
single chemical compound

> <ChemNote>


> <STRUCTURE_Shown>
tested chemical

> <STRUCTURE_Formula>
C5H9NO2

> <STRUCTURE_MW>
115.1305

> <STRUCTURE_ChemType>
defined organic

> <STRUCTURE_DefinedOrganicForm>
parent

> <STRUCTURE_IUPAC>
morpholine-4-carbaldehyde

> <STRUCTURE_SMILES>
O=CN1CCOCC1

> <STRUCTURE_SMILES_Desalt>
O=CN1CCOCC1

> <Substance_modify_yyyymmdd>
20091116

$$$$
