439687-69-1
ChemmineR-0915142007XD

 43 47  0  0  1  0  0  0  0  0  1 V2000
    3.5675   -5.3695    0.0000 C    0  0  0  0  0  0  0  0  0  0  0  0
    3.5675   -6.6723    0.0000 C    0  0  0  0  0  0  0  0  0  0  0  0
    2.4351   -4.7120    0.0000 C    0  0  0  0  0  0  0  0  0  0  0  0
    2.4351   -7.3176    0.0000 C    0  0  0  0  0  0  0  0  0  0  0  0
    1.3028   -5.3695    0.0000 C    0  0  0  0  0  0  0  0  0  0  0  0
    1.3028   -6.6723    0.0000 C    0  0  0  0  0  0  0  0  0  0  0  0
    4.7972   -4.9555    0.0000 C    0  0  0  0  0  0  0  0  0  0  0  0
    5.5643   -6.0148    0.0000 C    0  0  0  0  0  0  0  0  0  0  0  0
    4.7972   -7.0619    0.0000 N    0  0  0  0  0  0  0  0  0  0  0  0
    6.0148   -4.4685    0.0000 N    0  0  0  0  0  0  0  0  0  0  0  0
    6.3192   -3.2144    0.0000 C    0  0  0  0  0  0  0  0  0  0  0  0
    7.1106   -5.1747    0.0000 C    0  0  0  0  0  0  0  0  0  0  0  0
    7.6098   -3.1170    0.0000 C    0  0  0  0  0  0  0  0  0  0  0  0
    8.0968   -4.3467    0.0000 C    0  0  0  0  0  0  0  0  0  0  0  0
    2.9952   -0.4261    0.0000 C    0  0  0  0  0  0  0  0  0  0  0  0
    3.7379   -1.4733    0.0000 C    0  0  0  0  0  0  0  0  0  0  0  0
    1.7046   -0.4992    0.0000 C    0  0  0  0  0  0  0  0  0  0  0  0
    3.1657   -2.6665    0.0000 C    0  0  0  0  0  0  0  0  0  0  0  0
    1.1445   -1.6802    0.0000 C    0  0  0  0  0  0  0  0  0  0  0  0
    1.8629   -2.7639    0.0000 C    0  0  0  0  0  0  0  0  0  0  0  0
    1.3028   -3.9206    0.0000 O    0  0  0  0  0  0  0  0  0  0  0  0
    0.0000   -4.0301    0.0000 C    0  0  0  0  0  0  0  0  0  0  0  0
    0.1705   -4.7120    0.0000 Cl   0  0  0  0  0  0  0  0  0  0  0  0
    6.8671   -6.0148    0.0000 O    0  0  0  0  0  0  0  0  0  0  0  0
    5.1990   -8.3038    0.0000 S    0  0  0  0  0  0  0  0  0  0  0  0
    6.4775   -8.5717    0.0000 O    0  0  0  0  0  0  0  0  0  0  0  0
    6.0757   -7.3297    0.0000 O    0  0  0  0  0  0  0  0  0  0  0  0
    4.3345   -9.2779    0.0000 C    0  0  0  0  0  0  0  0  0  0  0  0
    4.7363  -10.5076    0.0000 C    0  0  0  0  0  0  0  0  0  0  0  0
    3.0561   -9.0100    0.0000 C    0  0  0  0  0  0  0  0  0  0  0  0
    3.8597  -11.4695    0.0000 C    0  0  0  0  0  0  0  0  0  0  0  0
    2.1794   -9.9597    0.0000 C    0  0  0  0  0  0  0  0  0  0  0  0
    2.5934  -11.2016    0.0000 C    0  0  0  0  0  0  0  0  0  0  0  0
    2.6543   -7.7681    0.0000 O    0  0  0  0  0  0  0  0  0  0  0  0
    1.3758   -7.5124    0.0000 C    0  0  0  0  0  0  0  0  0  0  0  0
    1.7046  -12.1757    0.0000 O    0  0  0  0  0  0  0  0  0  0  0  0
    0.4383  -11.9078    0.0000 C    0  0  0  0  0  0  0  0  0  0  0  0
    9.3509   -4.6389    0.0000 O    0  0  0  0  0  0  0  0  0  0  0  0
    5.4790   -2.2281    0.0000 C    0  0  0  0  0  0  0  0  0  0  0  0
    5.9174   -0.9862    0.0000 N    0  0  0  0  0  0  0  0  0  0  0  0
    4.4441   -2.6056    0.0000 O    0  0  0  0  0  0  0  0  0  0  0  0
    7.2202   -0.7671    0.0000 C    0  0  0  0  0  0  0  0  0  0  0  0
    5.1016    0.0000    0.0000 C    0  0  0  0  0  0  0  0  0  0  0  0
  1  3  2  0  0  0  0
  1  7  1  0  0  0  0
  1  2  1  0  0  0  0
  2  4  2  0  0  0  0
  2  9  1  0  0  0  0
  3  5  1  0  0  0  0
  4  6  1  0  0  0  0
  5  6  2  0  0  0  0
  5 23  1  0  0  0  0
  7  8  1  0  0  0  0
  7 10  1  0  0  0  0
  7 18  1  1  0  0  0
  8  9  1  0  0  0  0
  8 24  2  0  0  0  0
  9 25  1  0  0  0  0
 10 11  1  0  0  0  0
 10 12  1  0  0  0  0
 11 13  1  0  0  0  0
 11 39  1  6  0  0  0
 12 14  1  0  0  0  0
 13 14  1  0  0  0  0
 14 38  1  1  0  0  0
 15 16  1  0  0  0  0
 15 17  2  0  0  0  0
 16 18  2  0  0  0  0
 17 19  1  0  0  0  0
 18 20  1  0  0  0  0
 19 20  2  0  0  0  0
 20 21  1  0  0  0  0
 21 22  1  0  0  0  0
 25 26  2  0  0  0  0
 25 27  2  0  0  0  0
 25 28  1  0  0  0  0
 28 29  1  0  0  0  0
 28 30  2  0  0  0  0
 29 31  2  0  0  0  0
 30 32  1  0  0  0  0
 30 34  1  0  0  0  0
 31 33  1  0  0  0  0
 32 33  2  0  0  0  0
 33 36  1  0  0  0  0
 34 35  1  0  0  0  0
 36 37  1  0  0  0  0
 39 40  1  0  0  0  0
 39 41  2  0  0  0  0
 40 42  1  0  0  0  0
 40 43  1  0  0  0  0
M  END
> <ID>
12500

> <Formula>
C30H32ClN3O8S

> <FW>
630.1084

> <DSSTox_CID>
27358

> <DSSTox_RID>
82294

> <DSSTox_GSID>
47358

> <DSSTox_FileID_Sort>
6975

> <TS_ChemName>
Nelivaptan

> <TS_ChemName_Synonyms>
SSR149415

> <TS_CASRN>
439687-69-1

> <CASRN_ChemName_Relationship>
primary

> <TS_Description>
single chemical compound

> <ChemNote>
stereochem

> <STRUCTURE_Shown>
tested chemical

> <STRUCTURE_Formula>
C30H32ClN3O8S

> <STRUCTURE_MW>
630.1084

> <STRUCTURE_ChemType>
defined organic

> <STRUCTURE_DefinedOrganicForm>
parent

> <STRUCTURE_IUPAC>
(4R)-1-[(3R)-5-chloro-1-[(2,4-dimethoxyphenyl)sulfonyl]-3-(2-methoxyphenyl)-2-oxo-2,3-dihydro-1H-indol-3-yl]-4-hydroxy-N,N-dimethyl-L-prolinamide

> <STRUCTURE_SMILES>
CN(C)C(=O)[C@@H]1C[C@@H](O)CN1[C@]3(c2cc(Cl)ccc2N(C3=O)S(=O)(=O)c4ccc(OC)cc4OC)c5ccccc5OC

> <STRUCTURE_SMILES_Desalt>
CN(C)C(=O)[C@@H]1C[C@@H](O)CN1[C@]3(c2cc(Cl)ccc2N(C3=O)S(=O)(=O)c4ccc(OC)cc4OC)c5ccccc5OC

> <Substance_modify_yyyymmdd>
20130910

$$$$
