440-17-5
ChemmineR-0915142007XD

 30 31  0  0  0  0  0  0  0  0  1 V2000
    6.9206   -3.9800    0.0000 N    0  0  0  0  0  0  0  0  0  0  0  0
    8.0740   -4.6391    0.0000 C    0  0  0  0  0  0  0  0  0  0  0  0
    6.9206   -6.6417    0.0000 S    0  0  0  0  0  0  0  0  0  0  0  0
   11.5216   -3.9800    0.0000 C    0  0  0  0  0  0  0  0  0  0  0  0
    8.0740   -5.9699    0.0000 C    0  0  0  0  0  0  0  0  0  0  0  0
    5.7545   -4.6391    0.0000 C    0  0  0  0  0  0  0  0  0  0  0  0
    5.7545   -5.9699    0.0000 C    0  0  0  0  0  0  0  0  0  0  0  0
    9.2147   -3.9800    0.0000 C    0  0  0  0  0  0  0  0  0  0  0  0
   10.3682   -4.6391    0.0000 C    0  0  0  0  0  0  0  0  0  0  0  0
    3.4603   -1.9773    0.0000 N    0  0  0  0  0  0  0  0  0  0  0  0
    1.1534   -0.6464    0.0000 N    0  0  0  0  0  0  0  0  0  0  0  0
    9.2147   -6.6417    0.0000 C    0  0  0  0  0  0  0  0  0  0  0  0
   10.3682   -5.9699    0.0000 C    0  0  0  0  0  0  0  0  0  0  0  0
   12.6750   -3.3082    0.0000 F    0  0  0  0  0  0  0  0  0  0  0  0
   12.1934   -5.1207    0.0000 F    0  0  0  0  0  0  0  0  0  0  0  0
   10.8625   -2.8265    0.0000 F    0  0  0  0  0  0  0  0  0  0  0  0
    6.9206   -2.6491    0.0000 C    0  0  0  0  0  0  0  0  0  0  0  0
    2.3069    0.0000    0.0000 C    0  0  0  0  0  0  0  0  0  0  0  0
    1.1534   -1.9773    0.0000 C    0  0  0  0  0  0  0  0  0  0  0  0
    3.4603   -0.6464    0.0000 C    0  0  0  0  0  0  0  0  0  0  0  0
    2.3069   -2.6491    0.0000 C    0  0  0  0  0  0  0  0  0  0  0  0
    5.7545   -1.9773    0.0000 C    0  0  0  0  0  0  0  0  0  0  0  0
    4.6010   -2.6491    0.0000 C    0  0  0  0  0  0  0  0  0  0  0  0
    4.6010   -3.9800    0.0000 C    0  0  0  0  0  0  0  0  0  0  0  0
    4.6010   -6.6417    0.0000 C    0  0  0  0  0  0  0  0  0  0  0  0
    0.0000    0.0000    0.0000 C    0  0  0  0  0  0  0  0  0  0  0  0
    3.4603   -4.6391    0.0000 C    0  0  0  0  0  0  0  0  0  0  0  0
    3.4603   -5.9699    0.0000 C    0  0  0  0  0  0  0  0  0  0  0  0
    7.0093   -0.1141    0.0000 Cl   0  0  0  0  0  0  0  0  0  0  0  0
   10.0640   -0.0634    0.0000 Cl   0  0  0  0  0  0  0  0  0  0  0  0
  1  2  1  0  0  0  0
  1  6  1  0  0  0  0
  1 17  1  0  0  0  0
  2  5  2  0  0  0  0
  2  8  1  0  0  0  0
  3  7  1  0  0  0  0
  3  5  1  0  0  0  0
  4  9  1  0  0  0  0
  4 14  1  0  0  0  0
  4 15  1  0  0  0  0
  4 16  1  0  0  0  0
  5 12  1  0  0  0  0
  6  7  2  0  0  0  0
  6 24  1  0  0  0  0
  7 25  1  0  0  0  0
  8  9  2  0  0  0  0
  9 13  1  0  0  0  0
 10 23  1  0  0  0  0
 10 20  1  0  0  0  0
 10 21  1  0  0  0  0
 11 19  1  0  0  0  0
 11 26  1  0  0  0  0
 11 18  1  0  0  0  0
 12 13  2  0  0  0  0
 17 22  1  0  0  0  0
 18 20  1  0  0  0  0
 19 21  1  0  0  0  0
 22 23  1  0  0  0  0
 24 27  2  0  0  0  0
 25 28  2  0  0  0  0
 27 28  1  0  0  0  0
M  END
> <ID>
10729

> <Formula>
C21H26Cl2F3N3S

> <FW>
480.4174 (407.4956+36.4609+36.4609)

> <DSSTox_CID>
25085

> <DSSTox_RID>
80660

> <DSSTox_GSID>
45085

> <DSSTox_FileID_Sort>
5342

> <TS_ChemName>
Fluoperazine dihydrochloride

> <TS_ChemName_Synonyms>


> <TS_CASRN>
440-17-5

> <CASRN_ChemName_Relationship>
primary

> <TS_Description>
single chemical compound

> <ChemNote>
parent [117-89-5]

> <STRUCTURE_Shown>
tested chemical

> <STRUCTURE_Formula>
C21H26Cl2F3N3S

> <STRUCTURE_MW>
480.4174

> <STRUCTURE_ChemType>
defined organic

> <STRUCTURE_DefinedOrganicForm>
complex

> <STRUCTURE_IUPAC>
10-[3-(4-methylpiperazin-1-yl)propyl]-2-(trifluoromethyl)-10H-phenothiazine dihydrochloride

> <STRUCTURE_SMILES>
Cl.Cl.FC(F)(F)c2cc3N(CCCN1CCN(C)CC1)c4ccccc4Sc3cc2

> <STRUCTURE_SMILES_Desalt>
FC(F)(F)c2cc3N(CCCN1CCN(C)CC1)c4ccccc4Sc3cc2

> <Substance_modify_yyyymmdd>
20100107

$$$$
