440-58-4
ChemmineR-0915142007XD

 21 21  0  0  0  0  0  0  0  0  1 V2000
    5.3177   -5.7601    0.0000 C   0  0  0  0  0  0  0  0  0  0  0  0
    5.9905   -6.9121    0.0000 I   0  0  0  0  0  0  0  0  0  0  0  0
    3.9906   -5.7601    0.0000 C   0  0  0  0  0  0  0  0  0  0  0  0
    3.3270   -6.9121    0.0000 C   0  0  0  0  0  0  0  0  0  0  0  0
    1.9999   -6.9121    0.0000 N   0  0  0  0  0  0  0  0  0  0  0  0
    1.3271   -8.0641    0.0000 C   0  0  0  0  0  0  0  0  0  0  0  0
    1.9999   -9.2161    0.0000 C   0  0  0  0  0  0  0  0  0  0  0  0
    0.0000   -8.0641    0.0000 O   0  0  0  0  0  0  0  0  0  0  0  0
    3.3270   -4.6081    0.0000 C   0  0  0  0  0  0  0  0  0  0  0  0
    1.9999   -4.6081    0.0000 I   0  0  0  0  0  0  0  0  0  0  0  0
    3.9906   -3.4560    0.0000 C   0  0  0  0  0  0  0  0  0  0  0  0
    3.3270   -2.3040    0.0000 N   0  0  0  0  0  0  0  0  0  0  0  0
    3.9906   -1.1520    0.0000 C   0  0  0  0  0  0  0  0  0  0  0  0
    3.3270    0.0000    0.0000 C   0  0  0  0  0  0  0  0  0  0  0  0
    5.3177   -1.1520    0.0000 O   0  0  0  0  0  0  0  0  0  0  0  0
    5.3177   -3.4560    0.0000 C   0  0  0  0  0  0  0  0  0  0  0  0
    5.9905   -2.3040    0.0000 I   0  0  0  0  0  0  0  0  0  0  0  0
    5.9905   -4.6081    0.0000 C   0  0  0  0  0  0  0  0  0  0  0  0
    7.3176   -4.6081    0.0000 C   0  0  0  0  0  0  0  0  0  0  0  0
    7.9812   -3.4560    0.0000 O   0  0  0  0  0  0  0  0  0  0  0  0
    7.9812   -5.7601    0.0000 O   0  0  0  0  0  0  0  0  0  0  0  0
  1  2  1  0  0  0  0
  1  3  2  0  0  0  0
  1 18  1  0  0  0  0
  3  4  1  0  0  0  0
  3  9  1  0  0  0  0
  4  5  1  0  0  0  0
  5  6  1  0  0  0  0
  6  7  1  0  0  0  0
  6  8  2  0  0  0  0
  9 10  1  0  0  0  0
  9 11  2  0  0  0  0
 11 12  1  0  0  0  0
 11 16  1  0  0  0  0
 12 13  1  0  0  0  0
 13 14  1  0  0  0  0
 13 15  2  0  0  0  0
 16 17  1  0  0  0  0
 16 18  2  0  0  0  0
 18 19  1  0  0  0  0
 19 20  1  0  0  0  0
 19 21  2  0  0  0  0
M  END
> <ID>
2828

> <Formula>
C12H11I3N2O4

> <FW>
627.9402

> <DSSTox_CID>
3150

> <DSSTox_RID>
76892

> <DSSTox_GSID>
23150

> <DSSTox_FileID_Sort>
1576

> <TS_ChemName>
Iodamide

> <TS_ChemName_Synonyms>


> <TS_CASRN>
440-58-4

> <CASRN_ChemName_Relationship>
primary

> <TS_Description>
single chemical compound

> <ChemNote>


> <STRUCTURE_Shown>
tested chemical

> <STRUCTURE_Formula>
C12H11I3N2O4

> <STRUCTURE_MW>
627.9402

> <STRUCTURE_ChemType>
defined organic

> <STRUCTURE_DefinedOrganicForm>
parent

> <STRUCTURE_IUPAC>
3-(acetylamino)-5-[(acetylamino)methyl]-2,4,6-triiodobenzoic acid

> <STRUCTURE_SMILES>
O=C(C)Nc1c(I)c(c(I)c(CNC(C)=O)c1I)C(=O)O

> <STRUCTURE_SMILES_Desalt>
O=C(C)Nc1c(I)c(c(I)c(CNC(C)=O)c1I)C(=O)O

> <Substance_modify_yyyymmdd>
20080429

$$$$
