4419-39-0
ChemmineR-0915142007XD

 30 33  0  0  1  0  0  0  0  0  1 V2000
    6.9647   -3.3323    0.0000 C    0  0  0  0  0  0  0  0  0  0  0  0
    4.6569   -4.6776    0.0000 C    0  0  0  0  0  0  0  0  0  0  0  0
    3.4979   -5.3399    0.0000 C    0  0  0  0  0  0  0  0  0  0  0  0
    6.9647   -4.6776    0.0000 C    0  0  0  0  0  0  0  0  0  0  0  0
    5.8056   -5.3399    0.0000 C    0  0  0  0  0  0  0  0  0  0  0  0
    8.2376   -2.9183    0.0000 C    0  0  0  0  0  0  0  0  0  0  0  0
    3.4979   -6.6853    0.0000 C    0  0  0  0  0  0  0  0  0  0  0  0
    4.6569   -3.3323    0.0000 C    0  0  0  0  0  0  0  0  0  0  0  0
    5.8056   -2.6803    0.0000 C    0  0  0  0  0  0  0  0  0  0  0  0
    9.0241   -4.0049    0.0000 C    0  0  0  0  0  0  0  0  0  0  0  0
    2.3595   -4.6776    0.0000 C    0  0  0  0  0  0  0  0  0  0  0  0
    8.2376   -5.0709    0.0000 C    0  0  0  0  0  0  0  0  0  0  0  0
    2.3595   -7.3579    0.0000 C    0  0  0  0  0  0  0  0  0  0  0  0
    8.5894   -1.6351    0.0000 C    0  0  0  0  0  0  0  0  0  0  0  0
    5.8056   -6.6853    0.0000 C    0  0  0  0  0  0  0  0  0  0  0  0
    1.2004   -5.3399    0.0000 C    0  0  0  0  0  0  0  0  0  0  0  0
    1.2004   -6.6853    0.0000 C    0  0  0  0  0  0  0  0  0  0  0  0
    4.6569   -7.3579    0.0000 C    0  0  0  0  0  0  0  0  0  0  0  0
    4.6362   -5.7849    0.0000 Cl   0  0  0  0  0  0  0  0  0  0  0  0
    7.6373   -0.6727    0.0000 O    0  0  0  0  0  0  0  0  0  0  0  0
    0.0000   -7.3579    0.0000 O    0  0  0  0  0  0  0  0  0  0  0  0
    9.5622   -2.9183    0.0000 O    0  0  0  0  0  0  0  0  0  0  0  0
    6.9647   -1.9870    0.0000 C    0  0  0  0  0  0  0  0  0  0  0  0
    3.4772   -2.6389    0.0000 O    0  0  0  0  0  0  0  0  0  0  0  0
    3.4979   -4.0049    0.0000 C    0  0  0  0  0  0  0  0  0  0  0  0
   10.3487   -4.0049    0.0000 C    0  0  0  0  0  0  0  0  0  0  0  0
    9.8623   -1.2936    0.0000 C    0  0  0  0  0  0  0  0  0  0  0  0
   10.2142    0.0000    0.0000 O    0  0  0  0  0  0  0  0  0  0  0  0
    5.8056   -4.0049    0.0000 H    0  0  0  0  0  0  0  0  0  0  0  0
    6.9647   -6.0126    0.0000 H    0  0  0  0  0  0  0  0  0  0  0  0
  1  4  1  0  0  0  0
  1  6  1  0  0  0  0
  1  9  1  0  0  0  0
  1 23  1  1  0  0  0
  2  8  1  0  0  0  0
  2  3  1  0  0  0  0
  2 19  1  6  0  0  0
  2  5  1  0  0  0  0
  3  7  1  0  0  0  0
  3 11  1  0  0  0  0
  3 25  1  1  0  0  0
  4  5  1  0  0  0  0
  4 12  1  0  0  0  0
  4 30  1  6  0  0  0
  5 15  1  0  0  0  0
  5 29  1  1  0  0  0
  6 10  1  0  0  0  0
  6 14  1  1  0  0  0
  6 22  1  6  0  0  0
  7 13  2  0  0  0  0
  7 18  1  0  0  0  0
  8  9  1  0  0  0  0
  8 24  1  1  0  0  0
 10 26  1  1  0  0  0
 10 12  1  0  0  0  0
 11 16  2  0  0  0  0
 13 17  1  0  0  0  0
 14 20  2  0  0  0  0
 14 27  1  0  0  0  0
 15 18  1  0  0  0  0
 16 17  1  0  0  0  0
 17 21  2  0  0  0  0
 27 28  1  0  0  0  0
M  END
> <ID>
7943

> <Formula>
C22H29ClO5

> <FW>
408.9157

> <DSSTox_CID>
20750

> <DSSTox_RID>
79587

> <DSSTox_GSID>
40750

> <DSSTox_FileID_Sort>
4269

> <TS_ChemName>
Beclomethasone

> <TS_ChemName_Synonyms>


> <TS_CASRN>
4419-39-0

> <CASRN_ChemName_Relationship>
primary

> <TS_Description>
single chemical compound

> <ChemNote>
stereochem

> <STRUCTURE_Shown>
tested chemical

> <STRUCTURE_Formula>
C22H29ClO5

> <STRUCTURE_MW>
408.9157

> <STRUCTURE_ChemType>
defined organic

> <STRUCTURE_DefinedOrganicForm>
parent

> <STRUCTURE_IUPAC>
(11beta,16beta)-9-chloro-11,17,21-trihydroxy-16-methylpregna-1,4-diene-3,20-dione

> <STRUCTURE_SMILES>
OCC(=O)[C@@]4(O)[C@@H](C)C[C@@H]3[C@]4(C)C[C@H](O)[C@@]2(Cl)[C@H]3CCC1=CC(=O)C=C[C@@]12C

> <STRUCTURE_SMILES_Desalt>
OCC(=O)[C@@]4(O)[C@@H](C)C[C@@H]3[C@]4(C)C[C@H](O)[C@@]2(Cl)[C@H]3CCC1=CC(=O)C=C[C@@]12C

> <Substance_modify_yyyymmdd>
20080429

$$$$
