4420-74-0
ChemmineR-0915142007XD

 11 10  0  0  0  0  0  0  0  0  1 V2000
    1.1541   -1.6516    0.0000 C    0  0  0  0  0  0  0  0  0  0  0  0
    2.3082   -2.3082    0.0000 C    0  0  0  0  0  0  0  0  0  0  0  0
    3.4622   -1.6516    0.0000 C    0  0  0  0  0  0  0  0  0  0  0  0
    0.0000   -2.3082    0.0000 S    0  0  0  0  0  0  0  0  0  0  0  0
    4.6025   -2.3082    0.0000 Si   0  0  0  0  0  0  0  0  0  0  0  0
    5.2728   -1.1541    0.0000 O    0  0  0  0  0  0  0  0  0  0  0  0
    4.6025    0.0000    0.0000 C    0  0  0  0  0  0  0  0  0  0  0  0
    3.9253   -3.4622    0.0000 O    0  0  0  0  0  0  0  0  0  0  0  0
    4.6025   -4.6163    0.0000 C    0  0  0  0  0  0  0  0  0  0  0  0
    5.7566   -2.9647    0.0000 O    0  0  0  0  0  0  0  0  0  0  0  0
    6.9107   -2.3082    0.0000 C    0  0  0  0  0  0  0  0  0  0  0  0
  1  2  1  0  0  0  0
  1  4  1  0  0  0  0
  2  3  1  0  0  0  0
  3  5  1  0  0  0  0
  5  6  1  0  0  0  0
  5  8  1  0  0  0  0
  5 10  1  0  0  0  0
  6  7  1  0  0  0  0
  8  9  1  0  0  0  0
 10 11  1  0  0  0  0
M  END
> <ID>
10085

> <Formula>
C6H16O3SSi

> <FW>
196.3399

> <DSSTox_CID>
24428

> <DSSTox_RID>
80220

> <DSSTox_GSID>
44428

> <DSSTox_FileID_Sort>
4902

> <TS_ChemName>
3-Mercaptopropyltrimethoxysilane

> <TS_ChemName_Synonyms>
1-Propanethiol, 3-(trimethoxysilyl)-

> <TS_CASRN>
4420-74-0

> <CASRN_ChemName_Relationship>
primary

> <TS_Description>
single chemical compound

> <ChemNote>


> <STRUCTURE_Shown>
tested chemical

> <STRUCTURE_Formula>
C6H16O3SSi

> <STRUCTURE_MW>
196.3399

> <STRUCTURE_ChemType>
organometallic

> <STRUCTURE_DefinedOrganicForm>


> <STRUCTURE_IUPAC>
3-(trimethoxysilyl)propane-1-thiol

> <STRUCTURE_SMILES>
CO[Si](CCCS)(OC)OC

> <STRUCTURE_SMILES_Desalt>
CO[Si](CCCS)(OC)OC

> <Substance_modify_yyyymmdd>
20091116

$$$$
