4422-95-1
ChemmineR-0915142007XD

 15 15  0  0  0  0  0  0  0  0  1 V2000
    6.9178   -1.9992    0.0000 Cl   0  0  0  0  0  0  0  0  0  0  0  0
    1.1484    0.0000    0.0000 Cl   0  0  0  0  0  0  0  0  0  0  0  0
    2.3036   -5.9770    0.0000 Cl   0  0  0  0  0  0  0  0  0  0  0  0
    3.4520   -3.9777    0.0000 C    0  0  0  0  0  0  0  0  0  0  0  0
    4.6142   -3.3275    0.0000 C    0  0  0  0  0  0  0  0  0  0  0  0
    4.6003   -1.9992    0.0000 C    0  0  0  0  0  0  0  0  0  0  0  0
    3.4520   -1.3282    0.0000 C    0  0  0  0  0  0  0  0  0  0  0  0
    2.3036   -1.9992    0.0000 C    0  0  0  0  0  0  0  0  0  0  0  0
    2.3175   -3.3275    0.0000 C    0  0  0  0  0  0  0  0  0  0  0  0
    3.4520   -5.3198    0.0000 C    0  0  0  0  0  0  0  0  0  0  0  0
    4.6142   -5.9770    0.0000 O    0  0  0  0  0  0  0  0  0  0  0  0
    1.1484   -1.3282    0.0000 C    0  0  0  0  0  0  0  0  0  0  0  0
    0.0000   -1.9854    0.0000 O    0  0  0  0  0  0  0  0  0  0  0  0
    5.7695   -1.3282    0.0000 C    0  0  0  0  0  0  0  0  0  0  0  0
    5.7695    0.0000    0.0000 O    0  0  0  0  0  0  0  0  0  0  0  0
  1 14  1  0  0  0  0
  2 12  1  0  0  0  0
  3 10  1  0  0  0  0
  4  5  2  0  0  0  0
  4  9  1  0  0  0  0
  4 10  1  0  0  0  0
  5  6  1  0  0  0  0
  6  7  2  0  0  0  0
  6 14  1  0  0  0  0
  7  8  1  0  0  0  0
  8  9  2  0  0  0  0
  8 12  1  0  0  0  0
 10 11  2  0  0  0  0
 12 13  2  0  0  0  0
 14 15  2  0  0  0  0
M  END
> <ID>
10086

> <Formula>
C9H3Cl3O3

> <FW>
265.4773

> <DSSTox_CID>
24429

> <DSSTox_RID>
80221

> <DSSTox_GSID>
44429

> <DSSTox_FileID_Sort>
4903

> <TS_ChemName>
1,3,5-Benzenetricarbonyl trichloride

> <TS_ChemName_Synonyms>


> <TS_CASRN>
4422-95-1

> <CASRN_ChemName_Relationship>
primary

> <TS_Description>
single chemical compound

> <ChemNote>


> <STRUCTURE_Shown>
tested chemical

> <STRUCTURE_Formula>
C9H3Cl3O3

> <STRUCTURE_MW>
265.4773

> <STRUCTURE_ChemType>
defined organic

> <STRUCTURE_DefinedOrganicForm>
parent

> <STRUCTURE_IUPAC>
benzene-1,3,5-tricarbonyl trichloride

> <STRUCTURE_SMILES>
O=C(Cl)c1cc(cc(c1)C(Cl)=O)C(Cl)=O

> <STRUCTURE_SMILES_Desalt>
O=C(Cl)c1cc(cc(c1)C(Cl)=O)C(Cl)=O

> <Substance_modify_yyyymmdd>
20091116

$$$$
