443-72-1
ChemmineR-0915142007XD

 11 12  0  0  0  0  0  0  0  0  1 V2000
    0.0000   -3.4549    0.0000 C   0  0  0  0  0  0  0  0  0  0  0  0
    1.3309   -3.4549    0.0000 N   0  0  0  0  0  0  0  0  0  0  0  0
    1.9936   -2.3032    0.0000 C   0  0  0  0  0  0  0  0  0  0  0  0
    1.3309   -1.1516    0.0000 N   0  0  0  0  0  0  0  0  0  0  0  0
    1.9936    0.0000    0.0000 C   0  0  0  0  0  0  0  0  0  0  0  0
    3.3245    0.0000    0.0000 N   0  0  0  0  0  0  0  0  0  0  0  0
    3.9926   -1.1516    0.0000 C   0  0  0  0  0  0  0  0  0  0  0  0
    3.3245   -2.3032    0.0000 C   0  0  0  0  0  0  0  0  0  0  0  0
    4.2154   -3.2919    0.0000 N   0  0  0  0  0  0  0  0  0  0  0  0
    5.4322   -2.7487    0.0000 C   0  0  0  0  0  0  0  0  0  0  0  0
    5.2909   -1.4287    0.0000 N   0  0  0  0  0  0  0  0  0  0  0  0
  1  2  1  0  0  0  0
  2  3  1  0  0  0  0
  3  4  2  0  0  0  0
  3  8  1  0  0  0  0
  4  5  1  0  0  0  0
  5  6  2  0  0  0  0
  6  7  1  0  0  0  0
  7  8  2  0  0  0  0
  7 11  1  0  0  0  0
  8  9  1  0  0  0  0
  9 10  2  0  0  0  0
 10 11  1  0  0  0  0
M  END
> <ID>
823

> <Formula>
C6H7N5

> <FW>
149.1533

> <DSSTox_CID>
857

> <DSSTox_RID>
75829

> <DSSTox_GSID>
20857

> <DSSTox_FileID_Sort>
513

> <TS_ChemName>
(N-6)-Methyladenine

> <TS_ChemName_Synonyms>


> <TS_CASRN>
443-72-1

> <CASRN_ChemName_Relationship>
primary

> <TS_Description>
single chemical compound

> <ChemNote>
tautomers

> <STRUCTURE_Shown>
tested chemical

> <STRUCTURE_Formula>
C6H7N5

> <STRUCTURE_MW>
149.1533

> <STRUCTURE_ChemType>
defined organic

> <STRUCTURE_DefinedOrganicForm>
parent

> <STRUCTURE_IUPAC>
N-methyl-9H-purin-6-amine

> <STRUCTURE_SMILES>
CNc2ncnc1ncnc12

> <STRUCTURE_SMILES_Desalt>
CNc2ncnc1ncnc12

> <Substance_modify_yyyymmdd>
20080429

$$$$
