4437-85-8
ChemmineR-0915142007XD

  8  8  0  0  0  0  0  0  0  0  1 V2000
    0.0000   -2.1113    0.0000 O   0  0  0  0  0  0  0  0  0  0  0  0
    1.0753   -1.3287    0.0000 C   0  0  0  0  0  0  0  0  0  0  0  0
    2.1507   -2.1113    0.0000 O   0  0  0  0  0  0  0  0  0  0  0  0
    1.7397   -3.3780    0.0000 C   0  0  0  0  0  0  0  0  0  0  0  0
    0.4110   -3.3780    0.0000 C   0  0  0  0  0  0  0  0  0  0  0  0
    1.0753    0.0000    0.0000 O   0  0  0  0  0  0  0  0  0  0  0  0
    2.6292   -4.3633    0.0000 C   0  0  0  0  0  0  0  0  0  0  0  0
    2.2182   -5.6300    0.0000 C   0  0  0  0  0  0  0  0  0  0  0  0
  1  2  1  0  0  0  0
  1  5  1  0  0  0  0
  2  3  1  0  0  0  0
  2  6  2  0  0  0  0
  3  4  1  0  0  0  0
  4  5  1  0  0  0  0
  4  7  1  0  0  0  0
  7  8  1  0  0  0  0
M  END
> <ID>
7707

> <Formula>
C5H8O3

> <FW>
116.1152

> <DSSTox_CID>
20342

> <DSSTox_RID>
79480

> <DSSTox_GSID>
40342

> <DSSTox_FileID_Sort>
4162

> <TS_ChemName>
Butylene carbonate

> <TS_ChemName_Synonyms>
Butylene carbonate (1,3-Dioxolan-2-one, 4-ethyl-)

> <TS_CASRN>
4437-85-8

> <CASRN_ChemName_Relationship>
primary

> <TS_Description>
single chemical compound

> <ChemNote>


> <STRUCTURE_Shown>
tested chemical

> <STRUCTURE_Formula>
C5H8O3

> <STRUCTURE_MW>
116.1152

> <STRUCTURE_ChemType>
defined organic

> <STRUCTURE_DefinedOrganicForm>
parent

> <STRUCTURE_IUPAC>
4-ethyl-1,3-dioxolan-2-one

> <STRUCTURE_SMILES>
O=C1OCC(CC)O1

> <STRUCTURE_SMILES_Desalt>
O=C1OCC(CC)O1

> <Substance_modify_yyyymmdd>
20080429

$$$$
