4437-51-8
ChemmineR-0915142007XD

  8  7  0  0  0  0  0  0  0  0  1 V2000
    0.0000   -1.3578    0.0000 C   0  0  0  0  0  0  0  0  0  0  0  0
    1.1672   -1.9934    0.0000 C   0  0  0  0  0  0  0  0  0  0  0  0
    2.2996   -1.3578    0.0000 C   0  0  0  0  0  0  0  0  0  0  0  0
    3.4495   -1.9934    0.0000 C   0  0  0  0  0  0  0  0  0  0  0  0
    4.5993   -1.3578    0.0000 C   0  0  0  0  0  0  0  0  0  0  0  0
    5.7780   -1.9934    0.0000 C   0  0  0  0  0  0  0  0  0  0  0  0
    2.2996    0.0000    0.0000 O   0  0  0  0  0  0  0  0  0  0  0  0
    3.4495   -3.3512    0.0000 O   0  0  0  0  0  0  0  0  0  0  0  0
  1  2  1  0  0  0  0
  2  3  1  0  0  0  0
  3  4  1  0  0  0  0
  3  7  2  0  0  0  0
  4  5  1  0  0  0  0
  4  8  2  0  0  0  0
  5  6  1  0  0  0  0
M  END
> <ID>
12802

> <Formula>
C6H10O2

> <FW>
114.1424

> <DSSTox_CID>
27681

> <DSSTox_RID>
82498

> <DSSTox_GSID>
47681

> <DSSTox_FileID_Sort>
7179

> <TS_ChemName>
3,4-Hexanedione

> <TS_ChemName_Synonyms>


> <TS_CASRN>
4437-51-8

> <CASRN_ChemName_Relationship>
primary

> <TS_Description>
single chemical compound

> <ChemNote>


> <STRUCTURE_Shown>
tested chemical

> <STRUCTURE_Formula>
C6H10O2

> <STRUCTURE_MW>
114.1424

> <STRUCTURE_ChemType>
defined organic

> <STRUCTURE_DefinedOrganicForm>
parent

> <STRUCTURE_IUPAC>
hexane-3,4-dione

> <STRUCTURE_SMILES>
CCC(=O)C(=O)CC

> <STRUCTURE_SMILES_Desalt>
CCC(=O)C(=O)CC

> <Substance_modify_yyyymmdd>
20101215

$$$$
