4438-22-6
ChemmineR-0915142007XD

 22 24  0  0  1  0  0  0  0  0  2 V2000
    4.7946   -5.1136    0.0000 C   0  0  0  0  0  0  0  0  0  0  0  0
    4.7946   -6.4535    0.0000 C   0  0  0  0  0  0  0  0  0  0  0  0
    5.9431   -4.4664    0.0000 O   0  0  0  0  0  0  0  0  0  0  0  0
    5.9431   -7.1189    0.0000 C   0  0  0  0  0  0  0  0  0  0  0  0
    3.6461   -7.1189    0.0000 C   0  0  0  0  0  0  0  0  0  0  0  0
    2.4702   -6.4535    0.0000 O   0  0  0  0  0  0  0  0  0  0  0  0
    7.0916   -6.4535    0.0000 C   0  0  0  0  0  0  0  0  0  0  0  0
    5.9431   -8.4588    0.0000 C   0  0  0  0  0  0  0  0  0  0  0  0
    7.0916   -9.1151    0.0000 C   0  0  0  0  0  0  0  0  0  0  0  0
    8.2492   -7.1189    0.0000 C   0  0  0  0  0  0  0  0  0  0  0  0
    8.2492   -8.4588    0.0000 C   0  0  0  0  0  0  0  0  0  0  0  0
    1.9415   -1.9233    0.0000 C   0  0  0  0  0  0  0  0  0  0  0  0
    3.6552   -3.2085    0.0000 C   0  0  0  0  0  0  0  0  0  0  0  0
    2.8257   -2.5249    0.0000 C   0  0  0  0  0  0  0  0  0  0  0  0
    1.2670   -2.5249    0.0000 C   0  0  0  0  0  0  0  0  0  0  0  0
    1.0391   -1.2123    0.0000 N   0  3  0  0  0  0  0  0  0  0  0  0
    3.4364   -1.8959    0.0000 C   0  0  0  0  0  0  0  0  0  0  0  0
    0.4375   -3.6643    0.0000 C   0  0  0  0  0  0  0  0  0  0  0  0
    1.4311   -3.0627    0.0000 C   0  0  0  0  0  0  0  0  0  0  0  0
    0.0000   -0.1732    0.0000 C   0  0  0  0  0  0  0  0  0  0  0  0
    3.6461   -4.2112    0.0000 O   0  0  0  0  0  0  0  0  0  0  0  0
    2.0327    0.0000    0.0000 O   0  5  0  0  0  0  0  0  0  0  0  0
  1  2  1  0  0  0  0
  1  3  2  0  0  0  0
  1 21  1  0  0  0  0
  2  4  1  0  0  0  0
  2  5  1  0  0  0  0
  4  7  1  0  0  0  0
  4  8  2  0  0  0  0
  5  6  1  0  0  0  0
  7 10  2  0  0  0  0
  8  9  1  0  0  0  0
  9 11  2  0  0  0  0
 10 11  1  0  0  0  0
 12 16  1  1  0  0  0
 12 17  1  0  0  0  0
 12 19  1  0  0  0  0
 13 14  1  0  0  0  0
 13 17  1  0  0  0  0
 13 21  1  6  0  0  0
 14 15  1  0  0  0  0
 15 16  1  6  0  0  0
 15 18  1  0  0  0  0
 16 20  1  0  0  0  0
 16 22  1  0  0  0  0
 18 19  1  0  0  0  0
M  END
> <ID>
2383

> <Formula>
C17H23NO4

> <FW>
305.3688

> <DSSTox_CID>
2632

> <DSSTox_RID>
76666

> <DSSTox_GSID>
22632

> <DSSTox_FileID_Sort>
1350

> <TS_ChemName>
Atropine N-oxide

> <TS_ChemName_Synonyms>


> <TS_CASRN>
4438-22-6

> <CASRN_ChemName_Relationship>
primary

> <TS_Description>
single chemical compound

> <ChemNote>
stereochem; ammonium

> <STRUCTURE_Shown>
tested chemical

> <STRUCTURE_Formula>
C17H23NO4

> <STRUCTURE_MW>
305.3688

> <STRUCTURE_ChemType>
defined organic

> <STRUCTURE_DefinedOrganicForm>
parent

> <STRUCTURE_IUPAC>
(3-endo)-8-methyl-8-oxido-8-azabicyclo[3.2.1]oct-3-yl 3-hydroxy-2-phenylpropanoate

> <STRUCTURE_SMILES>
C[N+]2([O-])[C@H]1C[C@@H](C[C@@H]2CC1)OC(=O)C(CO)c3ccccc3

> <STRUCTURE_SMILES_Desalt>
O[N+]2(C)[C@H]1C[C@@H](C[C@@H]2CC1)OC(=O)C(CO)c3ccccc3

> <Substance_modify_yyyymmdd>
20080815

$$$$
