443913-73-3
ChemmineR-0915142007XD

 30 33  0  0  0  0  0  0  0  0  1 V2000
    5.9874    0.0000    0.0000 C    0  0  0  0  0  0  0  0  0  0  0  0
    7.3198    0.0000    0.0000 O    0  0  0  0  0  0  0  0  0  0  0  0
    7.9947   -1.1421    0.0000 C    0  0  0  0  0  0  0  0  0  0  0  0
    9.3099   -1.1421    0.0000 C    0  0  0  0  0  0  0  0  0  0  0  0
    9.9847   -2.3015    0.0000 C    0  0  0  0  0  0  0  0  0  0  0  0
   11.3172   -2.3015    0.0000 C    0  0  0  0  0  0  0  0  0  0  0  0
   11.9748   -1.1421    0.0000 N    0  0  0  0  0  0  0  0  0  0  0  0
   13.3072   -1.1421    0.0000 C    0  0  0  0  0  0  0  0  0  0  0  0
   13.9821    0.0000    0.0000 C    0  0  0  0  0  0  0  0  0  0  0  0
   15.3145    0.0000    0.0000 C    0  0  0  0  0  0  0  0  0  0  0  0
   15.9721   -1.1421    0.0000 C    0  0  0  0  0  0  0  0  0  0  0  0
   17.3046   -1.1421    0.0000 Br   0  0  0  0  0  0  0  0  0  0  0  0
   15.3145   -2.3015    0.0000 C    0  0  0  0  0  0  0  0  0  0  0  0
   13.9821   -2.3015    0.0000 C    0  0  0  0  0  0  0  0  0  0  0  0
   13.3072   -3.4436    0.0000 F    0  0  0  0  0  0  0  0  0  0  0  0
   11.9748   -3.4436    0.0000 N    0  0  0  0  0  0  0  0  0  0  0  0
   11.3172   -4.6030    0.0000 C    0  0  0  0  0  0  0  0  0  0  0  0
    9.9847   -4.6030    0.0000 N    0  0  0  0  0  0  0  0  0  0  0  0
    9.3099   -3.4436    0.0000 C    0  0  0  0  0  0  0  0  0  0  0  0
    7.9947   -3.4436    0.0000 C    0  0  0  0  0  0  0  0  0  0  0  0
    7.3198   -2.3015    0.0000 C    0  0  0  0  0  0  0  0  0  0  0  0
    5.9874   -2.3015    0.0000 O    0  0  0  0  0  0  0  0  0  0  0  0
    5.3298   -3.4436    0.0000 C    0  0  0  0  0  0  0  0  0  0  0  0
    3.9974   -3.4436    0.0000 C    0  0  0  0  0  0  0  0  0  0  0  0
    3.3225   -4.6030    0.0000 C    0  0  0  0  0  0  0  0  0  0  0  0
    1.9900   -4.6030    0.0000 C    0  0  0  0  0  0  0  0  0  0  0  0
    1.3325   -3.4436    0.0000 N    0  0  0  0  0  0  0  0  0  0  0  0
    0.0000   -3.4436    0.0000 C    0  0  0  0  0  0  0  0  0  0  0  0
    1.9900   -2.3015    0.0000 C    0  0  0  0  0  0  0  0  0  0  0  0
    3.3225   -2.3015    0.0000 C    0  0  0  0  0  0  0  0  0  0  0  0
  1  2  1  0  0  0  0
  2  3  1  0  0  0  0
  3  4  2  0  0  0  0
  3 21  1  0  0  0  0
  4  5  1  0  0  0  0
  5  6  2  0  0  0  0
  5 19  1  0  0  0  0
  6  7  1  0  0  0  0
  6 16  1  0  0  0  0
  7  8  1  0  0  0  0
  8  9  2  0  0  0  0
  8 14  1  0  0  0  0
  9 10  1  0  0  0  0
 10 11  2  0  0  0  0
 11 12  1  0  0  0  0
 11 13  1  0  0  0  0
 13 14  2  0  0  0  0
 14 15  1  0  0  0  0
 16 17  2  0  0  0  0
 17 18  1  0  0  0  0
 18 19  2  0  0  0  0
 19 20  1  0  0  0  0
 20 21  2  0  0  0  0
 21 22  1  0  0  0  0
 22 23  1  0  0  0  0
 23 24  1  0  0  0  0
 24 25  1  0  0  0  0
 24 30  1  0  0  0  0
 25 26  1  0  0  0  0
 26 27  1  0  0  0  0
 27 28  1  0  0  0  0
 27 29  1  0  0  0  0
 29 30  1  0  0  0  0
M  END
> <ID>
11880

> <Formula>
C22H24BrFN4O2

> <FW>
475.354

> <DSSTox_CID>
26681

> <DSSTox_RID>
81816

> <DSSTox_GSID>
46681

> <DSSTox_FileID_Sort>
6497

> <TS_ChemName>
Vandetanib

> <TS_ChemName_Synonyms>


> <TS_CASRN>
443913-73-3

> <CASRN_ChemName_Relationship>
primary

> <TS_Description>
single chemical compound

> <ChemNote>


> <STRUCTURE_Shown>
tested chemical

> <STRUCTURE_Formula>
C22H24BrFN4O2

> <STRUCTURE_MW>
475.354

> <STRUCTURE_ChemType>
defined organic

> <STRUCTURE_DefinedOrganicForm>
parent

> <STRUCTURE_IUPAC>
N-(4-bromo-2-fluorophenyl)-6-methoxy-7-[(1-methylpiperidin-4-yl)methoxy]quinazolin-4-amine

> <STRUCTURE_SMILES>
CN4CCC(COc2cc3ncnc(Nc1ccc(Br)cc1F)c3cc2OC)CC4

> <STRUCTURE_SMILES_Desalt>
CN4CCC(COc2cc3ncnc(Nc1ccc(Br)cc1F)c3cc2OC)CC4

> <Substance_modify_yyyymmdd>
20110805

$$$$
