444610-91-7
ChemmineR-0915142007XD

 45 49  0  0  0  0  0  0  0  0  1 V2000
    0.5354  -11.1518    0.0000 C   0  0  0  0  0  0  0  0  0  0  0  0
    0.9416  -12.4073    0.0000 C   0  0  0  0  0  0  0  0  0  0  0  0
    2.2525  -12.6842    0.0000 C   0  0  0  0  0  0  0  0  0  0  0  0
    3.1203  -11.6872    0.0000 C   0  0  0  0  0  0  0  0  0  0  0  0
    4.4312  -11.9641    0.0000 C   0  0  0  0  0  0  0  0  0  0  0  0
    5.3174  -10.9671    0.0000 S   0  0  0  0  0  0  0  0  0  0  0  0
    4.9112   -9.7116    0.0000 C   0  0  0  0  0  0  0  0  0  0  0  0
    5.7974   -8.7146    0.0000 C   0  0  0  0  0  0  0  0  0  0  0  0
    5.3728   -7.4407    0.0000 S   0  0  0  0  0  0  0  0  0  0  0  0
    6.4621   -6.6652    0.0000 C   0  0  0  0  0  0  0  0  0  0  0  0
    7.5330   -7.4407    0.0000 N   0  0  0  0  0  0  0  0  0  0  0  0
    7.1268   -8.7146    0.0000 C   0  0  0  0  0  0  0  0  0  0  0  0
    7.7915   -9.8593    0.0000 C   0  0  0  0  0  0  0  0  0  0  0  0
    9.1024   -9.8593    0.0000 N   0  0  0  0  0  0  0  0  0  0  0  0
    9.7855   -8.7146    0.0000 C   0  0  0  0  0  0  0  0  0  0  0  0
   11.1148   -8.7146    0.0000 C   0  0  0  0  0  0  0  0  0  0  0  0
   11.7795   -9.8593    0.0000 N   0  0  0  0  0  0  0  0  0  0  0  0
   11.1148  -11.0225    0.0000 C   0  0  0  0  0  0  0  0  0  0  0  0
    9.7855  -11.0225    0.0000 C   0  0  0  0  0  0  0  0  0  0  0  0
   13.1089   -9.8593    0.0000 C   0  0  0  0  0  0  0  0  0  0  0  0
   13.7735   -8.7146    0.0000 C   0  0  0  0  0  0  0  0  0  0  0  0
   15.1029   -8.7146    0.0000 C   0  0  0  0  0  0  0  0  0  0  0  0
   15.7676   -9.8593    0.0000 C   0  0  0  0  0  0  0  0  0  0  0  0
   17.0969   -9.8593    0.0000 O   0  0  0  0  0  0  0  0  0  0  0  0
   17.7616   -8.7146    0.0000 C   0  0  0  0  0  0  0  0  0  0  0  0
   15.1029  -11.0225    0.0000 C   0  0  0  0  0  0  0  0  0  0  0  0
   13.7735  -11.0225    0.0000 C   0  0  0  0  0  0  0  0  0  0  0  0
    6.4621   -5.3174    0.0000 C   0  0  0  0  0  0  0  0  0  0  0  0
    7.6068   -4.6712    0.0000 C   0  0  0  0  0  0  0  0  0  0  0  0
    7.6068   -3.3418    0.0000 C   0  0  0  0  0  0  0  0  0  0  0  0
    6.4621   -2.6587    0.0000 C   0  0  0  0  0  0  0  0  0  0  0  0
    5.3174   -3.3418    0.0000 C   0  0  0  0  0  0  0  0  0  0  0  0
    5.3174   -4.6712    0.0000 C   0  0  0  0  0  0  0  0  0  0  0  0
    6.4621   -1.3293    0.0000 C   0  0  0  0  0  0  0  0  0  0  0  0
    5.1328   -1.3293    0.0000 F   0  0  0  0  0  0  0  0  0  0  0  0
    7.7915   -1.3293    0.0000 F   0  0  0  0  0  0  0  0  0  0  0  0
    6.4621    0.0000    0.0000 F   0  0  0  0  0  0  0  0  0  0  0  0
    4.8374  -13.2196    0.0000 C   0  0  0  0  0  0  0  0  0  0  0  0
    3.9696  -14.2167    0.0000 C   0  0  0  0  0  0  0  0  0  0  0  0
    2.6587  -13.9397    0.0000 C   0  0  0  0  0  0  0  0  0  0  0  0
    1.7725  -14.9367    0.0000 O   0  0  0  0  0  0  0  0  0  0  0  0
    2.1971  -16.1922    0.0000 C   0  0  0  0  0  0  0  0  0  0  0  0
    1.2924  -17.1892    0.0000 C   0  0  0  0  0  0  0  0  0  0  0  0
    0.0000  -16.9307    0.0000 O   0  0  0  0  0  0  0  0  0  0  0  0
    1.7171  -18.4632    0.0000 O   0  0  0  0  0  0  0  0  0  0  0  0
  1  2  1  0  0  0  0
  2  3  1  0  0  0  0
  3  4  1  0  0  0  0
  3 40  2  0  0  0  0
  4  5  2  0  0  0  0
  5  6  1  0  0  0  0
  5 38  1  0  0  0  0
  6  7  1  0  0  0  0
  7  8  1  0  0  0  0
  8  9  1  0  0  0  0
  8 12  2  0  0  0  0
  9 10  1  0  0  0  0
 10 11  2  0  0  0  0
 10 28  1  0  0  0  0
 11 12  1  0  0  0  0
 12 13  1  0  0  0  0
 13 14  1  0  0  0  0
 14 15  1  0  0  0  0
 14 19  1  0  0  0  0
 15 16  1  0  0  0  0
 16 17  1  0  0  0  0
 17 18  1  0  0  0  0
 17 20  1  0  0  0  0
 18 19  1  0  0  0  0
 20 21  1  0  0  0  0
 20 27  2  0  0  0  0
 21 22  2  0  0  0  0
 22 23  1  0  0  0  0
 23 24  1  0  0  0  0
 23 26  2  0  0  0  0
 24 25  1  0  0  0  0
 26 27  1  0  0  0  0
 28 29  1  0  0  0  0
 28 33  2  0  0  0  0
 29 30  2  0  0  0  0
 30 31  1  0  0  0  0
 31 32  2  0  0  0  0
 31 34  1  0  0  0  0
 32 33  1  0  0  0  0
 34 35  1  0  0  0  0
 34 36  1  0  0  0  0
 34 37  1  0  0  0  0
 38 39  2  0  0  0  0
 39 40  1  0  0  0  0
 40 41  1  0  0  0  0
 41 42  1  0  0  0  0
 42 43  1  0  0  0  0
 43 44  2  0  0  0  0
 43 45  1  0  0  0  0
M  END
> <ID>
12457

> <Formula>
C33H34F3N3O4S2

> <FW>
657.766

> <DSSTox_CID>
27315

> <DSSTox_RID>
82264

> <DSSTox_GSID>
47315

> <DSSTox_FileID_Sort>
6945

> <TS_ChemName>
PharmaGSID_47315

> <TS_ChemName_Synonyms>
(2-ethyl-4-{[(4-{[4-(4-methoxyphenyl)piperazin-1-yl]methyl}-2-[4-(trifluoromethyl)phenyl]-1,3-thiazol-5-yl)methyl]sulfanyl}phenoxy)acetic acid

> <TS_CASRN>
444610-91-7

> <CASRN_ChemName_Relationship>
primary

> <TS_Description>
single chemical compound

> <ChemNote>


> <STRUCTURE_Shown>
tested chemical

> <STRUCTURE_Formula>
C33H34F3N3O4S2

> <STRUCTURE_MW>
657.766

> <STRUCTURE_ChemType>
defined organic

> <STRUCTURE_DefinedOrganicForm>
parent

> <STRUCTURE_IUPAC>
(2-ethyl-4-{[(4-{[4-(4-methoxyphenyl)piperazin-1-yl]methyl}-2-[4-(trifluoromethyl)phenyl]-1,3-thiazol-5-yl)methyl]sulfanyl}phenoxy)acetic acid

> <STRUCTURE_SMILES>
O=C(O)COc1ccc(cc1CC)SCc4sc(nc4CN2CCN(CC2)c3ccc(OC)cc3)c5ccc(cc5)C(F)(F)F

> <STRUCTURE_SMILES_Desalt>
O=C(O)COc1ccc(cc1CC)SCc4sc(nc4CN2CCN(CC2)c3ccc(OC)cc3)c5ccc(cc5)C(F)(F)F

> <Substance_modify_yyyymmdd>
20130910

$$$$
