444731-52-6
ChemmineR-0915142007XD

 31 34  0  0  0  0  0  0  0  0  1 V2000
    8.9383   -9.7589    0.0000 C   0  0  0  0  0  0  0  0  0  0  0  0
    7.9409  -10.6426    0.0000 C   0  0  0  0  0  0  0  0  0  0  0  0
    6.6532  -10.3649    0.0000 C   0  0  0  0  0  0  0  0  0  0  0  0
    5.9967   -9.2160    0.0000 C   0  0  0  0  0  0  0  0  0  0  0  0
    4.6585   -9.2160    0.0000 C   0  0  0  0  0  0  0  0  0  0  0  0
    3.9894  -10.3649    0.0000 C   0  0  0  0  0  0  0  0  0  0  0  0
    2.6638  -10.3649    0.0000 N   0  0  0  0  0  0  0  0  0  0  0  0
    2.0073   -9.2160    0.0000 C   0  0  0  0  0  0  0  0  0  0  0  0
    2.6638   -8.0546    0.0000 N   0  0  0  0  0  0  0  0  0  0  0  0
    2.0073   -6.9183    0.0000 C   0  0  0  0  0  0  0  0  0  0  0  0
    2.6638   -5.7695    0.0000 N   0  0  0  0  0  0  0  0  0  0  0  0
    2.0073   -4.6080    0.0000 C   0  0  0  0  0  0  0  0  0  0  0  0
    2.6638   -3.4592    0.0000 C   0  0  0  0  0  0  0  0  0  0  0  0
    2.0073   -2.3103    0.0000 C   0  0  0  0  0  0  0  0  0  0  0  0
    2.6638   -1.1488    0.0000 S   0  0  0  0  0  0  0  0  0  0  0  0
    3.8127   -1.8306    0.0000 N   0  0  0  0  0  0  0  0  0  0  0  0
    1.5023   -0.4924    0.0000 O   0  0  0  0  0  0  0  0  0  0  0  0
    3.3329    0.0000    0.0000 O   0  0  0  0  0  0  0  0  0  0  0  0
    0.6691   -2.3103    0.0000 C   0  0  0  0  0  0  0  0  0  0  0  0
    0.0000   -1.1488    0.0000 C   0  0  0  0  0  0  0  0  0  0  0  0
    0.0000   -3.4592    0.0000 C   0  0  0  0  0  0  0  0  0  0  0  0
    0.6691   -4.6080    0.0000 C   0  0  0  0  0  0  0  0  0  0  0  0
    0.6691   -6.9183    0.0000 N   0  0  0  0  0  0  0  0  0  0  0  0
    0.0000   -8.0546    0.0000 C   0  0  0  0  0  0  0  0  0  0  0  0
    0.6691   -9.2160    0.0000 C   0  0  0  0  0  0  0  0  0  0  0  0
    2.0073  -11.5137    0.0000 C   0  0  0  0  0  0  0  0  0  0  0  0
    4.6585  -11.5137    0.0000 C   0  0  0  0  0  0  0  0  0  0  0  0
    5.9967  -11.5137    0.0000 C   0  0  0  0  0  0  0  0  0  0  0  0
    6.8678  -12.5111    0.0000 N   0  0  0  0  0  0  0  0  0  0  0  0
    8.0924  -11.9682    0.0000 N   0  0  0  0  0  0  0  0  0  0  0  0
    9.2413  -12.6247    0.0000 C   0  0  0  0  0  0  0  0  0  0  0  0
  1  2  1  0  0  0  0
  2  3  2  0  0  0  0
  2 30  1  0  0  0  0
  3  4  1  0  0  0  0
  3 28  1  0  0  0  0
  4  5  2  0  0  0  0
  5  6  1  0  0  0  0
  6  7  1  0  0  0  0
  6 27  2  0  0  0  0
  7  8  1  0  0  0  0
  7 26  1  0  0  0  0
  8  9  2  0  0  0  0
  8 25  1  0  0  0  0
  9 10  1  0  0  0  0
 10 11  1  0  0  0  0
 10 23  2  0  0  0  0
 11 12  1  0  0  0  0
 12 13  2  0  0  0  0
 12 22  1  0  0  0  0
 13 14  1  0  0  0  0
 14 15  1  0  0  0  0
 14 19  2  0  0  0  0
 15 16  1  0  0  0  0
 15 17  2  0  0  0  0
 15 18  2  0  0  0  0
 19 20  1  0  0  0  0
 19 21  1  0  0  0  0
 21 22  2  0  0  0  0
 23 24  1  0  0  0  0
 24 25  2  0  0  0  0
 27 28  1  0  0  0  0
 28 29  2  0  0  0  0
 29 30  1  0  0  0  0
 30 31  1  0  0  0  0
M  END
> <ID>
13724

> <Formula>
C21H23N7O2S

> <FW>
437.518

> <DSSTox_CID>
28659

> <DSSTox_RID>
82929

> <DSSTox_GSID>
48733

> <DSSTox_FileID_Sort>
7606

> <TS_ChemName>
Pazopanib

> <TS_ChemName_Synonyms>


> <TS_CASRN>
444731-52-6

> <CASRN_ChemName_Relationship>
primary

> <TS_Description>
single chemical compound

> <ChemNote>


> <STRUCTURE_Shown>
tested chemical

> <STRUCTURE_Formula>
C21H23N7O2S

> <STRUCTURE_MW>
437.518

> <STRUCTURE_ChemType>
defined organic

> <STRUCTURE_DefinedOrganicForm>
parent

> <STRUCTURE_IUPAC>
5-({4-[(2,3-dimethyl-2H-indazol-6-yl)(methyl)amino]pyrimidin-2-yl}amino)-2-methylbenzenesulfonamide

> <STRUCTURE_SMILES>
NS(=O)(=O)c1cc(ccc1C)Nc2nccc(n2)N(C)c3ccc4c(C)n(C)nc4c3

> <STRUCTURE_SMILES_Desalt>
NS(=O)(=O)c1cc(ccc1C)Nc2nccc(n2)N(C)c3ccc4c(C)n(C)nc4c3

> <Substance_modify_yyyymmdd>
20122020

$$$$
