4449-51-8
ChemmineR-0915142007XD

 35 40  0  0  1  0  0  0  0  0  1 V2000
   10.3357    0.0000    0.0000 C   0  0  0  0  0  0  0  0  0  0  0  0
    6.4313   -3.8929    0.0000 C   0  0  0  0  0  0  0  0  0  0  0  0
   10.5975   -6.1354    0.0000 C   0  0  0  0  0  0  0  0  0  0  0  0
    3.4490   -6.9436    0.0000 C   0  0  0  0  0  0  0  0  0  0  0  0
    4.6214  -10.2787    0.0000 C   0  0  0  0  0  0  0  0  0  0  0  0
    5.7597   -9.6185    0.0000 C   0  0  0  0  0  0  0  0  0  0  0  0
    1.1497   -8.2867    0.0000 C   0  0  0  0  0  0  0  0  0  0  0  0
    8.0591   -7.5127    0.0000 C   0  0  0  0  0  0  0  0  0  0  0  0
    2.3107   -7.6265    0.0000 C   0  0  0  0  0  0  0  0  0  0  0  0
    8.8445   -6.4427    0.0000 C   0  0  0  0  0  0  0  0  0  0  0  0
    9.0949   -1.8554    0.0000 C   0  0  0  0  0  0  0  0  0  0  0  0
    2.3107  -10.2901    0.0000 C   0  0  0  0  0  0  0  0  0  0  0  0
    4.8719   -6.3175    0.0000 C   0  0  0  0  0  0  0  0  0  0  0  0
   11.3829   -2.1172    0.0000 C   0  0  0  0  0  0  0  0  0  0  0  0
   10.3129   -1.3318    0.0000 C   0  0  0  0  0  0  0  0  0  0  0  0
    6.9777   -5.1109    0.0000 C   0  0  0  0  0  0  0  0  0  0  0  0
    9.6299   -5.2247    0.0000 C   0  0  0  0  0  0  0  0  0  0  0  0
    3.4604   -9.6185    0.0000 C   0  0  0  0  0  0  0  0  0  0  0  0
    1.1497   -9.6185    0.0000 C   0  0  0  0  0  0  0  0  0  0  0  0
    6.7387   -7.3875    0.0000 C   0  0  0  0  0  0  0  0  0  0  0  0
    5.7597   -8.2867    0.0000 C   0  0  0  0  0  0  0  0  0  0  0  0
    6.1923   -6.1695    0.0000 C   0  0  0  0  0  0  0  0  0  0  0  0
    4.5987   -7.6151    0.0000 C   0  0  0  0  0  0  0  0  0  0  0  0
    8.9583   -3.1872    0.0000 C   0  0  0  0  0  0  0  0  0  0  0  0
   10.0397   -3.9726    0.0000 C   0  0  0  0  0  0  0  0  0  0  0  0
    3.4604   -8.2867    0.0000 C   0  0  0  0  0  0  0  0  0  0  0  0
    8.3095   -5.2247    0.0000 C   0  0  0  0  0  0  0  0  0  0  0  0
   11.2577   -3.4262    0.0000 N   0  0  0  0  0  0  0  0  0  0  0  0
    0.0000  -10.2901    0.0000 O   0  0  0  0  0  0  0  0  0  0  0  0
    7.8883   -3.9726    0.0000 O   0  0  0  0  0  0  0  0  0  0  0  0
    7.4899   -8.4916    0.0000 H   0  0  0  0  0  0  0  0  0  0  0  0
    5.7825   -6.9549    0.0000 H   0  0  0  0  0  0  0  0  0  0  0  0
    4.6328   -8.9469    0.0000 H   0  0  0  0  0  0  0  0  0  0  0  0
    7.8770   -2.4018    0.0000 H   0  0  0  0  0  0  0  0  0  0  0  0
   11.1097   -4.7580    0.0000 H   0  0  0  0  0  0  0  0  0  0  0  0
 15  1  1  6  0  0  0
  2 16  1  0  0  0  0
 17  3  1  1  0  0  0
 26  4  1  1  0  0  0
  5  6  1  0  0  0  0
  5 18  2  0  0  0  0
  6 21  1  0  0  0  0
  7  9  1  0  0  0  0
  7 19  1  0  0  0  0
  8 10  1  0  0  0  0
  8 20  1  0  0  0  0
  9 26  1  0  0  0  0
 10 27  1  0  0  0  0
 11 15  1  0  0  0  0
 11 24  1  0  0  0  0
 12 18  1  0  0  0  0
 12 19  1  0  0  0  0
 13 22  1  0  0  0  0
 13 23  1  0  0  0  0
 14 15  1  0  0  0  0
 14 28  1  0  0  0  0
 16 22  2  0  0  0  0
 16 27  1  0  0  0  0
 17 25  1  0  0  0  0
 17 27  1  0  0  0  0
 18 26  1  0  0  0  0
 19 29  1  1  0  0  0
 20 31  1  6  0  0  0
 20 21  1  0  0  0  0
 20 22  1  0  0  0  0
 21 32  1  1  0  0  0
 21 23  1  0  0  0  0
 23 33  1  6  0  0  0
 23 26  1  0  0  0  0
 24 34  1  1  0  0  0
 24 25  1  0  0  0  0
 24 30  1  0  0  0  0
 25 35  1  6  0  0  0
 25 28  1  0  0  0  0
 27 30  1  1  0  0  0
M  END
> <ID>
9555

> <Formula>
C27H41NO2

> <FW>
411.6199

> <DSSTox_CID>
23709

> <DSSTox_RID>
80067

> <DSSTox_GSID>
43709

> <DSSTox_FileID_Sort>
4749

> <TS_ChemName>
Cyclopamine

> <TS_ChemName_Synonyms>


> <TS_CASRN>
4449-51-8

> <CASRN_ChemName_Relationship>
primary

> <TS_Description>
single chemical compound

> <ChemNote>
stereochem

> <STRUCTURE_Shown>
tested chemical

> <STRUCTURE_Formula>
C27H41NO2

> <STRUCTURE_MW>
411.6199

> <STRUCTURE_ChemType>
defined organic

> <STRUCTURE_DefinedOrganicForm>
parent

> <STRUCTURE_IUPAC>
(3beta,22S,23R)-17,23-epoxyveratraman-3-ol

> <STRUCTURE_SMILES>
CC4=C5C[C@@H]1[C@@]6(C)CC[C@H](O)CC6=CC[C@H]1[C@@H]5CC[C@@]24O[C@@H]3C[C@H](C)CN[C@H]3[C@H]2C

> <STRUCTURE_SMILES_Desalt>
CC4=C5C[C@@H]1[C@@]6(C)CC[C@H](O)CC6=CC[C@H]1[C@@H]5CC[C@@]24O[C@@H]3C[C@H](C)CN[C@H]3[C@H]2C

> <Substance_modify_yyyymmdd>
20081010

$$$$
