445295-04-5
ChemmineR-0915142007XD

 33 36  0  0  1  0  0  0  0  0  1 V2000
    4.6116   -7.3316    0.0000 C   0  0  0  0  0  0  0  0  0  0  0  0
    3.4656   -8.0082    0.0000 C   0  0  0  0  0  0  0  0  0  0  0  0
    4.5978   -5.9923    0.0000 C   0  0  0  0  0  0  0  0  0  0  0  0
    5.6195   -8.2015    0.0000 O   0  0  0  0  0  0  0  0  0  0  0  0
    2.3058   -7.3454    0.0000 C   0  0  0  0  0  0  0  0  0  0  0  0
    3.7556   -9.3061    0.0000 O   0  0  0  0  0  0  0  0  0  0  0  0
    3.4518   -5.3434    0.0000 C   0  0  0  0  0  0  0  0  0  0  0  0
    5.0810   -9.4303    0.0000 C   0  0  0  0  0  0  0  0  0  0  0  0
    2.3058   -6.0061    0.0000 C   0  0  0  0  0  0  0  0  0  0  0  0
    3.4518   -4.0317    0.0000 O   0  0  0  0  0  0  0  0  0  0  0  0
    2.3058   -3.3690    0.0000 C   0  0  0  0  0  0  0  0  0  0  0  0
    2.3058   -2.0297    0.0000 C   0  0  0  0  0  0  0  0  0  0  0  0
    1.1460   -4.0317    0.0000 N   0  0  0  0  0  0  0  0  0  0  0  0
    3.4518   -1.3531    0.0000 C   0  0  0  0  0  0  0  0  0  0  0  0
    1.1460   -1.3531    0.0000 C   0  0  0  0  0  0  0  0  0  0  0  0
    0.0000   -3.3690    0.0000 C   0  0  0  0  0  0  0  0  0  0  0  0
    4.5978   -2.0159    0.0000 N   0  0  0  0  0  0  0  0  0  0  0  0
    3.4380   -0.0138    0.0000 O   0  0  0  0  0  0  0  0  0  0  0  0
    0.0138   -2.0297    0.0000 C   0  0  0  0  0  0  0  0  0  0  0  0
    5.7576   -1.3531    0.0000 C   0  0  0  0  0  0  0  0  0  0  0  0
    6.9036   -1.9882    0.0000 C   0  0  0  0  0  0  0  0  0  0  0  0
    8.0496   -1.3393    0.0000 C   0  0  0  0  0  0  0  0  0  0  0  0
    6.9036   -3.3275    0.0000 C   0  0  0  0  0  0  0  0  0  0  0  0
    9.1956   -1.9744    0.0000 C   0  0  0  0  0  0  0  0  0  0  0  0
    8.0358    0.0000    0.0000 F   0  0  0  0  0  0  0  0  0  0  0  0
    8.0634   -3.9765    0.0000 C   0  0  0  0  0  0  0  0  0  0  0  0
    9.2094   -3.3137    0.0000 C   0  0  0  0  0  0  0  0  0  0  0  0
   10.3692   -3.9765    0.0000 O   0  0  0  0  0  0  0  0  0  0  0  0
   11.5152   -3.2999    0.0000 C   0  0  0  0  0  0  0  0  0  0  0  0
   12.6612   -3.9627    0.0000 C   0  0  0  0  0  0  0  0  0  0  0  0
   11.5014   -1.9606    0.0000 C   0  0  0  0  0  0  0  0  0  0  0  0
   13.8072   -3.2861    0.0000 O   0  0  0  0  0  0  0  0  0  0  0  0
   12.6612   -5.2882    0.0000 O   0  0  0  0  0  0  0  0  0  0  0  0
  1  2  1  0  0  0  0
  1  3  2  0  0  0  0
  1  4  1  0  0  0  0
  2  5  2  0  0  0  0
  2  6  1  0  0  0  0
  3  7  1  0  0  0  0
  4  8  1  0  0  0  0
  5  9  1  0  0  0  0
  6  8  1  0  0  0  0
  7 10  1  0  0  0  0
  7  9  2  0  0  0  0
 10 11  1  0  0  0  0
 11 12  1  0  0  0  0
 11 13  2  0  0  0  0
 12 14  1  0  0  0  0
 12 15  2  0  0  0  0
 13 16  1  0  0  0  0
 14 17  1  0  0  0  0
 14 18  2  0  0  0  0
 15 19  1  0  0  0  0
 16 19  2  0  0  0  0
 17 20  1  0  0  0  0
 20 21  1  0  0  0  0
 21 22  1  0  0  0  0
 21 23  2  0  0  0  0
 22 24  2  0  0  0  0
 22 25  1  0  0  0  0
 23 26  1  0  0  0  0
 24 27  1  0  0  0  0
 26 27  2  0  0  0  0
 27 28  1  0  0  0  0
 28 29  1  0  0  0  0
 29 30  1  0  0  0  0
 29 31  1  6  0  0  0
 30 32  1  0  0  0  0
 30 33  2  0  0  0  0
M  END
> <ID>
12424

> <Formula>
C23H19FN2O7

> <FW>
454.4046

> <DSSTox_CID>
27282

> <DSSTox_RID>
82236

> <DSSTox_GSID>
47282

> <DSSTox_FileID_Sort>
6917

> <TS_ChemName>
CP-671305

> <TS_ChemName_Synonyms>


> <TS_CASRN>
445295-04-5

> <CASRN_ChemName_Relationship>
primary

> <TS_Description>
single chemical compound

> <ChemNote>
stereochem

> <STRUCTURE_Shown>
tested chemical

> <STRUCTURE_Formula>
C23H19FN2O7

> <STRUCTURE_MW>
454.4046

> <STRUCTURE_ChemType>
defined organic

> <STRUCTURE_DefinedOrganicForm>
parent

> <STRUCTURE_IUPAC>
(2R)-2-{4-[({[2-(1,3-benzodioxol-5-yloxy)pyridin-3-yl]carbonyl}amino)methyl]-3-fluorophenoxy}propanoic acid

> <STRUCTURE_SMILES>
O=C(O)[C@@H](C)Oc4ccc(CNC(=O)c3cccnc3Oc1ccc2OCOc2c1)c(F)c4

> <STRUCTURE_SMILES_Desalt>
O=C(O)[C@@H](C)Oc4ccc(CNC(=O)c3cccnc3Oc1ccc2OCOc2c1)c(F)c4

> <Substance_modify_yyyymmdd>
20130910

$$$$
