4454-05-1
ChemmineR-0915142007XD

  8  8  0  0  0  0  0  0  0  0  1 V2000
    3.2924   -1.1881    0.0000 O   0  0  0  0  0  0  0  0  0  0  0  0
    4.0005   -2.3283    0.0000 C   0  0  0  0  0  0  0  0  0  0  0  0
    3.2924   -3.4684    0.0000 C   0  0  0  0  0  0  0  0  0  0  0  0
    1.9762   -3.4684    0.0000 C   0  0  0  0  0  0  0  0  0  0  0  0
    1.2841   -2.3283    0.0000 C   0  0  0  0  0  0  0  0  0  0  0  0
    1.9762   -1.1881    0.0000 C   0  0  0  0  0  0  0  0  0  0  0  0
    1.3322   -0.0320    0.0000 O   0  0  0  0  0  0  0  0  0  0  0  0
    0.0000    0.0000    0.0000 C   0  0  0  0  0  0  0  0  0  0  0  0
  1  2  1  0  0  0  0
  1  6  1  0  0  0  0
  2  3  2  0  0  0  0
  3  4  1  0  0  0  0
  4  5  1  0  0  0  0
  5  6  1  0  0  0  0
  6  7  1  0  0  0  0
  7  8  1  0  0  0  0
M  END
> <ID>
5257

> <Formula>
C6H10O2

> <FW>
114.1424

> <DSSTox_CID>
7570

> <DSSTox_RID>
78508

> <DSSTox_GSID>
27570

> <DSSTox_FileID_Sort>
3191

> <TS_ChemName>
2-Methoxy-3,4-dihydro-2H-pyran

> <TS_ChemName_Synonyms>


> <TS_CASRN>
4454-05-1

> <CASRN_ChemName_Relationship>
primary

> <TS_Description>
single chemical compound

> <ChemNote>


> <STRUCTURE_Shown>
tested chemical

> <STRUCTURE_Formula>
C6H10O2

> <STRUCTURE_MW>
114.1424

> <STRUCTURE_ChemType>
defined organic

> <STRUCTURE_DefinedOrganicForm>
parent

> <STRUCTURE_IUPAC>
2-methoxy-3,4-dihydro-2H-pyran

> <STRUCTURE_SMILES>
COC1CCC=CO1

> <STRUCTURE_SMILES_Desalt>
COC1CCC=CO1

> <Substance_modify_yyyymmdd>
20080429

$$$$
