4455-26-9
ChemmineR-0915142007XD

 18 17  0  0  0  0  0  0  0  0  1 V2000
    9.1679   -1.3018    0.0000 N   0  0  0  0  0  0  0  0  0  0  0  0
    9.1679    0.0000    0.0000 C   0  0  0  0  0  0  0  0  0  0  0  0
    8.0311   -1.9803    0.0000 C   0  0  0  0  0  0  0  0  0  0  0  0
    6.8759   -1.3018    0.0000 C   0  0  0  0  0  0  0  0  0  0  0  0
    5.7208   -1.9803    0.0000 C   0  0  0  0  0  0  0  0  0  0  0  0
    4.5840   -1.3018    0.0000 C   0  0  0  0  0  0  0  0  0  0  0  0
    3.4288   -1.9803    0.0000 C   0  0  0  0  0  0  0  0  0  0  0  0
    2.2736   -1.3018    0.0000 C   0  0  0  0  0  0  0  0  0  0  0  0
    1.1368   -1.9803    0.0000 C   0  0  0  0  0  0  0  0  0  0  0  0
    0.0000   -1.3018    0.0000 C   0  0  0  0  0  0  0  0  0  0  0  0
   10.2864   -1.9803    0.0000 C   0  0  0  0  0  0  0  0  0  0  0  0
   11.4416   -1.3018    0.0000 C   0  0  0  0  0  0  0  0  0  0  0  0
   12.5967   -1.9803    0.0000 C   0  0  0  0  0  0  0  0  0  0  0  0
   13.7335   -1.3018    0.0000 C   0  0  0  0  0  0  0  0  0  0  0  0
   14.8887   -1.9803    0.0000 C   0  0  0  0  0  0  0  0  0  0  0  0
   16.0438   -1.3018    0.0000 C   0  0  0  0  0  0  0  0  0  0  0  0
   17.1807   -1.9803    0.0000 C   0  0  0  0  0  0  0  0  0  0  0  0
   18.3358   -1.3018    0.0000 C   0  0  0  0  0  0  0  0  0  0  0  0
  1  2  1  0  0  0  0
  1  3  1  0  0  0  0
  1 11  1  0  0  0  0
  3  4  1  0  0  0  0
  4  5  1  0  0  0  0
  5  6  1  0  0  0  0
  6  7  1  0  0  0  0
  7  8  1  0  0  0  0
  8  9  1  0  0  0  0
  9 10  1  0  0  0  0
 11 12  1  0  0  0  0
 12 13  1  0  0  0  0
 13 14  1  0  0  0  0
 14 15  1  0  0  0  0
 15 16  1  0  0  0  0
 16 17  1  0  0  0  0
 17 18  1  0  0  0  0
M  END
> <ID>
9139

> <Formula>
C17H37N

> <FW>
255.4824

> <DSSTox_CID>
22209

> <DSSTox_RID>
79959

> <DSSTox_GSID>
42209

> <DSSTox_FileID_Sort>
4641

> <TS_ChemName>
N-Methyldioctylamine

> <TS_ChemName_Synonyms>


> <TS_CASRN>
4455-26-9

> <CASRN_ChemName_Relationship>
primary

> <TS_Description>
single chemical compound

> <ChemNote>


> <STRUCTURE_Shown>
tested chemical

> <STRUCTURE_Formula>
C17H37N

> <STRUCTURE_MW>
255.4824

> <STRUCTURE_ChemType>
defined organic

> <STRUCTURE_DefinedOrganicForm>
parent

> <STRUCTURE_IUPAC>
N-methyl-N-octyloctan-1-amine

> <STRUCTURE_SMILES>
CN(CCCCCCCC)CCCCCCCC

> <STRUCTURE_SMILES_Desalt>
CN(CCCCCCCC)CCCCCCCC

> <Substance_modify_yyyymmdd>
20080825

$$$$
