4462-55-9
ChemmineR-0915142007XD

 17 18  0  0  0  0  0  0  0  0  1 V2000
    5.2767   -5.8253    0.0000 C    0  0  0  0  0  0  0  0  0  0  0  0
    4.7478   -4.6171    0.0000 C    0  0  0  0  0  0  0  0  0  0  0  0
    3.4416   -4.3298    0.0000 C    0  0  0  0  0  0  0  0  0  0  0  0
    2.4424   -5.2310    0.0000 C    0  0  0  0  0  0  0  0  0  0  0  0
    1.1886   -4.8261    0.0000 Cl   0  0  0  0  0  0  0  0  0  0  0  0
    2.7167   -6.5306    0.0000 O    0  0  0  0  0  0  0  0  0  0  0  0
    3.2980   -3.0237    0.0000 C    0  0  0  0  0  0  0  0  0  0  0  0
    4.5061   -2.4751    0.0000 N    0  0  0  0  0  0  0  0  0  0  0  0
    5.4073   -3.4743    0.0000 O    0  0  0  0  0  0  0  0  0  0  0  0
    2.2857   -2.1747    0.0000 C    0  0  0  0  0  0  0  0  0  0  0  0
    2.5078   -0.8555    0.0000 C    0  0  0  0  0  0  0  0  0  0  0  0
    3.7616   -0.4049    0.0000 Cl   0  0  0  0  0  0  0  0  0  0  0  0
    1.4824    0.0000    0.0000 C    0  0  0  0  0  0  0  0  0  0  0  0
    0.2416   -0.4506    0.0000 C    0  0  0  0  0  0  0  0  0  0  0  0
    0.0000   -1.7502    0.0000 C    0  0  0  0  0  0  0  0  0  0  0  0
    1.0318   -2.6188    0.0000 C    0  0  0  0  0  0  0  0  0  0  0  0
    0.8033   -3.9380    0.0000 Cl   0  0  0  0  0  0  0  0  0  0  0  0
  1  2  1  0  0  0  0
  2  3  2  0  0  0  0
  2  9  1  0  0  0  0
  3  4  1  0  0  0  0
  3  7  1  0  0  0  0
  4  5  1  0  0  0  0
  4  6  2  0  0  0  0
  7  8  2  0  0  0  0
  7 10  1  0  0  0  0
  8  9  1  0  0  0  0
 10 11  2  0  0  0  0
 10 16  1  0  0  0  0
 11 12  1  0  0  0  0
 11 13  1  0  0  0  0
 13 14  2  0  0  0  0
 14 15  1  0  0  0  0
 15 16  2  0  0  0  0
 16 17  1  0  0  0  0
M  END
> <ID>
16147

> <Formula>
C11H6Cl3NO2

> <FW>
290.5298

> <DSSTox_CID>
31536

> <DSSTox_RID>
97421

> <DSSTox_GSID>
57747

> <DSSTox_FileID_Sort>
8488

> <TS_ChemName>
3-(2,6-Dichlorophenyl)-5-methylisoxazole-4-carbonyl chloride

> <TS_ChemName_Synonyms>


> <TS_CASRN>
4462-55-9

> <CASRN_ChemName_Relationship>
primary

> <TS_Description>
single chemical compound

> <ChemNote>


> <STRUCTURE_Shown>
tested chemical

> <STRUCTURE_Formula>
C11H6Cl3NO2

> <STRUCTURE_MW>
290.5298

> <STRUCTURE_ChemType>
defined organic

> <STRUCTURE_DefinedOrganicForm>
parent

> <STRUCTURE_IUPAC>
3-(2,6-dichlorophenyl)-5-methyl-1,2-oxazole-4-carbonyl chloride

> <STRUCTURE_SMILES>
ClC(=O)c2c(C)onc2c1c(Cl)cccc1Cl

> <STRUCTURE_SMILES_Desalt>
ClC(=O)c2c(C)onc2c1c(Cl)cccc1Cl

> <Substance_modify_yyyymmdd>
20131018

$$$$
