4468-42-2
ChemmineR-0915142007XD

 12 12  0  0  0  0  0  0  0  0  1 V2000
    0.0000   -3.9839    0.0000 C   0  0  0  0  0  0  0  0  0  0  0  0
    1.1646   -4.6642    0.0000 C   0  0  0  0  0  0  0  0  0  0  0  0
    2.3004   -3.9839    0.0000 C   0  0  0  0  0  0  0  0  0  0  0  0
    3.4650   -4.6642    0.0000 C   0  0  0  0  0  0  0  0  0  0  0  0
    4.6296   -3.9839    0.0000 C   0  0  0  0  0  0  0  0  0  0  0  0
    5.7654   -4.6642    0.0000 C   0  0  0  0  0  0  0  0  0  0  0  0
    3.4362   -0.6803    0.0000 C   0  0  0  0  0  0  0  0  0  0  0  0
    2.3004    0.0000    0.0000 C   0  0  0  0  0  0  0  0  0  0  0  0
    1.1358   -0.6803    0.0000 C   0  0  0  0  0  0  0  0  0  0  0  0
    1.1358   -1.9775    0.0000 C   0  0  0  0  0  0  0  0  0  0  0  0
    2.3004   -2.6578    0.0000 C   0  0  0  0  0  0  0  0  0  0  0  0
    3.4362   -1.9775    0.0000 C   0  0  0  0  0  0  0  0  0  0  0  0
  1  2  1  0  0  0  0
  2  3  1  0  0  0  0
  3  4  1  0  0  0  0
  3 11  1  0  0  0  0
  4  5  1  0  0  0  0
  5  6  1  0  0  0  0
  7 12  2  0  0  0  0
  7  8  1  0  0  0  0
  8  9  2  0  0  0  0
  9 10  1  0  0  0  0
 10 11  2  0  0  0  0
 11 12  1  0  0  0  0
M  END
> <ID>
8458

> <Formula>
C12H18

> <FW>
162.2713

> <DSSTox_CID>
21492

> <DSSTox_RID>
79751

> <DSSTox_GSID>
41492

> <DSSTox_FileID_Sort>
4433

> <TS_ChemName>
3-Phenylhexane

> <TS_ChemName_Synonyms>


> <TS_CASRN>
4468-42-2

> <CASRN_ChemName_Relationship>
primary

> <TS_Description>
single chemical compound

> <ChemNote>


> <STRUCTURE_Shown>
tested chemical

> <STRUCTURE_Formula>
C12H18

> <STRUCTURE_MW>
162.2713

> <STRUCTURE_ChemType>
defined organic

> <STRUCTURE_DefinedOrganicForm>
parent

> <STRUCTURE_IUPAC>
hexan-3-ylbenzene

> <STRUCTURE_SMILES>
CCC(CCC)c1ccccc1

> <STRUCTURE_SMILES_Desalt>
CCC(CCC)c1ccccc1

> <Substance_modify_yyyymmdd>
20080825

$$$$
