448245-52-1
ChemmineR-0915142007XD

 15 14  0  0  0  0  0  0  0  0  2 V2000
    6.6201   -1.0674    0.0000 N   0  3  0  0  0  0  0  0  0  0  0  0
    4.5989   -1.7260    0.0000 N   0  0  0  0  0  0  0  0  0  0  0  0
    5.8480   -2.1575    0.0000 C   0  0  0  0  0  0  0  0  0  0  0  0
    5.8480    0.0000    0.0000 C   0  0  0  0  0  0  0  0  0  0  0  0
    4.5989   -0.4201    0.0000 C   0  0  0  0  0  0  0  0  0  0  0  0
    3.5088   -2.5322    0.0000 C   0  0  0  0  0  0  0  0  0  0  0  0
    2.2938   -1.9531    0.0000 C   0  0  0  0  0  0  0  0  0  0  0  0
    1.2264   -2.7366    0.0000 C   0  0  0  0  0  0  0  0  0  0  0  0
    0.0000   -2.1916    0.0000 C   0  0  0  0  0  0  0  0  0  0  0  0
    7.9828   -1.0674    0.0000 C   0  0  0  0  0  0  0  0  0  0  0  0
   10.0381   -4.1674    0.0000 N   0  0  0  0  0  0  0  0  0  0  0  0
    8.7095   -4.1674    0.0000 C   0  0  0  0  0  0  0  0  0  0  0  0
    7.3923   -4.1674    0.0000 N   0  5  0  0  0  0  0  0  0  0  0  0
   10.6853   -3.0205    0.0000 C   0  0  0  0  0  0  0  0  0  0  0  0
   11.3553   -1.8736    0.0000 N   0  0  0  0  0  0  0  0  0  0  0  0
  1  3  2  0  0  0  0
  1  4  1  0  0  0  0
  1 10  1  0  0  0  0
  2  3  1  0  0  0  0
  2  5  1  0  0  0  0
  2  6  1  0  0  0  0
  4  5  2  0  0  0  0
  6  7  1  0  0  0  0
  7  8  1  0  0  0  0
  8  9  1  0  0  0  0
 11 12  2  0  0  0  0
 11 14  1  0  0  0  0
 12 13  2  0  0  0  0
 14 15  3  0  0  0  0
M  END
> <ID>
12985

> <Formula>
C10H15N5

> <FW>
205.2596 (139.2176+66.0420)

> <DSSTox_CID>
27886

> <DSSTox_RID>
82639

> <DSSTox_GSID>
47910

> <DSSTox_FileID_Sort>
7316

> <TS_ChemName>
1-Butyl-3-methylimidazolium dicyanamide

> <TS_ChemName_Synonyms>


> <TS_CASRN>
448245-52-1

> <CASRN_ChemName_Relationship>
primary

> <TS_Description>
single chemical compound

> <ChemNote>
ammonium; parent [80432-08-2]

> <STRUCTURE_Shown>
tested chemical

> <STRUCTURE_Formula>
C10H15N5

> <STRUCTURE_MW>
205.2596

> <STRUCTURE_ChemType>
defined organic

> <STRUCTURE_DefinedOrganicForm>
salt

> <STRUCTURE_IUPAC>
1-butyl-3-methyl-1H-imidazol-3-ium [(cyanoimino)methylidene]azanide

> <STRUCTURE_SMILES>
CCCCn1cc[n+](C)c1.N#C\N=C=[N-]

> <STRUCTURE_SMILES_Desalt>
CCCCn1cc[n+](C)c1

> <Substance_modify_yyyymmdd>
20110419

$$$$
