44860-68-6
ChemmineR-0915142007XD

  9  8  0  0  0  0  0  0  0  0  1 V2000
    8.0952    0.0000    0.0000 C   0  0  0  0  0  0  0  0  0  0  0  0
    6.9388   -0.6569    0.0000 C   0  0  0  0  0  0  0  0  0  0  0  0
    9.2517   -0.6569    0.0000 O   0  0  0  0  0  0  0  0  0  0  0  0
    1.1565    0.0000    0.0000 C   0  0  0  0  0  0  0  0  0  0  0  0
    2.3314   -0.6569    0.0000 C   0  0  0  0  0  0  0  0  0  0  0  0
    0.0000   -0.6569    0.0000 O   0  0  0  0  0  0  0  0  0  0  0  0
    4.6258   -0.6569    0.0000 C   0  0  0  0  0  0  0  0  0  0  0  0
    3.4879    0.0000    0.0000 S   0  0  0  0  0  0  0  0  0  0  0  0
    5.7823    0.0000    0.0000 S   0  0  0  0  0  0  0  0  0  0  0  0
  1  2  1  0  0  0  0
  1  3  1  0  0  0  0
  2  9  1  0  0  0  0
  4  5  1  0  0  0  0
  4  6  1  0  0  0  0
  5  8  1  0  0  0  0
  7  8  1  0  0  0  0
  7  9  1  0  0  0  0
M  END
> <ID>
10592

> <Formula>
C5H12O2S2

> <FW>
168.2776

> <DSSTox_CID>
24945

> <DSSTox_RID>
80606

> <DSSTox_GSID>
44945

> <DSSTox_FileID_Sort>
5288

> <TS_ChemName>
2,2'-(Methanediyldisulfanediyl)diethanol

> <TS_ChemName_Synonyms>
2,2'-(Methanediyldisulfanediyl)diethanol (Ethanol, 2,2'-[methylenebis(thio)]bis-)

> <TS_CASRN>
44860-68-6

> <CASRN_ChemName_Relationship>
primary

> <TS_Description>
single chemical compound

> <ChemNote>


> <STRUCTURE_Shown>
tested chemical

> <STRUCTURE_Formula>
C5H12O2S2

> <STRUCTURE_MW>
168.2776

> <STRUCTURE_ChemType>
defined organic

> <STRUCTURE_DefinedOrganicForm>
parent

> <STRUCTURE_IUPAC>
2,2'-(methanediyldisulfanediyl)diethanol

> <STRUCTURE_SMILES>
OCCSCSCCO

> <STRUCTURE_SMILES_Desalt>
OCCSCSCCO

> <Substance_modify_yyyymmdd>
20091116

$$$$
