44992-01-0
ChemmineR-0915142007XD

 12 10  0  0  0  0  0  0  0  0  2 V2000
    5.7716   -2.0030    0.0000 C    0  0  0  0  0  0  0  0  0  0  0  0
    4.6152   -1.3319    0.0000 C    0  0  0  0  0  0  0  0  0  0  0  0
    6.9074   -1.3319    0.0000 N    0  3  0  0  0  0  0  0  0  0  0  0
    8.0638   -0.6814    0.0000 C    0  0  0  0  0  0  0  0  0  0  0  0
    6.2569   -0.1962    0.0000 C    0  0  0  0  0  0  0  0  0  0  0  0
    7.5785   -2.4883    0.0000 C    0  0  0  0  0  0  0  0  0  0  0  0
    3.4589   -2.0030    0.0000 O    0  0  0  0  0  0  0  0  0  0  0  0
    2.3128   -1.3319    0.0000 C    0  0  0  0  0  0  0  0  0  0  0  0
    1.1564   -2.0030    0.0000 C    0  0  0  0  0  0  0  0  0  0  0  0
    0.0000   -1.3319    0.0000 C    0  0  0  0  0  0  0  0  0  0  0  0
    2.3128    0.0000    0.0000 O    0  0  0  0  0  0  0  0  0  0  0  0
   10.3249   -1.0325    0.0000 Cl   0  5  0  0  0  0  0  0  0  0  0  0
  1  2  1  0  0  0  0
  1  3  1  0  0  0  0
  2  7  1  0  0  0  0
  3  4  1  0  0  0  0
  3  5  1  0  0  0  0
  3  6  1  0  0  0  0
  7  8  1  0  0  0  0
  8  9  1  0  0  0  0
  8 11  2  0  0  0  0
  9 10  2  0  0  0  0
M  END
> <ID>
5589

> <Formula>
C8H16ClNO2

> <FW>
193.6711 (158.2176+35.4535)

> <DSSTox_CID>
8016

> <DSSTox_RID>
78641

> <DSSTox_GSID>
28016

> <DSSTox_FileID_Sort>
3323

> <TS_ChemName>
Ethanaminium, N,N,N-trimethyl-2-[(1-oxo-2-propenyl)oxy]-, chloride

> <TS_ChemName_Synonyms>


> <TS_CASRN>
44992-01-0

> <CASRN_ChemName_Relationship>
primary

> <TS_Description>
single chemical compound

> <ChemNote>
ammonium

> <STRUCTURE_Shown>
tested chemical

> <STRUCTURE_Formula>
C8H16ClNO2

> <STRUCTURE_MW>
193.6711

> <STRUCTURE_ChemType>
defined organic

> <STRUCTURE_DefinedOrganicForm>
salt

> <STRUCTURE_IUPAC>
2-(acryloyloxy)-N,N,N-trimethylethanaminium chloride

> <STRUCTURE_SMILES>
[Cl-].C[N+](C)(C)CCOC(=O)C=C

> <STRUCTURE_SMILES_Desalt>
C[N+](C)(C)CCOC(=O)C=C

> <Substance_modify_yyyymmdd>
20080429

$$$$
