451-40-1
ChemmineR-0915142007XD

 15 16  0  0  0  0  0  0  0  0  1 V2000
    4.6045   -2.6530    0.0000 C   0  0  0  0  0  0  0  0  0  0  0  0
    3.4594   -1.9837    0.0000 C   0  0  0  0  0  0  0  0  0  0  0  0
    4.6045   -3.9836    0.0000 O   0  0  0  0  0  0  0  0  0  0  0  0
    5.7576   -1.9837    0.0000 C   0  0  0  0  0  0  0  0  0  0  0  0
    2.3063   -2.6530    0.0000 C   0  0  0  0  0  0  0  0  0  0  0  0
    5.7576   -0.6532    0.0000 C   0  0  0  0  0  0  0  0  0  0  0  0
    6.9108   -2.6530    0.0000 C   0  0  0  0  0  0  0  0  0  0  0  0
    2.3063   -3.9836    0.0000 C   0  0  0  0  0  0  0  0  0  0  0  0
    1.1531   -1.9837    0.0000 C   0  0  0  0  0  0  0  0  0  0  0  0
    6.9108    0.0000    0.0000 C   0  0  0  0  0  0  0  0  0  0  0  0
    8.0639   -1.9837    0.0000 C   0  0  0  0  0  0  0  0  0  0  0  0
    0.0000   -2.6530    0.0000 C   0  0  0  0  0  0  0  0  0  0  0  0
    1.1531   -4.6367    0.0000 C   0  0  0  0  0  0  0  0  0  0  0  0
    8.0639   -0.6532    0.0000 C   0  0  0  0  0  0  0  0  0  0  0  0
    0.0000   -3.9836    0.0000 C   0  0  0  0  0  0  0  0  0  0  0  0
  1  2  1  0  0  0  0
  1  3  2  0  0  0  0
  1  4  1  0  0  0  0
  2  5  1  0  0  0  0
  4  6  2  0  0  0  0
  4  7  1  0  0  0  0
  5  8  2  0  0  0  0
  5  9  1  0  0  0  0
  6 10  1  0  0  0  0
  7 11  2  0  0  0  0
  8 13  1  0  0  0  0
  9 12  2  0  0  0  0
 10 14  2  0  0  0  0
 11 14  1  0  0  0  0
 12 15  1  0  0  0  0
 13 15  2  0  0  0  0
M  END
> <ID>
10087

> <Formula>
C14H12O

> <FW>
196.2445

> <DSSTox_CID>
24430

> <DSSTox_RID>
80222

> <DSSTox_GSID>
44430

> <DSSTox_FileID_Sort>
4904

> <TS_ChemName>
1,2-Diphenylethanone

> <TS_ChemName_Synonyms>
Ethanone, 1,2-diphenyl-

> <TS_CASRN>
451-40-1

> <CASRN_ChemName_Relationship>
primary

> <TS_Description>
single chemical compound

> <ChemNote>


> <STRUCTURE_Shown>
tested chemical

> <STRUCTURE_Formula>
C14H12O

> <STRUCTURE_MW>
196.2445

> <STRUCTURE_ChemType>
defined organic

> <STRUCTURE_DefinedOrganicForm>
parent

> <STRUCTURE_IUPAC>
1,2-diphenylethanone

> <STRUCTURE_SMILES>
O=C(Cc1ccccc1)c2ccccc2

> <STRUCTURE_SMILES_Desalt>
O=C(Cc1ccccc1)c2ccccc2

> <Substance_modify_yyyymmdd>
20091116

$$$$
