452-35-7
ChemmineR-0915142007XD

 16 17  0  0  0  0  0  0  0  0  1 V2000
    7.0141   -0.6595    0.0000 C   0  0  0  0  0  0  0  0  0  0  0  0
    8.1657    0.0000    0.0000 O   0  0  0  0  0  0  0  0  0  0  0  0
    9.3173   -0.6595    0.0000 C   0  0  0  0  0  0  0  0  0  0  0  0
   10.4689    0.0000    0.0000 C   0  0  0  0  0  0  0  0  0  0  0  0
    7.0141   -1.9891    0.0000 C   0  0  0  0  0  0  0  0  0  0  0  0
    5.8626   -2.6591    0.0000 C   0  0  0  0  0  0  0  0  0  0  0  0
    4.7110   -1.9891    0.0000 C   0  0  0  0  0  0  0  0  0  0  0  0
    4.7110   -0.6595    0.0000 C   0  0  0  0  0  0  0  0  0  0  0  0
    5.8626    0.0000    0.0000 C   0  0  0  0  0  0  0  0  0  0  0  0
    3.4443   -0.2513    0.0000 S   0  0  0  0  0  0  0  0  0  0  0  0
    2.6591   -1.3295    0.0000 C   0  0  0  0  0  0  0  0  0  0  0  0
    1.3295   -1.3295    0.0000 S   0  0  0  0  0  0  0  0  0  0  0  0
    0.0000   -1.3295    0.0000 N   0  0  0  0  0  0  0  0  0  0  0  0
    1.3295   -2.6591    0.0000 O   0  0  0  0  0  0  0  0  0  0  0  0
    1.3295    0.0000    0.0000 O   0  0  0  0  0  0  0  0  0  0  0  0
    3.4443   -2.4078    0.0000 N   0  0  0  0  0  0  0  0  0  0  0  0
  1  2  1  0  0  0  0
  1  5  2  0  0  0  0
  1  9  1  0  0  0  0
  2  3  1  0  0  0  0
  3  4  1  0  0  0  0
  5  6  1  0  0  0  0
  6  7  2  0  0  0  0
  7  8  1  0  0  0  0
  7 16  1  0  0  0  0
  8  9  2  0  0  0  0
  8 10  1  0  0  0  0
 10 11  1  0  0  0  0
 11 12  1  0  0  0  0
 11 16  2  0  0  0  0
 12 13  1  0  0  0  0
 12 14  2  0  0  0  0
 12 15  2  0  0  0  0
M  END
> <ID>
2717

> <Formula>
C9H10N2O3S2

> <FW>
258.3173

> <DSSTox_CID>
3021

> <DSSTox_RID>
76834

> <DSSTox_GSID>
23021

> <DSSTox_FileID_Sort>
1518

> <TS_ChemName>
Ethoxzolamide

> <TS_ChemName_Synonyms>


> <TS_CASRN>
452-35-7

> <CASRN_ChemName_Relationship>
primary

> <TS_Description>
single chemical compound

> <ChemNote>


> <STRUCTURE_Shown>
tested chemical

> <STRUCTURE_Formula>
C9H10N2O3S2

> <STRUCTURE_MW>
258.3173

> <STRUCTURE_ChemType>
defined organic

> <STRUCTURE_DefinedOrganicForm>
parent

> <STRUCTURE_IUPAC>
6-ethoxy-1,3-benzothiazole-2-sulfonamide

> <STRUCTURE_SMILES>
NS(=O)(=O)c1nc2ccc(cc2s1)OCC

> <STRUCTURE_SMILES_Desalt>
NS(=O)(=O)c1nc2ccc(cc2s1)OCC

> <Substance_modify_yyyymmdd>
20080429

$$$$
