454-92-2
ChemmineR-0915142007XD

 13 13  0  0  0  0  0  0  0  0  1 V2000
    5.7484   -1.3351    0.0000 C   0  0  0  0  0  0  0  0  0  0  0  0
    5.7484    0.0000    0.0000 O   0  0  0  0  0  0  0  0  0  0  0  0
    4.6070   -1.9922    0.0000 C   0  0  0  0  0  0  0  0  0  0  0  0
    6.9174   -1.9922    0.0000 O   0  0  0  0  0  0  0  0  0  0  0  0
    3.4518   -1.3489    0.0000 C   0  0  0  0  0  0  0  0  0  0  0  0
    4.6208   -3.3273    0.0000 C   0  0  0  0  0  0  0  0  0  0  0  0
    2.3242   -2.0060    0.0000 C   0  0  0  0  0  0  0  0  0  0  0  0
    3.4795   -3.9983    0.0000 C   0  0  0  0  0  0  0  0  0  0  0  0
    2.3242   -3.3411    0.0000 C   0  0  0  0  0  0  0  0  0  0  0  0
    1.1552   -1.3489    0.0000 C   0  0  0  0  0  0  0  0  0  0  0  0
    1.8124   -0.1937    0.0000 F   0  0  0  0  0  0  0  0  0  0  0  0
    0.4981   -2.5249    0.0000 F   0  0  0  0  0  0  0  0  0  0  0  0
    0.0000   -0.6917    0.0000 F   0  0  0  0  0  0  0  0  0  0  0  0
  1  2  2  0  0  0  0
  1  3  1  0  0  0  0
  1  4  1  0  0  0  0
  3  5  2  0  0  0  0
  3  6  1  0  0  0  0
  5  7  1  0  0  0  0
  6  8  2  0  0  0  0
  7  9  2  0  0  0  0
  7 10  1  0  0  0  0
  8  9  1  0  0  0  0
 10 11  1  0  0  0  0
 10 12  1  0  0  0  0
 10 13  1  0  0  0  0
M  END
> <ID>
8426

> <Formula>
C8H5F3O2

> <FW>
190.1193

> <DSSTox_CID>
21460

> <DSSTox_RID>
79741

> <DSSTox_GSID>
41460

> <DSSTox_FileID_Sort>
4423

> <TS_ChemName>
3-(Trifluoromethyl)benzoic acid

> <TS_ChemName_Synonyms>
3-(Trifluoromethyl)benzoic acid (metabolite of metaflumizone (BAS 320 I))

> <TS_CASRN>
454-92-2

> <CASRN_ChemName_Relationship>
primary

> <TS_Description>
single chemical compound

> <ChemNote>
metabolite of metaflumizone (BAS 320 I)

> <STRUCTURE_Shown>
tested chemical

> <STRUCTURE_Formula>
C8H5F3O2

> <STRUCTURE_MW>
190.1193

> <STRUCTURE_ChemType>
defined organic

> <STRUCTURE_DefinedOrganicForm>
parent

> <STRUCTURE_IUPAC>
3-(trifluoromethyl)benzoic acid

> <STRUCTURE_SMILES>
FC(F)(F)c1cccc(c1)C(=O)O

> <STRUCTURE_SMILES_Desalt>
FC(F)(F)c1cccc(c1)C(=O)O

> <Substance_modify_yyyymmdd>
20080825

$$$$
