4544-15-4
ChemmineR-0915142007XD

 26 27  0  0  0  0  0  0  0  0  1 V2000
    3.9866   -5.3155    0.0000 O    0  0  0  0  0  0  0  0  0  0  0  0
    3.9866   -3.9866    0.0000 C    0  0  0  0  0  0  0  0  0  0  0  0
    5.3155   -3.9866    0.0000 C    0  0  0  0  0  0  0  0  0  0  0  0
    5.9859   -5.1359    0.0000 O    0  0  0  0  0  0  0  0  0  0  0  0
    5.9859   -2.8373    0.0000 O    0  0  0  0  0  0  0  0  0  0  0  0
    7.3147   -2.8373    0.0000 C    0  0  0  0  0  0  0  0  0  0  0  0
    7.9852   -1.6880    0.0000 C    0  0  0  0  0  0  0  0  0  0  0  0
    9.3140   -1.6880    0.0000 N    0  0  0  0  0  0  0  0  0  0  0  0
    9.9725   -0.5268    0.0000 C    0  0  0  0  0  0  0  0  0  0  0  0
   11.3013   -0.5268    0.0000 C    0  0  0  0  0  0  0  0  0  0  0  0
   11.9718   -1.6880    0.0000 C    0  0  0  0  0  0  0  0  0  0  0  0
   11.3013   -2.8373    0.0000 C    0  0  0  0  0  0  0  0  0  0  0  0
    9.9725   -2.8373    0.0000 C    0  0  0  0  0  0  0  0  0  0  0  0
    2.6577   -3.9866    0.0000 C    0  0  0  0  0  0  0  0  0  0  0  0
    1.9993   -5.1359    0.0000 C    0  0  0  0  0  0  0  0  0  0  0  0
    0.6704   -5.1359    0.0000 C    0  0  0  0  0  0  0  0  0  0  0  0
    0.0000   -3.9866    0.0000 C    0  0  0  0  0  0  0  0  0  0  0  0
    0.6704   -2.8373    0.0000 C    0  0  0  0  0  0  0  0  0  0  0  0
    1.9993   -2.8373    0.0000 C    0  0  0  0  0  0  0  0  0  0  0  0
    3.9866   -2.6577    0.0000 C    0  0  0  0  0  0  0  0  0  0  0  0
    2.8373   -1.9873    0.0000 C    0  0  0  0  0  0  0  0  0  0  0  0
    2.8373   -0.6584    0.0000 C    0  0  0  0  0  0  0  0  0  0  0  0
    3.9866    0.0000    0.0000 C    0  0  0  0  0  0  0  0  0  0  0  0
    5.1479   -0.6584    0.0000 C    0  0  0  0  0  0  0  0  0  0  0  0
    5.1479   -1.9873    0.0000 C    0  0  0  0  0  0  0  0  0  0  0  0
    8.6436   -4.5134    0.0000 Cl   0  0  0  0  0  0  0  0  0  0  0  0
  1  2  1  0  0  0  0
  2  3  1  0  0  0  0
  2 14  1  0  0  0  0
  2 20  1  0  0  0  0
  3  4  2  0  0  0  0
  3  5  1  0  0  0  0
  5  6  1  0  0  0  0
  6  7  1  0  0  0  0
  7  8  1  0  0  0  0
  8  9  1  0  0  0  0
  8 13  1  0  0  0  0
  9 10  1  0  0  0  0
 10 11  1  0  0  0  0
 11 12  1  0  0  0  0
 12 13  1  0  0  0  0
 14 15  2  0  0  0  0
 14 19  1  0  0  0  0
 15 16  1  0  0  0  0
 16 17  2  0  0  0  0
 17 18  1  0  0  0  0
 18 19  2  0  0  0  0
 20 21  2  0  0  0  0
 20 25  1  0  0  0  0
 21 22  1  0  0  0  0
 22 23  2  0  0  0  0
 23 24  1  0  0  0  0
 24 25  2  0  0  0  0
M  END
> <ID>
12927

> <Formula>
C21H26ClNO3

> <FW>
375.8890 (339.4281+36.4609)

> <DSSTox_CID>
27828

> <DSSTox_RID>
82591

> <DSSTox_GSID>
47850

> <DSSTox_FileID_Sort>
7268

> <TS_ChemName>
Piperilate hydrochloride

> <TS_ChemName_Synonyms>


> <TS_CASRN>
4544-15-4

> <CASRN_ChemName_Relationship>
primary

> <TS_Description>
single chemical compound

> <ChemNote>


> <STRUCTURE_Shown>
tested chemical

> <STRUCTURE_Formula>
C21H26ClNO3

> <STRUCTURE_MW>
375.889

> <STRUCTURE_ChemType>
defined organic

> <STRUCTURE_DefinedOrganicForm>
complex

> <STRUCTURE_IUPAC>
2-(piperidin-1-yl)ethyl hydroxy(diphenyl)acetate hydrochloride (1:1)

> <STRUCTURE_SMILES>
Cl.OC(c1ccccc1)(c2ccccc2)C(=O)OCCN3CCCCC3

> <STRUCTURE_SMILES_Desalt>
OC(c1ccccc1)(c2ccccc2)C(=O)OCCN3CCCCC3

> <Substance_modify_yyyymmdd>


$$$$
