4548-53-2
ChemmineR-0915142007XD

 31 31  0  0  0  0  0  0  0  0  2 V2000
   11.6489   -3.6771    0.0000 C    0  0  0  0  0  0  0  0  0  0  0  0
   10.9752   -4.8280    0.0000 C    0  0  0  0  0  0  0  0  0  0  0  0
    9.6419   -4.8280    0.0000 C    0  0  0  0  0  0  0  0  0  0  0  0
    8.9823   -3.6771    0.0000 C    0  0  0  0  0  0  0  0  0  0  0  0
    9.6419   -2.5263    0.0000 C    0  0  0  0  0  0  0  0  0  0  0  0
   10.9752   -2.5263    0.0000 C    0  0  0  0  0  0  0  0  0  0  0  0
   11.6489   -1.3614    0.0000 S    0  0  0  0  0  0  0  0  0  0  0  0
   10.4840   -0.6877    0.0000 O    0  0  0  0  0  0  0  0  0  0  0  0
   12.7998   -2.0210    0.0000 O    0  0  0  0  0  0  0  0  0  0  0  0
   12.3085   -0.2105    0.0000 O    0  5  0  0  0  0  0  0  0  0  0  0
    7.6490   -3.6771    0.0000 N    0  0  0  0  0  0  0  0  0  0  0  0
    6.3157   -3.6771    0.0000 N    0  0  0  0  0  0  0  0  0  0  0  0
    4.9824   -3.6771    0.0000 C    0  0  0  0  0  0  0  0  0  0  0  0
    4.3087   -4.8280    0.0000 C    0  0  0  0  0  0  0  0  0  0  0  0
    2.9894   -4.8280    0.0000 C    0  0  0  0  0  0  0  0  0  0  0  0
    2.3298   -3.6771    0.0000 C    0  0  0  0  0  0  0  0  0  0  0  0
    2.9894   -2.5263    0.0000 C    0  0  0  0  0  0  0  0  0  0  0  0
    4.3087   -2.5263    0.0000 C    0  0  0  0  0  0  0  0  0  0  0  0
    4.9824   -1.3614    0.0000 C    0  0  0  0  0  0  0  0  0  0  0  0
    0.9965   -3.6771    0.0000 C    0  0  0  0  0  0  0  0  0  0  0  0
    2.3298   -5.9648    0.0000 S    0  0  0  0  0  0  0  0  0  0  0  0
    1.1649   -5.3052    0.0000 O    0  0  0  0  0  0  0  0  0  0  0  0
    3.4806   -6.6385    0.0000 O    0  0  0  0  0  0  0  0  0  0  0  0
    1.6561   -7.1297    0.0000 O    0  5  0  0  0  0  0  0  0  0  0  0
    8.9823   -5.9648    0.0000 O    0  0  0  0  0  0  0  0  0  0  0  0
   11.6489   -5.9648    0.0000 C    0  0  0  0  0  0  0  0  0  0  0  0
   12.9822   -5.9648    0.0000 C    0  0  0  0  0  0  0  0  0  0  0  0
   13.6278   -4.8280    0.0000 C    0  0  0  0  0  0  0  0  0  0  0  0
   12.9822   -3.6771    0.0000 C    0  0  0  0  0  0  0  0  0  0  0  0
   14.0348    0.0000    0.0000 Na   0  3  0  0  0  0  0  0  0  0  0  0
    0.0000   -7.1718    0.0000 Na   0  3  0  0  0  0  0  0  0  0  0  0
  1  2  1  0  0  0  0
  1  6  2  0  0  0  0
  1 29  1  0  0  0  0
  2  3  2  0  0  0  0
  2 26  1  0  0  0  0
  3  4  1  0  0  0  0
  3 25  1  0  0  0  0
  4  5  2  0  0  0  0
  4 11  1  0  0  0  0
  5  6  1  0  0  0  0
  6  7  1  0  0  0  0
  7  8  2  0  0  0  0
  7  9  2  0  0  0  0
  7 10  1  0  0  0  0
 11 12  2  0  0  0  0
 12 13  1  0  0  0  0
 13 14  2  0  0  0  0
 13 18  1  0  0  0  0
 14 15  1  0  0  0  0
 15 16  2  0  0  0  0
 15 21  1  0  0  0  0
 16 17  1  0  0  0  0
 16 20  1  0  0  0  0
 17 18  2  0  0  0  0
 18 19  1  0  0  0  0
 21 22  2  0  0  0  0
 21 23  2  0  0  0  0
 21 24  1  0  0  0  0
 26 27  2  0  0  0  0
 27 28  1  0  0  0  0
 28 29  2  0  0  0  0
M  END
> <ID>
1187

> <Formula>
C18H14N2Na2O7S2

> <FW>
480.4225 (434.4441+22.9892+22.9892)

> <DSSTox_CID>
1234

> <DSSTox_RID>
76026

> <DSSTox_GSID>
21234

> <DSSTox_FileID_Sort>
710

> <TS_ChemName>
FD&C Red 4

> <TS_ChemName_Synonyms>
FD & C Red 4 (C.I. Food Red 1) (Ponceau SX)

> <TS_CASRN>
4548-53-2

> <CASRN_ChemName_Relationship>
primary

> <TS_Description>
single chemical compound

> <ChemNote>
C.I. 14700; parent [14918-59-3]

> <STRUCTURE_Shown>
tested chemical

> <STRUCTURE_Formula>
C18H14N2Na2O7S2

> <STRUCTURE_MW>
480.4225

> <STRUCTURE_ChemType>
defined organic

> <STRUCTURE_DefinedOrganicForm>
salt

> <STRUCTURE_IUPAC>
disodium 3-[(2,4-dimethyl-5-sulfonatophenyl)diazenyl]-4-hydroxynaphthalene-1-sulfonate

> <STRUCTURE_SMILES>
[Na+].[Na+].Cc1cc(C)c(cc1S(=O)([O-])=O)/N=N/c3cc(c2ccccc2c3O)S([O-])(=O)=O

> <STRUCTURE_SMILES_Desalt>
Cc1cc(C)c(cc1S(O)(=O)=O)/N=N/c3cc(c2ccccc2c3O)S(=O)(=O)O

> <Substance_modify_yyyymmdd>
20080429

$$$$
