4553-62-2
ChemmineR-0915142007XD

  8  7  0  0  0  0  0  0  0  0  1 V2000
    0.0000   -1.1549    0.0000 N   0  0  0  0  0  0  0  0  0  0  0  0
    1.3284   -1.1549    0.0000 C   0  0  0  0  0  0  0  0  0  0  0  0
    2.6568   -1.1549    0.0000 C   0  0  0  0  0  0  0  0  0  0  0  0
    3.3270   -2.3038    0.0000 C   0  0  0  0  0  0  0  0  0  0  0  0
    4.6555   -2.3038    0.0000 C   0  0  0  0  0  0  0  0  0  0  0  0
    5.3197   -1.1549    0.0000 C   0  0  0  0  0  0  0  0  0  0  0  0
    5.9839    0.0000    0.0000 N   0  0  0  0  0  0  0  0  0  0  0  0
    3.3270    0.0000    0.0000 C   0  0  0  0  0  0  0  0  0  0  0  0
  1  2  3  0  0  0  0
  2  3  1  0  0  0  0
  3  4  1  0  0  0  0
  3  8  1  0  0  0  0
  4  5  1  0  0  0  0
  5  6  1  0  0  0  0
  6  7  3  0  0  0  0
M  END
> <ID>
4300

> <Formula>
C6H8N2

> <FW>
108.1411

> <DSSTox_CID>
5612

> <DSSTox_RID>
77855

> <DSSTox_GSID>
25612

> <DSSTox_FileID_Sort>
2538

> <TS_ChemName>
2-Methylpentanedinitrile

> <TS_ChemName_Synonyms>
2-Methylglutaronitrile

> <TS_CASRN>
4553-62-2

> <CASRN_ChemName_Relationship>
primary

> <TS_Description>
single chemical compound

> <ChemNote>


> <STRUCTURE_Shown>
tested chemical

> <STRUCTURE_Formula>
C6H8N2

> <STRUCTURE_MW>
108.1411

> <STRUCTURE_ChemType>
defined organic

> <STRUCTURE_DefinedOrganicForm>
parent

> <STRUCTURE_IUPAC>
2-methylpentanedinitrile

> <STRUCTURE_SMILES>
CC(CCC#N)C#N

> <STRUCTURE_SMILES_Desalt>
CC(CCC#N)C#N

> <Substance_modify_yyyymmdd>
20080429

$$$$
