4559-86-8
ChemmineR-0915142007XD

 20 19  0  0  0  0  0  0  0  0  1 V2000
    5.7558   -1.3238    0.0000 C   0  0  0  0  0  0  0  0  0  0  0  0
    5.7558    0.0000    0.0000 O   0  0  0  0  0  0  0  0  0  0  0  0
    6.8955   -1.9915    0.0000 N   0  0  0  0  0  0  0  0  0  0  0  0
    4.6162   -1.9915    0.0000 N   0  0  0  0  0  0  0  0  0  0  0  0
    6.8955   -3.3153    0.0000 C   0  0  0  0  0  0  0  0  0  0  0  0
    8.0581   -3.9830    0.0000 C   0  0  0  0  0  0  0  0  0  0  0  0
    8.0581   -5.3069    0.0000 C   0  0  0  0  0  0  0  0  0  0  0  0
    9.2093   -5.9745    0.0000 C   0  0  0  0  0  0  0  0  0  0  0  0
    8.0581   -1.3238    0.0000 C   0  0  0  0  0  0  0  0  0  0  0  0
    9.2093   -1.9915    0.0000 C   0  0  0  0  0  0  0  0  0  0  0  0
   10.3604   -1.3238    0.0000 C   0  0  0  0  0  0  0  0  0  0  0  0
   11.5116   -1.9915    0.0000 C   0  0  0  0  0  0  0  0  0  0  0  0
    4.6162   -3.3153    0.0000 C   0  0  0  0  0  0  0  0  0  0  0  0
    3.4535   -3.9830    0.0000 C   0  0  0  0  0  0  0  0  0  0  0  0
    3.4535   -5.3069    0.0000 C   0  0  0  0  0  0  0  0  0  0  0  0
    2.3023   -5.9745    0.0000 C   0  0  0  0  0  0  0  0  0  0  0  0
    3.4535   -1.3238    0.0000 C   0  0  0  0  0  0  0  0  0  0  0  0
    2.3023   -1.9915    0.0000 C   0  0  0  0  0  0  0  0  0  0  0  0
    1.1512   -1.3238    0.0000 C   0  0  0  0  0  0  0  0  0  0  0  0
    0.0000   -1.9915    0.0000 C   0  0  0  0  0  0  0  0  0  0  0  0
  1  2  2  0  0  0  0
  1  3  1  0  0  0  0
  1  4  1  0  0  0  0
  3  5  1  0  0  0  0
  3  9  1  0  0  0  0
  4 13  1  0  0  0  0
  4 17  1  0  0  0  0
  5  6  1  0  0  0  0
  6  7  1  0  0  0  0
  7  8  1  0  0  0  0
  9 10  1  0  0  0  0
 10 11  1  0  0  0  0
 11 12  1  0  0  0  0
 13 14  1  0  0  0  0
 14 15  1  0  0  0  0
 15 16  1  0  0  0  0
 17 18  1  0  0  0  0
 18 19  1  0  0  0  0
 19 20  1  0  0  0  0
M  END
> <ID>
9731

> <Formula>
C17H36N2O

> <FW>
284.4805

> <DSSTox_CID>
23902

> <DSSTox_RID>
80085

> <DSSTox_GSID>
43902

> <DSSTox_FileID_Sort>
4767

> <TS_ChemName>
1,1,3,3-Tetrabutylurea

> <TS_ChemName_Synonyms>


> <TS_CASRN>
4559-86-8

> <CASRN_ChemName_Relationship>
primary

> <TS_Description>
single chemical compound

> <ChemNote>


> <STRUCTURE_Shown>
tested chemical

> <STRUCTURE_Formula>
C17H36N2O

> <STRUCTURE_MW>
284.4805

> <STRUCTURE_ChemType>
defined organic

> <STRUCTURE_DefinedOrganicForm>
parent

> <STRUCTURE_IUPAC>
1,1,3,3-tetrabutylurea

> <STRUCTURE_SMILES>
CCCCN(CCCC)C(=O)N(CCCC)CCCC

> <STRUCTURE_SMILES_Desalt>
CCCCN(CCCC)C(=O)N(CCCC)CCCC

> <Substance_modify_yyyymmdd>
20090109

$$$$
