4564-87-8
ChemmineR-0915142007XD

 59 62  0  0  1  0  0  0  0  0  1 V2000
    1.0765   -5.8380    0.0000 O   0  0  0  0  0  0  0  0  0  0  0  0
    2.1737   -6.3970    0.0000 C   0  0  0  0  0  0  0  0  0  0  0  0
    2.1737   -5.1341    0.0000 C   0  0  0  0  0  0  0  0  0  0  0  0
    6.6247   -6.3349    0.0000 C   0  0  0  0  0  0  0  0  0  0  0  0
    7.7426   -6.9766    0.0000 O   0  0  0  0  0  0  0  0  0  0  0  0
    5.5068   -8.2602    0.0000 C   0  0  0  0  0  0  0  0  0  0  0  0
    5.5068   -6.9766    0.0000 C   0  0  0  0  0  0  0  0  0  0  0  0
    3.2916   -8.2602    0.0000 C   0  0  0  0  0  0  0  0  0  0  0  0
    4.4510   -8.8812    0.0000 C   0  0  0  0  0  0  0  0  0  0  0  0
    3.2916   -4.5131    0.0000 C   0  0  0  0  0  0  0  0  0  0  0  0
    6.6247   -5.0513    0.0000 C   0  0  0  0  0  0  0  0  0  0  0  0
    2.1737   -8.8812    0.0000 O   0  0  0  0  0  0  0  0  0  0  0  0
    3.2916   -3.2502    0.0000 C   0  0  0  0  0  0  0  0  0  0  0  0
    1.0765   -6.9766    0.0000 C   0  0  0  0  0  0  0  0  0  0  0  0
    4.4096   -2.6706    0.0000 C   0  0  0  0  0  0  0  0  0  0  0  0
    6.6247   -8.8812    0.0000 O   0  0  0  0  0  0  0  0  0  0  0  0
    5.5068   -4.4096    0.0000 C   0  0  0  0  0  0  0  0  0  0  0  0
    6.6247  -10.1648    0.0000 C   0  0  0  0  0  0  0  0  0  0  0  0
    5.4861   -3.2502    0.0000 C   0  0  0  0  0  0  0  0  0  0  0  0
    1.0765   -8.2602    0.0000 C   0  0  0  0  0  0  0  0  0  0  0  0
    3.2916   -6.9766    0.0000 O   0  0  0  0  0  0  0  0  0  0  0  0
    4.4096   -1.4077    0.0000 O   0  0  0  0  0  0  0  0  0  0  0  0
    7.7219  -10.7858    0.0000 O   0  0  0  0  0  0  0  0  0  0  0  0
    8.8605   -2.4843    0.0000 O   0  0  0  0  0  0  0  0  0  0  0  0
    4.4096   -6.3970    0.0000 O   0  0  0  0  0  0  0  0  0  0  0  0
    7.7426   -3.1053    0.0000 C   0  0  0  0  0  0  0  0  0  0  0  0
    7.7426   -4.4096    0.0000 C   0  0  0  0  0  0  0  0  0  0  0  0
    5.5275  -10.8065    0.0000 C   0  0  0  0  0  0  0  0  0  0  0  0
    6.6040   -2.6706    0.0000 C   0  0  0  0  0  0  0  0  0  0  0  0
    0.0000   -8.8812    0.0000 C   0  0  0  0  0  0  0  0  0  0  0  0
    4.4096   -5.1341    0.0000 C   0  0  0  0  0  0  0  0  0  0  0  0
   11.9865   -6.9766    0.0000 C   0  0  0  0  0  0  0  0  0  0  0  0
   11.2620   -8.1981    0.0000 C   0  0  0  0  0  0  0  0  0  0  0  0
   11.2620   -5.7552    0.0000 C   0  0  0  0  0  0  0  0  0  0  0  0
    9.8542   -8.1981    0.0000 O   0  0  0  0  0  0  0  0  0  0  0  0
    9.8542   -5.7552    0.0000 C   0  0  0  0  0  0  0  0  0  0  0  0
    9.1711   -6.9766    0.0000 C   0  0  0  0  0  0  0  0  0  0  0  0
    9.1711   -4.5338    0.0000 O   0  0  0  0  0  0  0  0  0  0  0  0
   11.9865   -4.5338    0.0000 N   0  0  0  0  0  0  0  0  0  0  0  0
   13.3943   -7.0180    0.0000 O   0  0  0  0  0  0  0  0  0  0  0  0
   11.9865   -9.4195    0.0000 C   0  0  0  0  0  0  0  0  0  0  0  0
   13.3736   -4.5338    0.0000 C   0  0  0  0  0  0  0  0  0  0  0  0
   11.2620   -3.3123    0.0000 C   0  0  0  0  0  0  0  0  0  0  0  0
   17.0586   -4.9271    0.0000 C   0  0  0  0  0  0  0  0  0  0  0  0
   17.0586   -6.3349    0.0000 C   0  0  0  0  0  0  0  0  0  0  0  0
   15.8578   -4.2025    0.0000 C   0  0  0  0  0  0  0  0  0  0  0  0
   15.8578   -7.0180    0.0000 O   0  0  0  0  0  0  0  0  0  0  0  0
   14.6157   -4.9271    0.0000 C   0  0  0  0  0  0  0  0  0  0  0  0
   14.6157   -6.3349    0.0000 C   0  0  0  0  0  0  0  0  0  0  0  0
   15.1333   -2.9811    0.0000 O   0  0  0  0  0  0  0  0  0  0  0  0
   18.2800   -4.2025    0.0000 O   0  0  0  0  0  0  0  0  0  0  0  0
   18.2800   -7.0180    0.0000 C   0  0  0  0  0  0  0  0  0  0  0  0
   16.2512   -2.9811    0.0000 C   0  0  0  0  0  0  0  0  0  0  0  0
   18.2800   -2.7948    0.0000 C   0  0  0  0  0  0  0  0  0  0  0  0
   17.2242   -2.1944    0.0000 O   0  0  0  0  0  0  0  0  0  0  0  0
   19.4600   -2.1323    0.0000 C   0  0  0  0  0  0  0  0  0  0  0  0
   19.4600   -0.6832    0.0000 C   0  0  0  0  0  0  0  0  0  0  0  0
   20.7021    0.0000    0.0000 C   0  0  0  0  0  0  0  0  0  0  0  0
   18.2800    0.0000    0.0000 C   0  0  0  0  0  0  0  0  0  0  0  0
  1  3  1  0  0  0  0
  1  2  1  0  0  0  0
  2  3  1  0  0  0  0
  2 14  1  0  0  0  0
  3 10  1  0  0  0  0
  4  5  1  6  0  0  0
  4  7  1  0  0  0  0
  4 11  1  0  0  0  0
 37  5  1  1  0  0  0
  6  7  1  0  0  0  0
  6  9  1  0  0  0  0
  6 16  1  6  0  0  0
  7 25  1  6  0  0  0
  8  9  1  0  0  0  0
  8 12  1  0  0  0  0
  8 21  2  0  0  0  0
 10 13  2  0  0  0  0
 11 17  1  0  0  0  0
 11 27  1  6  0  0  0
 12 20  1  0  0  0  0
 13 15  1  0  0  0  0
 14 20  1  0  0  0  0
 15 19  1  0  0  0  0
 15 22  2  0  0  0  0
 16 18  1  0  0  0  0
 17 19  1  0  0  0  0
 18 23  2  0  0  0  0
 18 28  1  0  0  0  0
 19 29  1  6  0  0  0
 20 30  1  6  0  0  0
 24 26  2  0  0  0  0
 25 31  1  0  0  0  0
 26 27  1  0  0  0  0
 32 33  1  0  0  0  0
 32 34  1  0  0  0  0
 32 40  1  6  0  0  0
 33 35  1  0  0  0  0
 33 41  1  1  0  0  0
 34 36  1  0  0  0  0
 34 39  1  1  0  0  0
 35 37  1  0  0  0  0
 36 37  1  0  0  0  0
 36 38  1  6  0  0  0
 39 42  1  0  0  0  0
 39 43  1  0  0  0  0
 49 40  1  1  0  0  0
 44 45  1  0  0  0  0
 44 46  1  0  0  0  0
 44 51  1  1  0  0  0
 45 47  1  0  0  0  0
 45 52  1  6  0  0  0
 46 48  1  0  0  0  0
 46 50  1  1  0  0  0
 46 53  1  0  0  0  0
 47 49  1  0  0  0  0
 48 49  1  0  0  0  0
 51 54  1  0  0  0  0
 54 55  2  0  0  0  0
 54 56  1  0  0  0  0
 56 57  1  0  0  0  0
 57 58  1  0  0  0  0
 57 59  1  0  0  0  0
M  END
> <ID>
12026

> <Formula>
C42H67NO16

> <FW>
841.9785

> <DSSTox_CID>
26855

> <DSSTox_RID>
81963

> <DSSTox_GSID>
46855

> <DSSTox_FileID_Sort>
6644

> <TS_ChemName>
Carbomycin A

> <TS_ChemName_Synonyms>


> <TS_CASRN>
4564-87-8

> <CASRN_ChemName_Relationship>
primary

> <TS_Description>
single chemical compound

> <ChemNote>
stereochem; tautomers

> <STRUCTURE_Shown>
tested chemical

> <STRUCTURE_Formula>
C42H67NO16

> <STRUCTURE_MW>
841.9785

> <STRUCTURE_ChemType>
defined organic

> <STRUCTURE_DefinedOrganicForm>
parent

> <STRUCTURE_IUPAC>
(2S,3S,4R,6S)-6-{[(2R,3S,4R,5R,6S)-6-{[(3R,7R,8S,9S,10R,12R,14E)-7-(acetyloxy)-8-methoxy-3,12-dimethyl-5,13-dioxo-10-(2-oxoethyl)-4,17-dioxabicyclo[14.1.0]heptadec-14-en-9-yl]oxy}-4-(dimethylamino)-5-hydroxy-2-methyltetrahydro-2H-pyran-3-yl]oxy}-4-hydroxy

> <STRUCTURE_SMILES>
CC(C)CC(=O)O[C@H]1[C@H](C)O[C@H](C[C@@]1(C)O)O[C@@H]4[C@@H](C)O[C@@H](O[C@@H]2[C@@H](OC)[C@H](OC(C)=O)CC(=O)O[C@H](C)CC3OC3C=CC(=O)[C@H](C)C[C@@H]2CC=O)[C@H](O)[C@H]4N(C)C

> <STRUCTURE_SMILES_Desalt>
CC(C)CC(=O)O[C@H]1[C@H](C)O[C@H](C[C@@]1(C)O)O[C@@H]4[C@@H](C)O[C@@H](O[C@@H]2[C@@H](OC)[C@H](OC(C)=O)CC(=O)O[C@H](C)CC3OC3C=CC(=O)[C@H](C)C[C@@H]2CC=O)[C@H](O)[C@H]4N(C)C

> <Substance_modify_yyyymmdd>
20110729

$$$$
