4568-28-9
ChemmineR-0915142007XD

 30 28  0  0  0  0  0  0  0  0  2 V2000
   17.4341   -2.6685    0.0000 O   0  5  0  0  0  0  0  0  0  0  0  0
   18.5805   -1.9964    0.0000 C   0  0  0  0  0  0  0  0  0  0  0  0
   19.7665   -2.6685    0.0000 O   0  0  0  0  0  0  0  0  0  0  0  0
   18.5805   -0.6325    0.0000 C   0  0  0  0  0  0  0  0  0  0  0  0
   17.4341    0.0000    0.0000 C   0  0  0  0  0  0  0  0  0  0  0  0
   16.2876   -0.6325    0.0000 C   0  0  0  0  0  0  0  0  0  0  0  0
   15.1214    0.0000    0.0000 C   0  0  0  0  0  0  0  0  0  0  0  0
   13.9552   -0.6325    0.0000 C   0  0  0  0  0  0  0  0  0  0  0  0
   12.7692    0.0000    0.0000 C   0  0  0  0  0  0  0  0  0  0  0  0
   11.6227   -0.6325    0.0000 C   0  0  0  0  0  0  0  0  0  0  0  0
   10.4565    0.0000    0.0000 C   0  0  0  0  0  0  0  0  0  0  0  0
    9.3100   -0.6325    0.0000 C   0  0  0  0  0  0  0  0  0  0  0  0
    8.1438    0.0000    0.0000 C   0  0  0  0  0  0  0  0  0  0  0  0
    6.9578   -0.6325    0.0000 C   0  0  0  0  0  0  0  0  0  0  0  0
    5.8114    0.0000    0.0000 C   0  0  0  0  0  0  0  0  0  0  0  0
    4.6451   -0.6325    0.0000 C   0  0  0  0  0  0  0  0  0  0  0  0
    3.4789    0.0000    0.0000 C   0  0  0  0  0  0  0  0  0  0  0  0
    2.3324   -0.6325    0.0000 C   0  0  0  0  0  0  0  0  0  0  0  0
    1.1860    0.0000    0.0000 C   0  0  0  0  0  0  0  0  0  0  0  0
    0.0000   -0.6325    0.0000 C   0  0  0  0  0  0  0  0  0  0  0  0
   12.5320   -5.0009    0.0000 N   0  3  0  0  0  0  0  0  0  0  0  0
   13.8761   -5.0009    0.0000 C   0  0  0  0  0  0  0  0  0  0  0  0
   11.8797   -3.8347    0.0000 C   0  0  0  0  0  0  0  0  0  0  0  0
   14.5284   -6.1474    0.0000 C   0  0  0  0  0  0  0  0  0  0  0  0
   15.8725   -6.1474    0.0000 O   0  0  0  0  0  0  0  0  0  0  0  0
   10.5356   -3.8347    0.0000 C   0  0  0  0  0  0  0  0  0  0  0  0
    9.8635   -2.6882    0.0000 O   0  0  0  0  0  0  0  0  0  0  0  0
   11.8797   -6.1474    0.0000 C   0  0  0  0  0  0  0  0  0  0  0  0
   10.5356   -6.1474    0.0000 C   0  0  0  0  0  0  0  0  0  0  0  0
    9.8635   -7.3136    0.0000 O   0  0  0  0  0  0  0  0  0  0  0  0
  1  2  1  0  0  0  0
  2  3  2  0  0  0  0
  2  4  1  0  0  0  0
  4  5  1  0  0  0  0
  5  6  1  0  0  0  0
  6  7  1  0  0  0  0
  7  8  1  0  0  0  0
  8  9  1  0  0  0  0
  9 10  1  0  0  0  0
 10 11  1  0  0  0  0
 11 12  1  0  0  0  0
 12 13  1  0  0  0  0
 13 14  1  0  0  0  0
 14 15  1  0  0  0  0
 15 16  1  0  0  0  0
 16 17  1  0  0  0  0
 17 18  1  0  0  0  0
 18 19  1  0  0  0  0
 19 20  1  0  0  0  0
 21 22  1  0  0  0  0
 21 23  1  0  0  0  0
 21 28  1  0  0  0  0
 22 24  1  0  0  0  0
 23 26  1  0  0  0  0
 24 25  1  0  0  0  0
 26 27  1  0  0  0  0
 28 29  1  0  0  0  0
 29 30  1  0  0  0  0
M  END
> <ID>
4600

> <Formula>
C24H51NO5

> <FW>
433.6654 (283.4698+150.1956)

> <DSSTox_CID>
6219

> <DSSTox_RID>
78063

> <DSSTox_GSID>
26219

> <DSSTox_FileID_Sort>
2746

> <TS_ChemName>
Triethanolamine stearate

> <TS_ChemName_Synonyms>
Triethanolamine octadecanate (Triethanolamine stearate) (Octadecanoic acid, compd. with 2,2',2''-nitrilotris[ethanol] (1:1))

> <TS_CASRN>
4568-28-9

> <CASRN_ChemName_Relationship>
primary

> <TS_Description>
single chemical compound

> <ChemNote>
mixture of octadecanoic acid [57-11-4]; triethanolamine [102-71-6] (1:1)

> <STRUCTURE_Shown>
tested chemical

> <STRUCTURE_Formula>
C24H51NO5

> <STRUCTURE_MW>
433.6654

> <STRUCTURE_ChemType>
defined organic

> <STRUCTURE_DefinedOrganicForm>
complex

> <STRUCTURE_IUPAC>
2-hydroxy-N,N-bis(2-hydroxyethyl)ethanaminium octadecanoate

> <STRUCTURE_SMILES>
OCC[NH+](CCO)CCO.[O-]C(=O)CCCCCCCCCCCCCCCCC

> <STRUCTURE_SMILES_Desalt>
O=C(O)CCCCCCCCCCCCCCCCC

> <Substance_modify_yyyymmdd>
20080429

$$$$
