4574-60-1
ChemmineR-0915142007XD

 23 24  0  0  1  0  0  0  0  0  2 V2000
    4.7985   -5.1276    0.0000 C    0  0  0  0  0  0  0  0  0  0  0  0
    4.7985   -6.4711    0.0000 C    0  0  0  0  0  0  0  0  0  0  0  0
    5.9593   -4.4786    0.0000 O    0  0  0  0  0  0  0  0  0  0  0  0
    5.9593   -7.1292    0.0000 C    0  0  0  0  0  0  0  0  0  0  0  0
    3.6469   -7.1292    0.0000 C    0  0  0  0  0  0  0  0  0  0  0  0
    2.4769   -6.4711    0.0000 O    0  0  0  0  0  0  0  0  0  0  0  0
    7.1018   -6.4711    0.0000 C    0  0  0  0  0  0  0  0  0  0  0  0
    5.9593   -8.4820    0.0000 C    0  0  0  0  0  0  0  0  0  0  0  0
    7.1018   -9.1400    0.0000 C    0  0  0  0  0  0  0  0  0  0  0  0
    8.2717   -7.1292    0.0000 C    0  0  0  0  0  0  0  0  0  0  0  0
    8.2717   -8.4820    0.0000 C    0  0  0  0  0  0  0  0  0  0  0  0
    1.9468   -1.9285    0.0000 C    0  0  0  0  0  0  0  0  0  0  0  0
    3.6652   -3.2264    0.0000 C    0  0  0  0  0  0  0  0  0  0  0  0
    2.8243   -2.5409    0.0000 C    0  0  0  0  0  0  0  0  0  0  0  0
    1.2705   -2.5409    0.0000 C    0  0  0  0  0  0  0  0  0  0  0  0
    1.0420   -1.2248    0.0000 N    0  3  0  0  0  0  0  0  0  0  0  0
    3.3910   -1.9560    0.0000 C    0  0  0  0  0  0  0  0  0  0  0  0
    0.4296   -3.6743    0.0000 C    0  0  0  0  0  0  0  0  0  0  0  0
    1.4258   -3.0711    0.0000 C    0  0  0  0  0  0  0  0  0  0  0  0
    0.0000   -0.1737    0.0000 C    0  0  0  0  0  0  0  0  0  0  0  0
    3.6469   -4.2227    0.0000 O    0  0  0  0  0  0  0  0  0  0  0  0
    2.0382    0.0000    0.0000 O    0  5  0  0  0  0  0  0  0  0  0  0
    5.9593   -1.2887    0.0000 Cl   0  0  0  0  0  0  0  0  0  0  0  0
  1  2  1  0  0  0  0
  1  3  2  0  0  0  0
  1 21  1  0  0  0  0
  2  4  1  0  0  0  0
  2  5  1  0  0  0  0
  4  7  1  0  0  0  0
  4  8  2  0  0  0  0
  5  6  1  0  0  0  0
  7 10  2  0  0  0  0
  8  9  1  0  0  0  0
  9 11  2  0  0  0  0
 10 11  1  0  0  0  0
 12 16  1  1  0  0  0
 12 17  1  0  0  0  0
 12 19  1  0  0  0  0
 13 14  1  0  0  0  0
 13 17  1  0  0  0  0
 13 21  1  6  0  0  0
 14 15  1  0  0  0  0
 15 16  1  6  0  0  0
 15 18  1  0  0  0  0
 16 20  1  0  0  0  0
 16 22  1  0  0  0  0
 18 19  1  0  0  0  0
M  END
> <ID>
10913

> <Formula>
C17H24ClNO4

> <FW>
341.8298 (305.3688+36.4609)

> <DSSTox_CID>
25384

> <DSSTox_RID>
80842

> <DSSTox_GSID>
45384

> <DSSTox_FileID_Sort>
5523

> <TS_ChemName>
Atropine-N-oxide hydrochloride

> <TS_ChemName_Synonyms>


> <TS_CASRN>
4574-60-1

> <CASRN_ChemName_Relationship>
primary

> <TS_Description>
single chemical compound

> <ChemNote>
parent [4438-22-6]

> <STRUCTURE_Shown>
tested chemical

> <STRUCTURE_Formula>
C17H24ClNO4

> <STRUCTURE_MW>
341.8298

> <STRUCTURE_ChemType>
defined organic

> <STRUCTURE_DefinedOrganicForm>
complex

> <STRUCTURE_IUPAC>
1alphaH,5alphaH-Tropan-3alpha-ol (+-)-tropate (ester) 8-oxide hydrochloride

> <STRUCTURE_SMILES>
Cl.C[N+]2([O-])[C@H]1C[C@@H](C[C@@H]2CC1)OC(=O)C(CO)c3ccccc3

> <STRUCTURE_SMILES_Desalt>
O[N+]2(C)[C@H]1C[C@@H](C[C@@H]2CC1)OC(=O)C(CO)c3ccccc3

> <Substance_modify_yyyymmdd>
20100107

$$$$
