458-24-2
ChemmineR-0915142007XD

 16 16  0  0  0  0  0  0  0  0  1 V2000
    5.7616   -0.6632    0.0000 C   0  0  0  0  0  0  0  0  0  0  0  0
    6.9118    0.0000    0.0000 C   0  0  0  0  0  0  0  0  0  0  0  0
    8.0621   -0.6632    0.0000 C   0  0  0  0  0  0  0  0  0  0  0  0
    8.0621   -2.0000    0.0000 C   0  0  0  0  0  0  0  0  0  0  0  0
    9.2123   -2.6632    0.0000 C   0  0  0  0  0  0  0  0  0  0  0  0
    8.5491   -3.8134    0.0000 F   0  0  0  0  0  0  0  0  0  0  0  0
    9.8755   -1.5129    0.0000 F   0  0  0  0  0  0  0  0  0  0  0  0
   10.3626   -3.3264    0.0000 F   0  0  0  0  0  0  0  0  0  0  0  0
    6.9118   -2.6632    0.0000 C   0  0  0  0  0  0  0  0  0  0  0  0
    5.7616   -2.0000    0.0000 C   0  0  0  0  0  0  0  0  0  0  0  0
    4.6010   -2.6632    0.0000 C   0  0  0  0  0  0  0  0  0  0  0  0
    3.4507   -2.0000    0.0000 C   0  0  0  0  0  0  0  0  0  0  0  0
    3.4507   -0.6632    0.0000 C   0  0  0  0  0  0  0  0  0  0  0  0
    2.3005   -2.6632    0.0000 N   0  0  0  0  0  0  0  0  0  0  0  0
    1.1502   -2.0000    0.0000 C   0  0  0  0  0  0  0  0  0  0  0  0
    0.0000   -2.6632    0.0000 C   0  0  0  0  0  0  0  0  0  0  0  0
  1  2  2  0  0  0  0
  1 10  1  0  0  0  0
  2  3  1  0  0  0  0
  3  4  2  0  0  0  0
  4  5  1  0  0  0  0
  4  9  1  0  0  0  0
  5  6  1  0  0  0  0
  5  7  1  0  0  0  0
  5  8  1  0  0  0  0
  9 10  2  0  0  0  0
 10 11  1  0  0  0  0
 11 12  1  0  0  0  0
 12 13  1  0  0  0  0
 12 14  1  0  0  0  0
 14 15  1  0  0  0  0
 15 16  1  0  0  0  0
M  END
> <ID>
2737

> <Formula>
C12H16F3N

> <FW>
231.2573

> <DSSTox_CID>
3044

> <DSSTox_RID>
76850

> <DSSTox_GSID>
23044

> <DSSTox_FileID_Sort>
1534

> <TS_ChemName>
Fenfluramine

> <TS_ChemName_Synonyms>


> <TS_CASRN>
458-24-2

> <CASRN_ChemName_Relationship>
primary

> <TS_Description>
single chemical compound

> <ChemNote>


> <STRUCTURE_Shown>
tested chemical

> <STRUCTURE_Formula>
C12H16F3N

> <STRUCTURE_MW>
231.2573

> <STRUCTURE_ChemType>
defined organic

> <STRUCTURE_DefinedOrganicForm>
parent

> <STRUCTURE_IUPAC>
N-ethyl-1-[3-(trifluoromethyl)phenyl]propan-2-amine

> <STRUCTURE_SMILES>
FC(F)(F)c1cccc(CC(C)NCC)c1

> <STRUCTURE_SMILES_Desalt>
FC(F)(F)c1cccc(CC(C)NCC)c1

> <Substance_modify_yyyymmdd>
20080429

$$$$
