458-37-7
ChemmineR-0915142007XD

 27 28  0  0  0  0  0  0  0  0  1 V2000
    2.2921   -2.0015    0.0000 C   0  0  0  0  0  0  0  0  0  0  0  0
   13.8331   -2.0015    0.0000 C   0  0  0  0  0  0  0  0  0  0  0  0
    5.7625   -4.0031    0.0000 C   0  0  0  0  0  0  0  0  0  0  0  0
   10.3789   -4.0031    0.0000 C   0  0  0  0  0  0  0  0  0  0  0  0
   11.5249   -4.6649    0.0000 C   0  0  0  0  0  0  0  0  0  0  0  0
    4.6003   -4.6649    0.0000 C   0  0  0  0  0  0  0  0  0  0  0  0
    1.1622   -2.6633    0.0000 C   0  0  0  0  0  0  0  0  0  0  0  0
   14.9792   -2.6633    0.0000 C   0  0  0  0  0  0  0  0  0  0  0  0
    6.9085   -4.6649    0.0000 C   0  0  0  0  0  0  0  0  0  0  0  0
    9.2167   -4.6649    0.0000 C   0  0  0  0  0  0  0  0  0  0  0  0
    8.0707   -4.0031    0.0000 C   0  0  0  0  0  0  0  0  0  0  0  0
   12.6871   -2.6633    0.0000 C   0  0  0  0  0  0  0  0  0  0  0  0
    3.4542   -2.6633    0.0000 C   0  0  0  0  0  0  0  0  0  0  0  0
    3.4542   -4.0031    0.0000 C   0  0  0  0  0  0  0  0  0  0  0  0
   12.6871   -4.0031    0.0000 C   0  0  0  0  0  0  0  0  0  0  0  0
    6.9085   -6.0046    0.0000 O   0  0  0  0  0  0  0  0  0  0  0  0
    9.2167   -6.0046    0.0000 O   0  0  0  0  0  0  0  0  0  0  0  0
    1.1622   -4.0031    0.0000 C   0  0  0  0  0  0  0  0  0  0  0  0
   14.9792   -4.0031    0.0000 C   0  0  0  0  0  0  0  0  0  0  0  0
   13.8331   -4.6649    0.0000 C   0  0  0  0  0  0  0  0  0  0  0  0
    2.2921   -4.6649    0.0000 C   0  0  0  0  0  0  0  0  0  0  0  0
    2.2921   -0.6779    0.0000 O   0  0  0  0  0  0  0  0  0  0  0  0
   13.8331   -0.6779    0.0000 O   0  0  0  0  0  0  0  0  0  0  0  0
    0.0000   -2.0015    0.0000 O   0  0  0  0  0  0  0  0  0  0  0  0
   16.1414   -2.0015    0.0000 O   0  0  0  0  0  0  0  0  0  0  0  0
   14.9792    0.0000    0.0000 C   0  0  0  0  0  0  0  0  0  0  0  0
    1.1622    0.0000    0.0000 C   0  0  0  0  0  0  0  0  0  0  0  0
  1  7  1  0  0  0  0
  1 13  2  0  0  0  0
  1 22  1  0  0  0  0
  2 12  2  0  0  0  0
  2 23  1  0  0  0  0
  2  8  1  0  0  0  0
  3  6  2  0  0  0  0
  3  9  1  0  0  0  0
  4 10  1  0  0  0  0
  4  5  2  0  0  0  0
  5 15  1  0  0  0  0
  6 14  1  0  0  0  0
  7 18  2  0  0  0  0
  7 24  1  0  0  0  0
  8 19  2  0  0  0  0
  8 25  1  0  0  0  0
  9 11  1  0  0  0  0
  9 16  2  0  0  0  0
 10 11  1  0  0  0  0
 10 17  2  0  0  0  0
 12 15  1  0  0  0  0
 13 14  1  0  0  0  0
 14 21  2  0  0  0  0
 15 20  2  0  0  0  0
 18 21  1  0  0  0  0
 19 20  1  0  0  0  0
 22 27  1  0  0  0  0
 23 26  1  0  0  0  0
M  END
> <ID>
1366

> <Formula>
C21H20O6

> <FW>
368.3799

> <DSSTox_CID>
1421

> <DSSTox_RID>
78861

> <DSSTox_GSID>
31077

> <DSSTox_FileID_Sort>
3543

> <TS_ChemName>
Curcumin

> <TS_ChemName_Synonyms>
Curcumin (CC)

> <TS_CASRN>
458-37-7

> <CASRN_ChemName_Relationship>
primary

> <TS_Description>
single chemical compound

> <ChemNote>
stereochem; tautomers

> <STRUCTURE_Shown>
tested chemical

> <STRUCTURE_Formula>
C21H20O6

> <STRUCTURE_MW>
368.3799

> <STRUCTURE_ChemType>
defined organic

> <STRUCTURE_DefinedOrganicForm>
parent

> <STRUCTURE_IUPAC>
(1E,6E)-1,7-bis(4-hydroxy-3-methoxyphenyl)hepta-1,6-diene-3,5-dione

> <STRUCTURE_SMILES>
Oc1ccc(cc1OC)/C=C/C(=O)CC(=O)/C=C/c2ccc(O)c(OC)c2

> <STRUCTURE_SMILES_Desalt>
Oc1ccc(cc1OC)/C=C/C(=O)CC(=O)/C=C/c2ccc(O)c(OC)c2

> <Substance_modify_yyyymmdd>
20080429

$$$$
