4584-57-0
ChemmineR-0915142007XD

 22 23  0  0  0  0  0  0  0  0  2 V2000
    0.0000   -7.2761    0.0000 C   0  0  0  0  0  0  0  0  0  0  0  0
    1.1300   -9.2710    0.0000 C   0  0  0  0  0  0  0  0  0  0  0  0
    5.7540   -5.2927    0.0000 C   0  0  0  0  0  0  0  0  0  0  0  0
    5.7540   -3.9667    0.0000 C   0  0  0  0  0  0  0  0  0  0  0  0
    3.4593   -5.2697    0.0000 C   0  0  0  0  0  0  0  0  0  0  0  0
    4.6009   -7.2876    0.0000 C   0  0  0  0  0  0  0  0  0  0  0  0
    8.0602   -3.9782    0.0000 C   0  0  0  0  0  0  0  0  0  0  0  0
    6.9071   -1.9833    0.0000 C   0  0  0  0  0  0  0  0  0  0  0  0
    2.3062   -5.9500    0.0000 C   0  0  0  0  0  0  0  0  0  0  0  0
    3.4363   -7.9449    0.0000 C   0  0  0  0  0  0  0  0  0  0  0  0
    9.2133   -3.3209    0.0000 C   0  0  0  0  0  0  0  0  0  0  0  0
    8.0717   -1.3261    0.0000 C   0  0  0  0  0  0  0  0  0  0  0  0
    4.6009   -5.9500    0.0000 C   0  0  0  0  0  0  0  0  0  0  0  0
    6.9071   -3.3094    0.0000 C   0  0  0  0  0  0  0  0  0  0  0  0
    2.2831   -7.2761    0.0000 C   0  0  0  0  0  0  0  0  0  0  0  0
    9.2248   -1.9949    0.0000 C   0  0  0  0  0  0  0  0  0  0  0  0
    1.1300   -7.9449    0.0000 N   0  0  0  0  0  0  0  0  0  0  0  0
   10.3779   -1.3261    0.0000 N   0  3  0  0  0  0  0  0  0  0  0  0
   11.5310   -1.9949    0.0000 O   0  5  0  0  0  0  0  0  0  0  0  0
   10.3779    0.0000    0.0000 O   0  0  0  0  0  0  0  0  0  0  0  0
    6.9071   -5.9615    0.0000 H   0  0  0  0  0  0  0  0  0  0  0  0
    4.6009   -3.3094    0.0000 H   0  0  0  0  0  0  0  0  0  0  0  0
  1 17  1  0  0  0  0
  2 17  1  0  0  0  0
  3 21  1  0  0  0  0
  3  4  2  0  0  0  0
  3 13  1  0  0  0  0
  4 22  1  0  0  0  0
  4 14  1  0  0  0  0
  5  9  1  0  0  0  0
  5 13  2  0  0  0  0
  6 10  2  0  0  0  0
  6 13  1  0  0  0  0
  7 11  1  0  0  0  0
  7 14  2  0  0  0  0
  8 12  2  0  0  0  0
  8 14  1  0  0  0  0
  9 15  2  0  0  0  0
 10 15  1  0  0  0  0
 11 16  2  0  0  0  0
 12 16  1  0  0  0  0
 15 17  1  0  0  0  0
 16 18  1  0  0  0  0
 18 19  1  0  0  0  0
 18 20  2  0  0  0  0
M  END
> <ID>
14166

> <Formula>
C16H16N2O2

> <FW>
268.3104

> <DSSTox_CID>
29159

> <DSSTox_RID>
83378

> <DSSTox_GSID>
49303

> <DSSTox_FileID_Sort>
8053

> <TS_ChemName>
1,4-Dimethylamino-4-nitrostilbene

> <TS_ChemName_Synonyms>


> <TS_CASRN>
4584-57-0

> <CASRN_ChemName_Relationship>
primary

> <TS_Description>
single chemical compound

> <ChemNote>


> <STRUCTURE_Shown>
tested chemical

> <STRUCTURE_Formula>
C16H16N2O2

> <STRUCTURE_MW>
268.3104

> <STRUCTURE_ChemType>
defined organic

> <STRUCTURE_DefinedOrganicForm>
parent

> <STRUCTURE_IUPAC>
N,N-dimethyl-4-[(E)-2-(4-nitrophenyl)ethenyl]aniline

> <STRUCTURE_SMILES>
CN(C)c1ccc(cc1)\C=C\c2ccc(cc2)[N+]([O-])=O

> <STRUCTURE_SMILES_Desalt>
CN(C)c1ccc(cc1)\C=C\c2ccc(cc2)[N+]([O-])=O

> <Substance_modify_yyyymmdd>
20111204

$$$$
