459-80-3
ChemmineR-0915142007XD

 12 11  0  0  0  0  0  0  0  0  1 V2000
    3.4569   -1.3182    0.0000 C   0  0  0  0  0  0  0  0  0  0  0  0
    4.5908   -1.9912    0.0000 C   0  0  0  0  0  0  0  0  0  0  0  0
    2.2954   -1.9912    0.0000 C   0  0  0  0  0  0  0  0  0  0  0  0
    3.4569    0.0000    0.0000 C   0  0  0  0  0  0  0  0  0  0  0  0
    5.7523   -1.3182    0.0000 C   0  0  0  0  0  0  0  0  0  0  0  0
    1.1431   -1.3182    0.0000 C   0  0  0  0  0  0  0  0  0  0  0  0
    6.9046   -1.9912    0.0000 C   0  0  0  0  0  0  0  0  0  0  0  0
    1.1431    0.0000    0.0000 O   0  0  0  0  0  0  0  0  0  0  0  0
    0.0000   -1.9912    0.0000 O   0  0  0  0  0  0  0  0  0  0  0  0
    8.0661   -1.3182    0.0000 C   0  0  0  0  0  0  0  0  0  0  0  0
    9.2184   -1.9912    0.0000 C   0  0  0  0  0  0  0  0  0  0  0  0
    8.0661    0.0000    0.0000 C   0  0  0  0  0  0  0  0  0  0  0  0
  1  2  1  0  0  0  0
  1  3  2  3  0  0  0
  1  4  1  0  0  0  0
  2  5  1  0  0  0  0
  3  6  1  0  0  0  0
  5  7  1  0  0  0  0
  6  8  2  0  0  0  0
  6  9  1  0  0  0  0
  7 10  2  0  0  0  0
 10 11  1  0  0  0  0
 10 12  1  0  0  0  0
M  END
> <ID>
12265

> <Formula>
C10H16O2

> <FW>
168.2328

> <DSSTox_CID>
27115

> <DSSTox_RID>
82124

> <DSSTox_GSID>
47115

> <DSSTox_FileID_Sort>
6805

> <TS_ChemName>
Geranic acid

> <TS_ChemName_Synonyms>


> <TS_CASRN>
459-80-3

> <CASRN_ChemName_Relationship>
primary

> <TS_Description>
mixture of Z,E isomers

> <ChemNote>
mixture of Z [4613-38-1],E [4698-08-2] isomers

> <STRUCTURE_Shown>
representative isomer in mixture

> <STRUCTURE_Formula>
C10H16O2

> <STRUCTURE_MW>
168.2328

> <STRUCTURE_ChemType>
defined organic

> <STRUCTURE_DefinedOrganicForm>
parent

> <STRUCTURE_IUPAC>
3,7-dimethylocta-2,6-dienoic acid

> <STRUCTURE_SMILES>
O=C(O)C=C(C)CC\C=C(/C)C

> <STRUCTURE_SMILES_Desalt>
O=C(O)C=C(C)CC\C=C(/C)C

> <Substance_modify_yyyymmdd>
20100429

$$$$
