459-57-4
ChemmineR-0915142007XD

  9  9  0  0  0  0  0  0  0  0  1 V2000
    0.6571   -1.1529    0.0000 C   0  0  0  0  0  0  0  0  0  0  0  0
    0.0000    0.0000    0.0000 O   0  0  0  0  0  0  0  0  0  0  0  0
    1.9833   -1.1529    0.0000 C   0  0  0  0  0  0  0  0  0  0  0  0
    2.6583    0.0000    0.0000 C   0  0  0  0  0  0  0  0  0  0  0  0
    2.6583   -2.3059    0.0000 C   0  0  0  0  0  0  0  0  0  0  0  0
    3.9905    0.0000    0.0000 C   0  0  0  0  0  0  0  0  0  0  0  0
    3.9905   -2.3059    0.0000 C   0  0  0  0  0  0  0  0  0  0  0  0
    4.6417   -1.1529    0.0000 C   0  0  0  0  0  0  0  0  0  0  0  0
    5.9738   -1.1529    0.0000 F   0  0  0  0  0  0  0  0  0  0  0  0
  1  2  2  0  0  0  0
  1  3  1  0  0  0  0
  3  4  2  0  0  0  0
  3  5  1  0  0  0  0
  4  6  1  0  0  0  0
  5  7  2  0  0  0  0
  6  8  2  0  0  0  0
  7  8  1  0  0  0  0
  8  9  1  0  0  0  0
M  END
> <ID>
7485

> <Formula>
C7H5FO

> <FW>
124.1124

> <DSSTox_CID>
18756

> <DSSTox_RID>
79390

> <DSSTox_GSID>
38756

> <DSSTox_FileID_Sort>
4072

> <TS_ChemName>
4-Fluorobenzaldehyde

> <TS_ChemName_Synonyms>
Benzaldehyde, 4-fluoro-

> <TS_CASRN>
459-57-4

> <CASRN_ChemName_Relationship>
primary

> <TS_Description>
single chemical compound

> <ChemNote>


> <STRUCTURE_Shown>
tested chemical

> <STRUCTURE_Formula>
C7H5FO

> <STRUCTURE_MW>
124.1124

> <STRUCTURE_ChemType>
defined organic

> <STRUCTURE_DefinedOrganicForm>
parent

> <STRUCTURE_IUPAC>
4-fluorobenzaldehyde

> <STRUCTURE_SMILES>
O=Cc1ccc(F)cc1

> <STRUCTURE_SMILES_Desalt>
O=Cc1ccc(F)cc1

> <Substance_modify_yyyymmdd>
20080429

$$$$
