460081-99-6
ChemmineR-0915142007XD

 31 33  0  0  0  0  0  0  0  0  1 V2000
   11.3033   -1.1495    0.0000 C   0  0  0  0  0  0  0  0  0  0  0  0
   11.9738   -2.2990    0.0000 O   0  0  0  0  0  0  0  0  0  0  0  0
    9.9742   -1.1495    0.0000 C   0  0  0  0  0  0  0  0  0  0  0  0
   11.9738    0.0000    0.0000 O   0  0  0  0  0  0  0  0  0  0  0  0
    9.3156   -2.2990    0.0000 C   0  0  0  0  0  0  0  0  0  0  0  0
    9.3156    0.0000    0.0000 C   0  0  0  0  0  0  0  0  0  0  0  0
    7.9865   -2.2990    0.0000 C   0  0  0  0  0  0  0  0  0  0  0  0
    7.9865    0.0000    0.0000 C   0  0  0  0  0  0  0  0  0  0  0  0
    7.3040   -1.1495    0.0000 C   0  0  0  0  0  0  0  0  0  0  0  0
    7.3040   -3.4604    0.0000 N   0  0  0  0  0  0  0  0  0  0  0  0
    4.0112   -4.5979    0.0000 C   0  0  0  0  0  0  0  0  0  0  0  0
    3.3287   -3.4604    0.0000 C   0  0  0  0  0  0  0  0  0  0  0  0
    3.9873   -2.2990    0.0000 C   0  0  0  0  0  0  0  0  0  0  0  0
    5.3164   -2.2990    0.0000 C   0  0  0  0  0  0  0  0  0  0  0  0
    5.9989   -3.4604    0.0000 C   0  0  0  0  0  0  0  0  0  0  0  0
    5.3403   -4.5979    0.0000 C   0  0  0  0  0  0  0  0  0  0  0  0
    3.3287   -5.7474    0.0000 O   0  0  0  0  0  0  0  0  0  0  0  0
    4.0112   -6.9089    0.0000 C   0  0  0  0  0  0  0  0  0  0  0  0
    5.3403   -6.9089    0.0000 F   0  0  0  0  0  0  0  0  0  0  0  0
    3.3287   -8.0584    0.0000 F   0  0  0  0  0  0  0  0  0  0  0  0
    1.9996   -3.4604    0.0000 O   0  0  0  0  0  0  0  0  0  0  0  0
    1.3291   -2.2990    0.0000 C   0  0  0  0  0  0  0  0  0  0  0  0
    1.9996   -1.1495    0.0000 F   0  0  0  0  0  0  0  0  0  0  0  0
    0.0000   -2.2990    0.0000 F   0  0  0  0  0  0  0  0  0  0  0  0
    7.9865   -4.5979    0.0000 C   0  0  0  0  0  0  0  0  0  0  0  0
   11.3153   -5.7474    0.0000 N   0  0  0  0  0  0  0  0  0  0  0  0
   11.9738   -4.5979    0.0000 C   0  0  0  0  0  0  0  0  0  0  0  0
    9.9862   -5.7474    0.0000 C   0  0  0  0  0  0  0  0  0  0  0  0
    9.3156   -4.5979    0.0000 C   0  0  0  0  0  0  0  0  0  0  0  0
   11.3033   -3.4604    0.0000 C   0  0  0  0  0  0  0  0  0  0  0  0
    9.9742   -3.4604    0.0000 C   0  0  0  0  0  0  0  0  0  0  0  0
  1  2  2  0  0  0  0
  1  3  1  0  0  0  0
  1  4  1  0  0  0  0
  3  5  2  0  0  0  0
  3  6  1  0  0  0  0
  5  7  1  0  0  0  0
  6  8  2  0  0  0  0
  7  9  2  0  0  0  0
  7 10  1  0  0  0  0
  8  9  1  0  0  0  0
 10 15  1  0  0  0  0
 10 25  1  0  0  0  0
 11 16  2  0  0  0  0
 11 12  1  0  0  0  0
 11 17  1  0  0  0  0
 12 13  2  0  0  0  0
 12 21  1  0  0  0  0
 13 14  1  0  0  0  0
 14 15  2  0  0  0  0
 15 16  1  0  0  0  0
 17 18  1  0  0  0  0
 18 19  1  0  0  0  0
 18 20  1  0  0  0  0
 21 22  1  0  0  0  0
 22 23  1  0  0  0  0
 22 24  1  0  0  0  0
 25 29  1  0  0  0  0
 26 27  2  0  0  0  0
 26 28  1  0  0  0  0
 27 30  1  0  0  0  0
 28 29  2  0  0  0  0
 29 31  1  0  0  0  0
 30 31  2  0  0  0  0
M  END
> <ID>
13558

> <Formula>
C21H16F4N2O4

> <FW>
436.3564

> <DSSTox_CID>
28484

> <DSSTox_RID>
82761

> <DSSTox_GSID>
48510

> <DSSTox_FileID_Sort>
7438

> <TS_ChemName>
PharmaGSID_48510

> <TS_ChemName_Synonyms>
3-{[3,4-Bis(difluoromethoxy)phenyl](pyridin-3-ylmethyl)amino}benzoic acid

> <TS_CASRN>
460081-99-6

> <CASRN_ChemName_Relationship>
primary

> <TS_Description>
single chemical compound

> <ChemNote>


> <STRUCTURE_Shown>
tested chemical

> <STRUCTURE_Formula>
C21H16F4N2O4

> <STRUCTURE_MW>
436.3564

> <STRUCTURE_ChemType>
defined organic

> <STRUCTURE_DefinedOrganicForm>
parent

> <STRUCTURE_IUPAC>
3-{[3,4-bis(difluoromethoxy)phenyl](pyridin-3-ylmethyl)amino}benzoic acid

> <STRUCTURE_SMILES>
O=C(O)c1cc(ccc1)N(Cc2cccnc2)c3ccc(OC(F)F)c(OC(F)F)c3

> <STRUCTURE_SMILES_Desalt>
O=C(O)c1cc(ccc1)N(Cc2cccnc2)c3ccc(OC(F)F)c(OC(F)F)c3

> <Substance_modify_yyyymmdd>
20130910

$$$$
