460092-03-9
ChemmineR-0915142007XD

 48 46  0  0  0  0  0  0  0  0  2 V2000
    0.0000  -13.8631    0.0000 C   0  0  0  0  0  0  0  0  0  0  0  0
   17.1910  -11.8151    0.0000 C   0  0  0  0  0  0  0  0  0  0  0  0
   10.3776    0.0000    0.0000 C   0  0  0  0  0  0  0  0  0  0  0  0
   19.6918   -2.5009    0.0000 C   0  0  0  0  0  0  0  0  0  0  0  0
    0.6498  -12.7209    0.0000 C   0  0  0  0  0  0  0  0  0  0  0  0
   16.0489  -11.1456    0.0000 C   0  0  0  0  0  0  0  0  0  0  0  0
   11.5197   -0.6498    0.0000 C   0  0  0  0  0  0  0  0  0  0  0  0
   19.0223   -3.6430    0.0000 C   0  0  0  0  0  0  0  0  0  0  0  0
    1.9692  -12.7209    0.0000 C   0  0  0  0  0  0  0  0  0  0  0  0
   16.0489   -9.8262    0.0000 C   0  0  0  0  0  0  0  0  0  0  0  0
   11.5197   -1.9495    0.0000 C   0  0  0  0  0  0  0  0  0  0  0  0
   17.7227   -3.6430    0.0000 C   0  0  0  0  0  0  0  0  0  0  0  0
    2.6190  -11.5985    0.0000 C   0  0  0  0  0  0  0  0  0  0  0  0
   14.9067   -9.1764    0.0000 C   0  0  0  0  0  0  0  0  0  0  0  0
   12.6619   -2.6190    0.0000 C   0  0  0  0  0  0  0  0  0  0  0  0
   17.0728   -4.7654    0.0000 C   0  0  0  0  0  0  0  0  0  0  0  0
    3.9384  -11.5985    0.0000 C   0  0  0  0  0  0  0  0  0  0  0  0
    4.5882  -10.4564    0.0000 C   0  0  0  0  0  0  0  0  0  0  0  0
    5.9076  -10.4564    0.0000 C   0  0  0  0  0  0  0  0  0  0  0  0
    6.5574   -9.3142    0.0000 C   0  0  0  0  0  0  0  0  0  0  0  0
    7.8767   -9.3142    0.0000 C   0  0  0  0  0  0  0  0  0  0  0  0
    8.5266   -8.1721    0.0000 C   0  0  0  0  0  0  0  0  0  0  0  0
    9.8459   -8.1721    0.0000 C   0  0  0  0  0  0  0  0  0  0  0  0
   10.4958   -7.0300    0.0000 C   0  0  0  0  0  0  0  0  0  0  0  0
   14.9067   -7.8767    0.0000 C   0  0  0  0  0  0  0  0  0  0  0  0
   12.6619   -3.9384    0.0000 C   0  0  0  0  0  0  0  0  0  0  0  0
   15.7535   -4.7654    0.0000 C   0  0  0  0  0  0  0  0  0  0  0  0
   11.8151   -7.0300    0.0000 C   0  0  0  0  0  0  0  0  0  0  0  0
   13.7843   -7.2072    0.0000 C   0  0  0  0  0  0  0  0  0  0  0  0
   13.7843   -4.5882    0.0000 C   0  0  0  0  0  0  0  0  0  0  0  0
   15.0840   -5.8879    0.0000 C   0  0  0  0  0  0  0  0  0  0  0  0
   12.4649   -5.8879    0.0000 C   0  0  0  0  0  0  0  0  0  0  0  0
   13.7843   -5.8879    0.0000 P   0  3  0  0  0  0  0  0  0  0  0  0
   14.2569  -12.5634    0.0000 C   0  0  0  0  0  0  0  0  0  0  0  0
   15.5566  -12.5634    0.0000 F   0  0  0  0  0  0  0  0  0  0  0  0
   14.2569  -13.8827    0.0000 F   0  0  0  0  0  0  0  0  0  0  0  0
   14.2569  -11.2244    0.0000 F   0  0  0  0  0  0  0  0  0  0  0  0
   12.8982  -13.8827    0.0000 O   0  0  0  0  0  0  0  0  0  0  0  0
   12.8982  -11.2244    0.0000 O   0  0  0  0  0  0  0  0  0  0  0  0
   12.8982  -12.5634    0.0000 S   0  0  0  0  0  0  0  0  0  0  0  0
    8.3100  -12.5634    0.0000 C   0  0  0  0  0  0  0  0  0  0  0  0
    7.0103  -12.5634    0.0000 F   0  0  0  0  0  0  0  0  0  0  0  0
    8.3100  -13.8827    0.0000 F   0  0  0  0  0  0  0  0  0  0  0  0
    8.3100  -11.2244    0.0000 F   0  0  0  0  0  0  0  0  0  0  0  0
   10.9684  -12.5634    0.0000 N   0  5  0  0  0  0  0  0  0  0  0  0
    9.6687  -13.8827    0.0000 O   0  0  0  0  0  0  0  0  0  0  0  0
    9.6687  -11.2244    0.0000 O   0  0  0  0  0  0  0  0  0  0  0  0
    9.6687  -12.5634    0.0000 S   0  0  0  0  0  0  0  0  0  0  0  0
  1  5  1  0  0  0  0
  2  6  1  0  0  0  0
  3  7  1  0  0  0  0
  4  8  1  0  0  0  0
  5  9  1  0  0  0  0
  6 10  1  0  0  0  0
  7 11  1  0  0  0  0
  8 12  1  0  0  0  0
  9 13  1  0  0  0  0
 10 14  1  0  0  0  0
 11 15  1  0  0  0  0
 12 16  1  0  0  0  0
 13 17  1  0  0  0  0
 14 25  1  0  0  0  0
 15 26  1  0  0  0  0
 16 27  1  0  0  0  0
 17 18  1  0  0  0  0
 18 19  1  0  0  0  0
 19 20  1  0  0  0  0
 20 21  1  0  0  0  0
 21 22  1  0  0  0  0
 22 23  1  0  0  0  0
 23 24  1  0  0  0  0
 24 28  1  0  0  0  0
 25 29  1  0  0  0  0
 26 30  1  0  0  0  0
 27 31  1  0  0  0  0
 28 32  1  0  0  0  0
 29 33  1  0  0  0  0
 30 33  1  0  0  0  0
 31 33  1  0  0  0  0
 32 33  1  0  0  0  0
 34 35  1  0  0  0  0
 34 36  1  0  0  0  0
 34 37  1  0  0  0  0
 34 40  1  0  0  0  0
 38 40  2  0  0  0  0
 39 40  2  0  0  0  0
 40 45  1  0  0  0  0
 41 42  1  0  0  0  0
 41 43  1  0  0  0  0
 41 44  1  0  0  0  0
 41 48  1  0  0  0  0
 45 48  1  0  0  0  0
 46 48  2  0  0  0  0
 47 48  2  0  0  0  0
M  END
> <ID>
14167

> <Formula>
C34H68F6NO4PS2

> <FW>
764.0022 (483.8555+280.1467)

> <DSSTox_CID>
29160

> <DSSTox_RID>
83379

> <DSSTox_GSID>
49304

> <DSSTox_FileID_Sort>
8054

> <TS_ChemName>
Trihexyltetradecylphosphonium bis(trifluoromethylsulfonyl)imide

> <TS_ChemName_Synonyms>


> <TS_CASRN>
460092-03-9

> <CASRN_ChemName_Relationship>
primary

> <TS_Description>
single chemical compound

> <ChemNote>
stereochem

> <STRUCTURE_Shown>
tested chemical

> <STRUCTURE_Formula>
C34H68F6NO4PS2

> <STRUCTURE_MW>
764.0022

> <STRUCTURE_ChemType>
defined organic

> <STRUCTURE_DefinedOrganicForm>
complex

> <STRUCTURE_IUPAC>
trihexyl(tetradecyl)phosphonium bis[(trifluoromethyl)sulfonyl]azanide

> <STRUCTURE_SMILES>
FC(F)(F)S(=O)(=O)[N-]S(=O)(=O)C(F)(F)F.CCCCCC[P+](CCCCCC)(CCCCCC)CCCCCCCCCCCCCC

> <STRUCTURE_SMILES_Desalt>
CCCCCC[P+](CCCCCC)(CCCCCC)CCCCCCCCCCCCCC

> <Substance_modify_yyyymmdd>
20111204

$$$$
