460345-16-8
ChemmineR-0915142007XD

 20 19  0  0  0  0  0  0  0  0  2 V2000
    8.9184   -1.1236    0.0000 N   0  3  0  0  0  0  0  0  0  0  0  0
    6.8960   -1.7837    0.0000 N   0  0  0  0  0  0  0  0  0  0  0  0
    8.1881   -2.1910    0.0000 C   0  0  0  0  0  0  0  0  0  0  0  0
    8.1881    0.0000    0.0000 C   0  0  0  0  0  0  0  0  0  0  0  0
    6.8960   -0.4354    0.0000 C   0  0  0  0  0  0  0  0  0  0  0  0
    5.8426   -2.5140    0.0000 C   0  0  0  0  0  0  0  0  0  0  0  0
    4.6067   -2.0084    0.0000 C   0  0  0  0  0  0  0  0  0  0  0  0
    3.5393   -2.7387    0.0000 C   0  0  0  0  0  0  0  0  0  0  0  0
    2.3033   -2.2331    0.0000 C   0  0  0  0  0  0  0  0  0  0  0  0
    1.2359   -3.0196    0.0000 C   0  0  0  0  0  0  0  0  0  0  0  0
    0.0000   -2.4719    0.0000 C   0  0  0  0  0  0  0  0  0  0  0  0
   10.2667   -1.1236    0.0000 C   0  0  0  0  0  0  0  0  0  0  0  0
   12.7526   -3.9466    0.0000 C   0  0  0  0  0  0  0  0  0  0  0  0
   11.4043   -3.9466    0.0000 S   0  0  0  0  0  0  0  0  0  0  0  0
   11.4043   -2.5140    0.0000 O   0  0  0  0  0  0  0  0  0  0  0  0
   10.1262   -3.9466    0.0000 O   0  5  0  0  0  0  0  0  0  0  0  0
   11.4043   -5.2387    0.0000 O   0  0  0  0  0  0  0  0  0  0  0  0
   13.4127   -5.1263    0.0000 F   0  0  0  0  0  0  0  0  0  0  0  0
   13.4127   -2.8230    0.0000 F   0  0  0  0  0  0  0  0  0  0  0  0
   14.0447   -3.9466    0.0000 F   0  0  0  0  0  0  0  0  0  0  0  0
  1  3  2  0  0  0  0
  1  4  1  0  0  0  0
  1 12  1  0  0  0  0
  2  3  1  0  0  0  0
  2  5  1  0  0  0  0
  2  6  1  0  0  0  0
  4  5  2  0  0  0  0
  6  7  1  0  0  0  0
  7  8  1  0  0  0  0
  8  9  1  0  0  0  0
  9 10  1  0  0  0  0
 10 11  1  0  0  0  0
 13 14  1  0  0  0  0
 13 18  1  0  0  0  0
 13 19  1  0  0  0  0
 13 20  1  0  0  0  0
 14 15  2  0  0  0  0
 14 16  1  0  0  0  0
 14 17  2  0  0  0  0
M  END
> <ID>
12946

> <Formula>
C11H19F3N2O3S

> <FW>
316.3404 (167.2707+149.0697)

> <DSSTox_CID>
27847

> <DSSTox_RID>
82600

> <DSSTox_GSID>
47871

> <DSSTox_FileID_Sort>
7277

> <TS_ChemName>
1-Hexyl-3-methylimidazolium trifluoromethanesulfonate

> <TS_ChemName_Synonyms>


> <TS_CASRN>
460345-16-8

> <CASRN_ChemName_Relationship>
primary

> <TS_Description>
single chemical compound

> <ChemNote>
ammonium; parent [85100-82-9]

> <STRUCTURE_Shown>
tested chemical

> <STRUCTURE_Formula>
C11H19F3N2O3S

> <STRUCTURE_MW>
316.3404

> <STRUCTURE_ChemType>
defined organic

> <STRUCTURE_DefinedOrganicForm>
complex

> <STRUCTURE_IUPAC>
1-hexyl-3-methyl-1H-imidazol-3-ium trifluoromethanesulfonate

> <STRUCTURE_SMILES>
FC(F)(F)S([O-])(=O)=O.C[n+]1ccn(CCCCCC)c1

> <STRUCTURE_SMILES_Desalt>
C[n+]1ccn(CCCCCC)c1

> <Substance_modify_yyyymmdd>
20110414

$$$$
