461-58-5
ChemmineR-0915142007XD

  6  5  0  0  0  0  0  0  0  0  1 V2000
    3.3281   -2.3040    0.0000 C   0  0  0  0  0  0  0  0  0  0  0  0
    1.3266   -1.1543    0.0000 C   0  0  0  0  0  0  0  0  0  0  0  0
    1.9968   -2.3040    0.0000 N   0  0  0  0  0  0  0  0  0  0  0  0
    4.6546   -2.3040    0.0000 N   0  0  0  0  0  0  0  0  0  0  0  0
    1.9968    0.0000    0.0000 N   0  0  0  0  0  0  0  0  0  0  0  0
    0.0000   -1.1543    0.0000 N   0  0  0  0  0  0  0  0  0  0  0  0
  1  3  1  0  0  0  0
  1  4  3  0  0  0  0
  2  3  1  0  0  0  0
  2  5  2  0  0  0  0
  2  6  1  0  0  0  0
M  END
> <ID>
344

> <Formula>
C2H4N4

> <FW>
84.08

> <DSSTox_CID>
354

> <DSSTox_RID>
75533

> <DSSTox_GSID>
20354

> <DSSTox_FileID_Sort>
217

> <TS_ChemName>
Cyanoguanidine

> <TS_ChemName_Synonyms>
Guanidine, cyano-; 1-Cyanoguanidine; Dicyanodiamide

> <TS_CASRN>
461-58-5

> <CASRN_ChemName_Relationship>
primary

> <TS_Description>
single chemical compound

> <ChemNote>


> <STRUCTURE_Shown>
tested chemical

> <STRUCTURE_Formula>
C2H4N4

> <STRUCTURE_MW>
84.08

> <STRUCTURE_ChemType>
defined organic

> <STRUCTURE_DefinedOrganicForm>
parent

> <STRUCTURE_IUPAC>
1-cyanoguanidine

> <STRUCTURE_SMILES>
N=C(N)NC#N

> <STRUCTURE_SMILES_Desalt>
N=C(N)NC#N

> <Substance_modify_yyyymmdd>
20080429

$$$$
