461-05-2
ChemmineR-0915142007XD

 12 10  0  0  0  0  0  0  0  0  2 V2000
    6.4845   -3.6248    0.0000 Cl   0  0  0  0  0  0  0  0  0  0  0  0
    1.1348   -3.3200    0.0000 C    0  0  0  0  0  0  0  0  0  0  0  0
    2.2890   -2.6457    0.0000 C    0  0  0  0  0  0  0  0  0  0  0  0
    4.5780   -1.3163    0.0000 N    0  3  0  0  0  0  0  0  0  0  0  0
    0.0000   -2.6586    0.0000 O    0  5  0  0  0  0  0  0  0  0  0  0
    1.1348   -4.6623    0.0000 O    0  0  0  0  0  0  0  0  0  0  0  0
    3.4433   -3.3200    0.0000 C    0  0  0  0  0  0  0  0  0  0  0  0
    4.5975   -2.6457    0.0000 C    0  0  0  0  0  0  0  0  0  0  0  0
    3.4433   -4.6494    0.0000 O    0  0  0  0  0  0  0  0  0  0  0  0
    5.9074   -1.3163    0.0000 C    0  0  0  0  0  0  0  0  0  0  0  0
    4.5780    0.0000    0.0000 C    0  0  0  0  0  0  0  0  0  0  0  0
    3.2487   -1.3293    0.0000 C    0  0  0  0  0  0  0  0  0  0  0  0
  2  3  1  0  0  0  0
  2  5  1  0  0  0  0
  2  6  2  0  0  0  0
  3  7  1  0  0  0  0
  4  8  1  0  0  0  0
  4 10  1  0  0  0  0
  4 11  1  0  0  0  0
  4 12  1  0  0  0  0
  7  8  1  0  0  0  0
  7  9  1  0  0  0  0
M  END
> <ID>
11240

> <Formula>
C7H16ClNO3

> <FW>
197.6598 (36.4609+161.1989)

> <DSSTox_CID>
25850

> <DSSTox_RID>
81172

> <DSSTox_GSID>
45850

> <DSSTox_FileID_Sort>
5853

> <TS_ChemName>
Carnitine hydrochloride

> <TS_ChemName_Synonyms>


> <TS_CASRN>
461-05-2

> <CASRN_ChemName_Relationship>
primary

> <TS_Description>
single chemical compound

> <ChemNote>


> <STRUCTURE_Shown>
tested chemical

> <STRUCTURE_Formula>
C7H16ClNO3

> <STRUCTURE_MW>
197.6598

> <STRUCTURE_ChemType>
defined organic

> <STRUCTURE_DefinedOrganicForm>
complex

> <STRUCTURE_IUPAC>
3-hydroxy-4-(trimethylammonio)butanoate hydrochloride (1:1)

> <STRUCTURE_SMILES>
Cl.C[N+](C)(C)CC(O)CC(=O)[O-]

> <STRUCTURE_SMILES_Desalt>
C[N+](C)(C)CC(O)CC(O)=O

> <Substance_modify_yyyymmdd>
20110922

$$$$
