461023-63-2
ChemmineR-0915142007XD

 44 47  0  0  1  0  0  0  0  0  1 V2000
   11.5156   -8.6417    0.0000 C    0  0  0  0  0  0  0  0  0  0  0  0
   11.5156   -7.3153    0.0000 C    0  0  0  0  0  0  0  0  0  0  0  0
   12.6612   -6.6320    0.0000 C    0  0  0  0  0  0  0  0  0  0  0  0
   12.6612   -5.3056    0.0000 C    0  0  0  0  0  0  0  0  0  0  0  0
   13.8067   -4.6424    0.0000 N    0  0  0  0  0  0  0  0  0  0  0  0
   14.9522   -5.3056    0.0000 C    0  0  0  0  0  0  0  0  0  0  0  0
   14.9522   -6.6320    0.0000 O    0  0  0  0  0  0  0  0  0  0  0  0
   16.0978   -4.6424    0.0000 C    0  0  0  0  0  0  0  0  0  0  0  0
   16.7811   -5.8081    0.0000 H    0  0  0  0  0  0  0  0  0  0  0  0
   16.0978   -3.3160    0.0000 N    0  0  0  0  0  0  0  0  0  0  0  0
   14.9522   -2.6729    0.0000 C    0  0  0  0  0  0  0  0  0  0  0  0
   14.9522   -1.3264    0.0000 O    0  0  0  0  0  0  0  0  0  0  0  0
   13.8067   -3.3160    0.0000 C    0  0  0  0  0  0  0  0  0  0  0  0
   13.8067   -1.9896    0.0000 C    0  0  0  0  0  0  0  0  0  0  0  0
   12.6411   -1.3264    0.0000 C    0  0  0  0  0  0  0  0  0  0  0  0
   11.5156   -1.9896    0.0000 N    0  0  0  0  0  0  0  0  0  0  0  0
   10.3500   -1.3264    0.0000 C    0  0  0  0  0  0  0  0  0  0  0  0
    9.2246   -1.9896    0.0000 C    0  0  0  0  0  0  0  0  0  0  0  0
    9.2246   -3.3160    0.0000 C    0  0  0  0  0  0  0  0  0  0  0  0
    8.0589   -3.9993    0.0000 C    0  0  0  0  0  0  0  0  0  0  0  0
    6.9134   -3.3160    0.0000 C    0  0  0  0  0  0  0  0  0  0  0  0
    5.7478   -3.9993    0.0000 O    0  0  0  0  0  0  0  0  0  0  0  0
    4.6022   -3.3160    0.0000 C    0  0  0  0  0  0  0  0  0  0  0  0
    3.4366   -3.9993    0.0000 C    0  0  0  0  0  0  0  0  0  0  0  0
    2.2911   -3.3361    0.0000 C    0  0  0  0  0  0  0  0  0  0  0  0
    2.2911   -2.0097    0.0000 C    0  0  0  0  0  0  0  0  0  0  0  0
    3.4366   -1.3264    0.0000 C    0  0  0  0  0  0  0  0  0  0  0  0
    4.6022   -1.9896    0.0000 C    0  0  0  0  0  0  0  0  0  0  0  0
    1.1455   -1.3264    0.0000 C    0  0  0  0  0  0  0  0  0  0  0  0
    1.1455    0.0000    0.0000 O    0  0  0  0  0  0  0  0  0  0  0  0
    0.0000   -2.0097    0.0000 O    0  0  0  0  0  0  0  0  0  0  0  0
    6.9134   -1.9896    0.0000 C    0  0  0  0  0  0  0  0  0  0  0  0
    8.0589   -1.3264    0.0000 C    0  0  0  0  0  0  0  0  0  0  0  0
   11.5156   -3.3160    0.0000 C    0  0  0  0  0  0  0  0  0  0  0  0
   12.6612   -3.9792    0.0000 C    0  0  0  0  0  0  0  0  0  0  0  0
   17.4443   -4.6424    0.0000 C    0  0  0  0  0  0  0  0  0  0  0  0
   18.1075   -5.8081    0.0000 O    0  0  0  0  0  0  0  0  0  0  0  0
   18.1075   -3.4969    0.0000 C    0  0  0  0  0  0  0  0  0  0  0  0
   19.4339   -3.4969    0.0000 C    0  0  0  0  0  0  0  0  0  0  0  0
   20.0971   -2.3514    0.0000 C    0  0  0  0  0  0  0  0  0  0  0  0
   19.4339   -1.2058    0.0000 C    0  0  0  0  0  0  0  0  0  0  0  0
   18.0874   -1.2058    0.0000 C    0  0  0  0  0  0  0  0  0  0  0  0
   17.4443   -2.3514    0.0000 C    0  0  0  0  0  0  0  0  0  0  0  0
   10.2495   -4.6826    0.0000 Cl   0  0  0  0  0  0  0  0  0  0  0  0
  1  2  1  0  0  0  0
  2  3  1  0  0  0  0
  3  4  1  0  0  0  0
  4  5  1  0  0  0  0
  5  6  1  0  0  0  0
  5 13  1  0  0  0  0
  6  7  2  0  0  0  0
  6  8  1  0  0  0  0
  8  9  1  1  0  0  0
  8 10  1  0  0  0  0
  8 36  1  0  0  0  0
 10 11  1  0  0  0  0
 11 12  2  0  0  0  0
 11 13  1  0  0  0  0
 13 14  1  0  0  0  0
 13 35  1  0  0  0  0
 14 15  1  0  0  0  0
 15 16  1  0  0  0  0
 16 17  1  0  0  0  0
 16 34  1  0  0  0  0
 17 18  1  0  0  0  0
 18 19  1  0  0  0  0
 18 33  2  0  0  0  0
 19 20  2  0  0  0  0
 20 21  1  0  0  0  0
 21 22  1  0  0  0  0
 21 32  2  0  0  0  0
 22 23  1  0  0  0  0
 23 24  1  0  0  0  0
 23 28  2  0  0  0  0
 24 25  2  0  0  0  0
 25 26  1  0  0  0  0
 26 27  2  0  0  0  0
 26 29  1  0  0  0  0
 27 28  1  0  0  0  0
 29 30  2  0  0  0  0
 29 31  1  0  0  0  0
 32 33  1  0  0  0  0
 34 35  1  0  0  0  0
 36 37  1  1  0  0  0
 36 38  1  0  0  0  0
 38 39  1  0  0  0  0
 38 43  1  0  0  0  0
 39 40  1  0  0  0  0
 40 41  1  0  0  0  0
 41 42  1  0  0  0  0
 42 43  1  0  0  0  0
M  END
> <ID>
12458

> <Formula>
C33H44ClN3O6

> <FW>
614.1720 (577.7110+36.4609)

> <DSSTox_CID>
27316

> <DSSTox_RID>
82265

> <DSSTox_GSID>
47316

> <DSSTox_FileID_Sort>
6946

> <TS_ChemName>
Aplaviroc hydrochloride

> <TS_ChemName_Synonyms>
GW873140A - HCl Salt

> <TS_CASRN>
461023-63-2

> <CASRN_ChemName_Relationship>
primary

> <TS_Description>
single chemical compound

> <ChemNote>
stereochem

> <STRUCTURE_Shown>
tested chemical

> <STRUCTURE_Formula>
C33H44ClN3O6

> <STRUCTURE_MW>
614.172

> <STRUCTURE_ChemType>
defined organic

> <STRUCTURE_DefinedOrganicForm>
complex

> <STRUCTURE_IUPAC>
4-[4-({(3R)-1-butyl-3-[(R)-cyclohexyl(hydroxy)methyl]-2,5-dioxo-1,4,9-triazaspiro[5.5]undec-9-yl}methyl)phenoxy]benzoic acid hydrochloride (1:1)

> <STRUCTURE_SMILES>
Cl.O=C(O)c1ccc(cc1)Oc2ccc(cc2)CN3CCC4(CC3)C(=O)N[C@@H](C(=O)N4CCCC)[C@H](O)C5CCCCC5

> <STRUCTURE_SMILES_Desalt>
O=C(O)c1ccc(cc1)Oc2ccc(cc2)CN3CCC4(CC3)C(=O)N[C@@H](C(=O)N4CCCC)[C@H](O)C5CCCCC5

> <Substance_modify_yyyymmdd>
20130910

$$$$
