4618-18-2
ChemmineR-0915142007XD

 23 24  0  0  1  0  0  0  0  0  1 V2000
    4.6167   -3.9872    0.0000 C   0  0  0  0  0  0  0  0  0  0  0  0
    4.6167   -5.3197    0.0000 C   0  0  0  0  0  0  0  0  0  0  0  0
    3.4835   -3.3156    0.0000 O   0  0  0  0  0  0  0  0  0  0  0  0
    3.4835   -5.9807    0.0000 C   0  0  0  0  0  0  0  0  0  0  0  0
    2.3084   -3.9872    0.0000 C   0  0  0  0  0  0  0  0  0  0  0  0
    2.3084   -5.3197    0.0000 C   0  0  0  0  0  0  0  0  0  0  0  0
    5.7709   -3.3051    0.0000 O   0  0  0  0  0  0  0  0  0  0  0  0
    5.7709   -5.9807    0.0000 O   0  0  0  0  0  0  0  0  0  0  0  0
    3.4835   -7.3133    0.0000 O   0  0  0  0  0  0  0  0  0  0  0  0
    1.1752   -5.9807    0.0000 O   0  0  0  0  0  0  0  0  0  0  0  0
    1.1752   -3.3156    0.0000 C   0  0  0  0  0  0  0  0  0  0  0  0
    0.0000   -3.9872    0.0000 O   0  0  0  0  0  0  0  0  0  0  0  0
    6.1591   -0.9758    0.0000 C   0  0  0  0  0  0  0  0  0  0  0  0
    7.2399   -0.1889    0.0000 O   0  0  0  0  0  0  0  0  0  0  0  0
    6.5578   -2.2244    0.0000 C   0  0  0  0  0  0  0  0  0  0  0  0
    8.2996   -0.9758    0.0000 C   0  0  0  0  0  0  0  0  0  0  0  0
    7.8904   -2.2244    0.0000 C   0  0  0  0  0  0  0  0  0  0  0  0
    8.6668   -3.3156    0.0000 O   0  0  0  0  0  0  0  0  0  0  0  0
    4.8790   -0.5771    0.0000 C   0  0  0  0  0  0  0  0  0  0  0  0
    3.8822   -1.4375    0.0000 O   0  0  0  0  0  0  0  0  0  0  0  0
    9.1915    0.0000    0.0000 C   0  0  0  0  0  0  0  0  0  0  0  0
    9.5902   -1.3326    0.0000 O   0  0  0  0  0  0  0  0  0  0  0  0
   10.4925   -0.2728    0.0000 O   0  0  0  0  0  0  0  0  0  0  0  0
  1  2  1  0  0  0  0
  1  3  1  0  0  0  0
  1  7  1  1  0  0  0
  2  4  1  0  0  0  0
  2  8  1  6  0  0  0
  3  5  1  0  0  0  0
  4  6  1  0  0  0  0
  4  9  1  1  0  0  0
  5  6  1  0  0  0  0
  5 11  1  1  0  0  0
  6 10  1  1  0  0  0
 15  7  1  6  0  0  0
 11 12  1  0  0  0  0
 13 14  1  0  0  0  0
 13 15  1  0  0  0  0
 13 19  1  1  0  0  0
 14 16  1  0  0  0  0
 15 17  1  0  0  0  0
 16 17  1  0  0  0  0
 16 21  1  6  0  0  0
 16 22  1  1  0  0  0
 17 18  1  1  0  0  0
 19 20  1  0  0  0  0
 21 23  1  0  0  0  0
M  END
> <ID>
11229

> <Formula>
C12H22O11

> <FW>
342.2965

> <DSSTox_CID>
25833

> <DSSTox_RID>
81161

> <DSSTox_GSID>
45833

> <DSSTox_FileID_Sort>
5842

> <TS_ChemName>
Lactulose

> <TS_ChemName_Synonyms>


> <TS_CASRN>
4618-18-2

> <CASRN_ChemName_Relationship>
primary

> <TS_Description>
single chemical compound

> <ChemNote>
stereochem

> <STRUCTURE_Shown>
tested chemical

> <STRUCTURE_Formula>
C12H22O11

> <STRUCTURE_MW>
342.2965

> <STRUCTURE_ChemType>
defined organic

> <STRUCTURE_DefinedOrganicForm>
parent

> <STRUCTURE_IUPAC>
4-O-beta-D-galactopyranosyl-beta-D-fructofuranose

> <STRUCTURE_SMILES>
O[C@H]2[C@H](O[C@@H]1O[C@H](CO)[C@H](O)[C@H](O)[C@H]1O)[C@@H](CO)O[C@]2(O)CO

> <STRUCTURE_SMILES_Desalt>
O[C@H]2[C@H](O[C@@H]1O[C@H](CO)[C@H](O)[C@H](O)[C@H]1O)[C@@H](CO)O[C@]2(O)CO

> <Substance_modify_yyyymmdd>
20110922

$$$$
