462-08-8
ChemmineR-0915142007XD

  7  7  0  0  0  0  0  0  0  0  1 V2000
    1.0970   -2.6292    0.0000 N   0  0  0  0  0  0  0  0  0  0  0  0
    0.0000   -1.9362    0.0000 C   0  0  0  0  0  0  0  0  0  0  0  0
    2.3053   -2.0337    0.0000 C   0  0  0  0  0  0  0  0  0  0  0  0
    2.3053   -0.6930    0.0000 C   0  0  0  0  0  0  0  0  0  0  0  0
    0.0000   -0.5990    0.0000 C   0  0  0  0  0  0  0  0  0  0  0  0
    1.1945    0.0000    0.0000 C   0  0  0  0  0  0  0  0  0  0  0  0
    3.4824   -0.0488    0.0000 N   0  0  0  0  0  0  0  0  0  0  0  0
  1  2  2  0  0  0  0
  1  3  1  0  0  0  0
  2  5  1  0  0  0  0
  3  4  2  0  0  0  0
  4  6  1  0  0  0  0
  4  7  1  0  0  0  0
  5  6  2  0  0  0  0
M  END
> <ID>
12598

> <Formula>
C5H6N2

> <FW>
94.1145

> <DSSTox_CID>
27461

> <DSSTox_RID>
82361

> <DSSTox_GSID>
47461

> <DSSTox_FileID_Sort>
7042

> <TS_ChemName>
3-Pyridinamine

> <TS_ChemName_Synonyms>


> <TS_CASRN>
462-08-8

> <CASRN_ChemName_Relationship>
primary

> <TS_Description>
single chemical compound

> <ChemNote>


> <STRUCTURE_Shown>
tested chemical

> <STRUCTURE_Formula>
C5H6N2

> <STRUCTURE_MW>
94.1145

> <STRUCTURE_ChemType>
defined organic

> <STRUCTURE_DefinedOrganicForm>
parent

> <STRUCTURE_IUPAC>
pyridin-3-amine

> <STRUCTURE_SMILES>
Nc1cccnc1

> <STRUCTURE_SMILES_Desalt>
Nc1cccnc1

> <Substance_modify_yyyymmdd>
20100621

$$$$
