4620-70-6
ChemmineR-0915142007XD

  8  7  0  0  0  0  0  0  0  0  1 V2000
    1.1593   -0.4960    0.0000 C   0  0  0  0  0  0  0  0  0  0  0  0
    2.3127   -1.1535    0.0000 C   0  0  0  0  0  0  0  0  0  0  0  0
    0.0000   -1.1535    0.0000 O   0  0  0  0  0  0  0  0  0  0  0  0
    3.4547   -0.4787    0.0000 N   0  0  0  0  0  0  0  0  0  0  0  0
    4.6082   -1.1535    0.0000 C   0  0  0  0  0  0  0  0  0  0  0  0
    5.2830    0.0000    0.0000 C   0  0  0  0  0  0  0  0  0  0  0  0
    3.9507   -2.2954    0.0000 C   0  0  0  0  0  0  0  0  0  0  0  0
    5.7674   -1.8110    0.0000 C   0  0  0  0  0  0  0  0  0  0  0  0
  1  2  1  0  0  0  0
  1  3  1  0  0  0  0
  2  4  1  0  0  0  0
  4  5  1  0  0  0  0
  5  6  1  0  0  0  0
  5  7  1  0  0  0  0
  5  8  1  0  0  0  0
M  END
> <ID>
10088

> <Formula>
C6H15NO

> <FW>
117.1894

> <DSSTox_CID>
24431

> <DSSTox_RID>
80223

> <DSSTox_GSID>
44431

> <DSSTox_FileID_Sort>
4905

> <TS_ChemName>
2-(tert-Butylamino)ethanol

> <TS_ChemName_Synonyms>
Ethanol, 2-[(1,1-dimethylethyl)amino]-

> <TS_CASRN>
4620-70-6

> <CASRN_ChemName_Relationship>
primary

> <TS_Description>
single chemical compound

> <ChemNote>


> <STRUCTURE_Shown>
tested chemical

> <STRUCTURE_Formula>
C6H15NO

> <STRUCTURE_MW>
117.1894

> <STRUCTURE_ChemType>
defined organic

> <STRUCTURE_DefinedOrganicForm>
parent

> <STRUCTURE_IUPAC>
2-(tert-butylamino)ethanol

> <STRUCTURE_SMILES>
CC(C)(C)NCCO

> <STRUCTURE_SMILES_Desalt>
CC(C)(C)NCCO

> <Substance_modify_yyyymmdd>
20091116

$$$$
