463-04-7
ChemmineR-0915142007XD

  8  7  0  0  0  0  0  0  0  0  1 V2000
    0.0000    0.0000    0.0000 O   0  0  0  0  0  0  0  0  0  0  0  0
    1.1546   -0.6621    0.0000 N   0  0  0  0  0  0  0  0  0  0  0  0
    2.3093    0.0000    0.0000 O   0  0  0  0  0  0  0  0  0  0  0  0
    3.4639   -0.6621    0.0000 C   0  0  0  0  0  0  0  0  0  0  0  0
    4.6105    0.0000    0.0000 C   0  0  0  0  0  0  0  0  0  0  0  0
    5.7651   -0.6621    0.0000 C   0  0  0  0  0  0  0  0  0  0  0  0
    6.9197    0.0000    0.0000 C   0  0  0  0  0  0  0  0  0  0  0  0
    8.0744   -0.6621    0.0000 C   0  0  0  0  0  0  0  0  0  0  0  0
  1  2  2  0  0  0  0
  2  3  1  0  0  0  0
  3  4  1  0  0  0  0
  4  5  1  0  0  0  0
  5  6  1  0  0  0  0
  6  7  1  0  0  0  0
  7  8  1  0  0  0  0
M  END
> <ID>
3730

> <Formula>
C5H11NO2

> <FW>
117.1463

> <DSSTox_CID>
4522

> <DSSTox_RID>
77442

> <DSSTox_GSID>
24522

> <DSSTox_FileID_Sort>
2125

> <TS_ChemName>
Pentyl nitrite

> <TS_ChemName_Synonyms>
Amyl nitrite

> <TS_CASRN>
463-04-7

> <CASRN_ChemName_Relationship>
primary

> <TS_Description>
single chemical compound

> <ChemNote>


> <STRUCTURE_Shown>
tested chemical

> <STRUCTURE_Formula>
C5H11NO2

> <STRUCTURE_MW>
117.1463

> <STRUCTURE_ChemType>
defined organic

> <STRUCTURE_DefinedOrganicForm>
parent

> <STRUCTURE_IUPAC>
pentyl nitrite

> <STRUCTURE_SMILES>
CCCCCON=O

> <STRUCTURE_SMILES_Desalt>
CCCCCON=O

> <Substance_modify_yyyymmdd>
20080429

$$$$
