4635-87-4
ChemmineR-0915142007XD

  6  5  0  0  0  0  0  0  0  0  1 V2000
    5.7698    0.0000    0.0000 N   0  0  0  0  0  0  0  0  0  0  0  0
    4.6159   -0.6751    0.0000 C   0  0  0  0  0  0  0  0  0  0  0  0
    3.4619   -1.3328    0.0000 C   0  0  0  0  0  0  0  0  0  0  0  0
    2.3079   -0.6751    0.0000 C   0  0  0  0  0  0  0  0  0  0  0  0
    1.1540   -1.3328    0.0000 C   0  0  0  0  0  0  0  0  0  0  0  0
    0.0000   -0.6751    0.0000 C   0  0  0  0  0  0  0  0  0  0  0  0
  1  2  3  0  0  0  0
  2  3  1  0  0  0  0
  3  4  1  0  0  0  0
  4  5  2  3  0  0  0
  5  6  1  0  0  0  0
M  END
> <ID>
4436

> <Formula>
C5H7N

> <FW>
81.1158

> <DSSTox_CID>
5851

> <DSSTox_RID>
77947

> <DSSTox_GSID>
25851

> <DSSTox_FileID_Sort>
2630

> <TS_ChemName>
3-Pentenenitrile

> <TS_ChemName_Synonyms>


> <TS_CASRN>
4635-87-4

> <CASRN_ChemName_Relationship>
primary

> <TS_Description>
mixture of Z,E isomers

> <ChemNote>
mixture of Z,E isomers

> <STRUCTURE_Shown>
representative isomer in mixture

> <STRUCTURE_Formula>
C5H7N

> <STRUCTURE_MW>
81.1158

> <STRUCTURE_ChemType>
defined organic

> <STRUCTURE_DefinedOrganicForm>
parent

> <STRUCTURE_IUPAC>
pent-3-enenitrile

> <STRUCTURE_SMILES>
CC=CCC#N

> <STRUCTURE_SMILES_Desalt>
CC=CCC#N

> <Substance_modify_yyyymmdd>
20080429

$$$$
