4638-48-6
ChemmineR-0915142007XD

 17 18  0  0  0  0  0  0  0  0  1 V2000
    3.4565   -2.6546    0.0000 C    0  0  0  0  0  0  0  0  0  0  0  0
    4.6086   -1.9909    0.0000 C    0  0  0  0  0  0  0  0  0  0  0  0
    4.6086   -0.6636    0.0000 O    0  0  0  0  0  0  0  0  0  0  0  0
    3.4565   -3.9911    0.0000 C    0  0  0  0  0  0  0  0  0  0  0  0
    4.6086   -4.6547    0.0000 O    0  0  0  0  0  0  0  0  0  0  0  0
    2.3043   -1.9909    0.0000 C    0  0  0  0  0  0  0  0  0  0  0  0
    2.3043   -4.6547    0.0000 C    0  0  0  0  0  0  0  0  0  0  0  0
    1.1522   -2.6546    0.0000 C    0  0  0  0  0  0  0  0  0  0  0  0
    1.1522   -3.9911    0.0000 C    0  0  0  0  0  0  0  0  0  0  0  0
    5.7608   -2.6546    0.0000 N    0  0  0  0  0  0  0  0  0  0  0  0
    6.9130   -1.9909    0.0000 C    0  0  0  0  0  0  0  0  0  0  0  0
    6.9130   -0.6636    0.0000 C    0  0  0  0  0  0  0  0  0  0  0  0
    8.0651   -2.6546    0.0000 C    0  0  0  0  0  0  0  0  0  0  0  0
    8.0651    0.0000    0.0000 C    0  0  0  0  0  0  0  0  0  0  0  0
    9.2173   -1.9909    0.0000 C    0  0  0  0  0  0  0  0  0  0  0  0
    9.2173   -0.6636    0.0000 C    0  0  0  0  0  0  0  0  0  0  0  0
    0.0000   -1.9909    0.0000 Cl   0  0  0  0  0  0  0  0  0  0  0  0
  1  2  1  0  0  0  0
  1  4  2  0  0  0  0
  1  6  1  0  0  0  0
  2  3  2  0  0  0  0
  2 10  1  0  0  0  0
  4  5  1  0  0  0  0
  4  7  1  0  0  0  0
  6  8  2  0  0  0  0
  7  9  2  0  0  0  0
  8  9  1  0  0  0  0
  8 17  1  0  0  0  0
 10 11  1  0  0  0  0
 11 12  1  0  0  0  0
 11 13  2  0  0  0  0
 12 14  2  0  0  0  0
 13 15  1  0  0  0  0
 14 16  1  0  0  0  0
 15 16  2  0  0  0  0
M  END
> <ID>
7427

> <Formula>
C13H10ClNO2

> <FW>
247.677

> <DSSTox_CID>
17749

> <DSSTox_RID>
79373

> <DSSTox_GSID>
37749

> <DSSTox_FileID_Sort>
4055

> <TS_ChemName>
5-Chlorosalicylanilide

> <TS_ChemName_Synonyms>
5-Chlorosalicylanilide (5-Chloro-2-hydroxy-N-phenylbenzamide)

> <TS_CASRN>
4638-48-6

> <CASRN_ChemName_Relationship>
primary

> <TS_Description>
single chemical compound

> <ChemNote>


> <STRUCTURE_Shown>
tested chemical

> <STRUCTURE_Formula>
C13H10ClNO2

> <STRUCTURE_MW>
247.677

> <STRUCTURE_ChemType>
defined organic

> <STRUCTURE_DefinedOrganicForm>
parent

> <STRUCTURE_IUPAC>
5-chloro-2-hydroxy-N-phenylbenzamide

> <STRUCTURE_SMILES>
Oc2ccc(Cl)cc2C(=O)Nc1ccccc1

> <STRUCTURE_SMILES_Desalt>
Oc2ccc(Cl)cc2C(=O)Nc1ccccc1

> <Substance_modify_yyyymmdd>
20080429

$$$$
