464-49-3
ChemmineR-0915142007XD

 11 12  0  0  1  0  0  0  0  0  1 V2000
    2.0645   -2.0108    0.0000 C   0  0  0  0  0  0  0  0  0  0  0  0
    3.4663   -2.8348    0.0000 C   0  0  0  0  0  0  0  0  0  0  0  0
    3.1125   -3.4125    0.0000 C   0  0  0  0  0  0  0  0  0  0  0  0
    1.7107   -2.6557    0.0000 C   0  0  0  0  0  0  0  0  0  0  0  0
    1.8496   -0.6538    0.0000 C   0  0  0  0  0  0  0  0  0  0  0  0
    0.4299   -2.6557    0.0000 C   0  0  0  0  0  0  0  0  0  0  0  0
    0.0000   -3.3364    0.0000 C   0  0  0  0  0  0  0  0  0  0  0  0
    4.4784   -2.8348    0.0000 O   0  0  0  0  0  0  0  0  0  0  0  0
    2.7229   -1.4689    0.0000 C   0  0  0  0  0  0  0  0  0  0  0  0
    0.7613   -0.1254    0.0000 C   0  0  0  0  0  0  0  0  0  0  0  0
    2.8617    0.0000    0.0000 C   0  0  0  0  0  0  0  0  0  0  0  0
  1  2  1  0  0  0  0
  1  5  1  6  0  0  0
  1  6  1  0  0  0  0
  1  9  1  0  0  0  0
  2  3  1  0  0  0  0
  2  8  2  0  0  0  0
  3  4  1  0  0  0  0
  4  5  1  1  0  0  0
  4  7  1  0  0  0  0
  5 10  1  0  0  0  0
  5 11  1  0  0  0  0
  6  7  1  0  0  0  0
M  END
> <ID>
3829

> <Formula>
C10H16O

> <FW>
152.2334

> <DSSTox_CID>
4721

> <DSSTox_RID>
77510

> <DSSTox_GSID>
24721

> <DSSTox_FileID_Sort>
2193

> <TS_ChemName>
D-Camphor

> <TS_ChemName_Synonyms>


> <TS_CASRN>
464-49-3

> <CASRN_ChemName_Relationship>
primary

> <TS_Description>
single chemical compound

> <ChemNote>
absolute stereochem; rotation (+)

> <STRUCTURE_Shown>
tested chemical

> <STRUCTURE_Formula>
C10H16O

> <STRUCTURE_MW>
152.2334

> <STRUCTURE_ChemType>
defined organic

> <STRUCTURE_DefinedOrganicForm>
parent

> <STRUCTURE_IUPAC>
(1R,4R)-1,7,7-trimethylbicyclo[2.2.1]heptan-2-one

> <STRUCTURE_SMILES>
CC2(C)[C@H]1CC(=O)[C@]2(C)CC1

> <STRUCTURE_SMILES_Desalt>
CC2(C)[C@H]1CC(=O)[C@]2(C)CC1

> <Substance_modify_yyyymmdd>
20080429

$$$$
