4640-01-1
ChemmineR-0915142007XD

 18 19  0  0  0  0  0  0  0  0  1 V2000
    4.6129   -1.9835    0.0000 O    0  0  0  0  0  0  0  0  0  0  0  0
    3.4597   -2.6201    0.0000 C    0  0  0  0  0  0  0  0  0  0  0  0
    5.7477   -2.6201    0.0000 C    0  0  0  0  0  0  0  0  0  0  0  0
    2.3064   -1.9835    0.0000 C    0  0  0  0  0  0  0  0  0  0  0  0
    6.9193   -1.9835    0.0000 C    0  0  0  0  0  0  0  0  0  0  0  0
    1.1532   -2.6201    0.0000 C    0  0  0  0  0  0  0  0  0  0  0  0
    8.0541   -2.6201    0.0000 C    0  0  0  0  0  0  0  0  0  0  0  0
    3.4597   -3.9486    0.0000 C    0  0  0  0  0  0  0  0  0  0  0  0
    5.7477   -3.9486    0.0000 C    0  0  0  0  0  0  0  0  0  0  0  0
    8.0541   -3.9486    0.0000 C    0  0  0  0  0  0  0  0  0  0  0  0
    1.1532   -3.9486    0.0000 C    0  0  0  0  0  0  0  0  0  0  0  0
    2.3064   -0.6550    0.0000 Cl   0  0  0  0  0  0  0  0  0  0  0  0
    6.9193   -0.6550    0.0000 O    0  0  0  0  0  0  0  0  0  0  0  0
    2.3064   -4.6406    0.0000 C    0  0  0  0  0  0  0  0  0  0  0  0
    6.9193   -4.6406    0.0000 C    0  0  0  0  0  0  0  0  0  0  0  0
    0.0000   -4.6406    0.0000 Cl   0  0  0  0  0  0  0  0  0  0  0  0
    9.2258   -4.6406    0.0000 Cl   0  0  0  0  0  0  0  0  0  0  0  0
    8.0726    0.0000    0.0000 C    0  0  0  0  0  0  0  0  0  0  0  0
  1  2  1  0  0  0  0
  1  3  1  0  0  0  0
  2  4  1  0  0  0  0
  2  8  2  0  0  0  0
  3  5  2  0  0  0  0
  3  9  1  0  0  0  0
  4  6  2  0  0  0  0
  4 12  1  0  0  0  0
  5  7  1  0  0  0  0
  5 13  1  0  0  0  0
  6 11  1  0  0  0  0
  7 10  2  0  0  0  0
  8 14  1  0  0  0  0
  9 15  2  0  0  0  0
 10 15  1  0  0  0  0
 10 17  1  0  0  0  0
 11 14  2  0  0  0  0
 11 16  1  0  0  0  0
 13 18  1  0  0  0  0
M  END
> <ID>
12949

> <Formula>
C13H9Cl3O2

> <FW>
303.5684

> <DSSTox_CID>
27850

> <DSSTox_RID>
82603

> <DSSTox_GSID>
47874

> <DSSTox_FileID_Sort>
7280

> <TS_ChemName>
Methyl triclosan

> <TS_ChemName_Synonyms>


> <TS_CASRN>
4640-01-1

> <CASRN_ChemName_Relationship>
primary

> <TS_Description>
single chemical compound

> <ChemNote>


> <STRUCTURE_Shown>
tested chemical

> <STRUCTURE_Formula>
C13H9Cl3O2

> <STRUCTURE_MW>
303.5684

> <STRUCTURE_ChemType>
defined organic

> <STRUCTURE_DefinedOrganicForm>
parent

> <STRUCTURE_IUPAC>
2,4-dichloro-1-(4-chloro-2-methoxyphenoxy)benzene

> <STRUCTURE_SMILES>
Clc2cc(Cl)ccc2Oc1ccc(Cl)cc1OC

> <STRUCTURE_SMILES_Desalt>
Clc2cc(Cl)ccc2Oc1ccc(Cl)cc1OC

> <Substance_modify_yyyymmdd>


$$$$
