465-39-4
ChemmineR-0915142007XD

 31 36  0  0  1  0  0  0  0  0  1 V2000
    6.7878   -5.7754    0.0000 C   0  0  0  0  0  0  0  0  0  0  0  0
    6.7878   -7.0875    0.0000 C   0  0  0  0  0  0  0  0  0  0  0  0
    4.5046   -7.0668    0.0000 C   0  0  0  0  0  0  0  0  0  0  0  0
    5.6410   -7.6867    0.0000 C   0  0  0  0  0  0  0  0  0  0  0  0
    3.4301   -7.6867    0.0000 C   0  0  0  0  0  0  0  0  0  0  0  0
    5.6410   -5.1038    0.0000 C   0  0  0  0  0  0  0  0  0  0  0  0
    4.5046   -5.7754    0.0000 C   0  0  0  0  0  0  0  0  0  0  0  0
    5.6410   -9.0195    0.0000 C   0  0  0  0  0  0  0  0  0  0  0  0
    3.4301   -9.0195    0.0000 C   0  0  0  0  0  0  0  0  0  0  0  0
    4.5046   -9.7220    0.0000 C   0  0  0  0  0  0  0  0  0  0  0  0
    6.7878   -4.4839    0.0000 C   0  0  0  0  0  0  0  0  0  0  0  0
    3.4301   -6.4366    0.0000 C   0  0  0  0  0  0  0  0  0  0  0  0
    2.3039   -7.0668    0.0000 C   0  0  0  0  0  0  0  0  0  0  0  0
    2.3039   -9.7220    0.0000 C   0  0  0  0  0  0  0  0  0  0  0  0
    1.1468   -7.6867    0.0000 C   0  0  0  0  0  0  0  0  0  0  0  0
    1.1468   -9.0195    0.0000 C   0  0  0  0  0  0  0  0  0  0  0  0
    5.6410   -6.4056    0.0000 H   0  0  0  0  0  0  0  0  0  0  0  0
    4.5046   -8.4099    0.0000 H   0  0  0  0  0  0  0  0  0  0  0  0
    0.0000   -9.6497    0.0000 O   0  0  0  0  0  0  0  0  0  0  0  0
    3.4301  -10.3316    0.0000 H   0  0  0  0  0  0  0  0  0  0  0  0
    9.0711   -5.7754    0.0000 C   0  0  0  0  0  0  0  0  0  0  0  0
    9.0711   -7.0875    0.0000 C   0  0  0  0  0  0  0  0  0  0  0  0
    7.9347   -5.1141    0.0000 C   0  0  0  0  0  0  0  0  0  0  0  0
    7.9347   -7.7694    0.0000 O   0  0  0  0  0  0  0  0  0  0  0  0
    7.9347   -1.2708    0.0000 C   0  0  0  0  0  0  0  0  0  0  0  0
    6.8395   -1.9527    0.0000 O   0  0  0  0  0  0  0  0  0  0  0  0
    7.9347   -3.8743    0.0000 C   0  0  0  0  0  0  0  0  0  0  0  0
    6.8395   -3.1925    0.0000 C   0  0  0  0  0  0  0  0  0  0  0  0
    7.9347    0.0000    0.0000 O   0  0  0  0  0  0  0  0  0  0  0  0
    9.0711   -3.1925    0.0000 C   0  0  0  0  0  0  0  0  0  0  0  0
    9.0711   -1.9527    0.0000 C   0  0  0  0  0  0  0  0  0  0  0  0
  1  6  1  0  0  0  0
  1 11  1  1  0  0  0
  1 23  1  0  0  0  0
  1  2  1  0  0  0  0
  2  4  1  0  0  0  0
  2 24  1  1  0  0  0
  2 22  1  0  0  0  0
  3  4  1  0  0  0  0
  3 18  1  6  0  0  0
  3  7  1  0  0  0  0
  3  5  1  0  0  0  0
  4  8  1  0  0  0  0
  4 17  1  1  0  0  0
  5  9  1  0  0  0  0
  5 12  1  1  0  0  0
  5 13  1  0  0  0  0
  6  7  1  0  0  0  0
  8 10  1  0  0  0  0
  9 14  1  0  0  0  0
  9 10  1  0  0  0  0
  9 20  1  1  0  0  0
 13 15  1  0  0  0  0
 14 16  1  0  0  0  0
 15 16  1  0  0  0  0
 16 19  1  1  0  0  0
 21 22  1  0  0  0  0
 21 23  1  0  0  0  0
 22 24  1  1  0  0  0
 23 27  1  1  0  0  0
 25 31  1  0  0  0  0
 25 29  2  0  0  0  0
 25 26  1  0  0  0  0
 26 28  1  0  0  0  0
 27 28  2  0  0  0  0
 27 30  1  0  0  0  0
 30 31  2  0  0  0  0
M  END
> <ID>
11986

> <Formula>
C24H32O4

> <FW>
384.5085

> <DSSTox_CID>
26808

> <DSSTox_RID>
81922

> <DSSTox_GSID>
46808

> <DSSTox_FileID_Sort>
6603

> <TS_ChemName>
Bufogenin

> <TS_ChemName_Synonyms>


> <TS_CASRN>
465-39-4

> <CASRN_ChemName_Relationship>
primary

> <TS_Description>
single chemical compound

> <ChemNote>
stereochem

> <STRUCTURE_Shown>
tested chemical

> <STRUCTURE_Formula>
C24H32O4

> <STRUCTURE_MW>
384.5085

> <STRUCTURE_ChemType>
defined organic

> <STRUCTURE_DefinedOrganicForm>
parent

> <STRUCTURE_IUPAC>
(3beta,5beta,15beta)-3-hydroxy-14,15-epoxybufa-20,22-dienolide

> <STRUCTURE_SMILES>
O=C1C=CC(=CO1)[C@H]3C[C@H]2O[C@]24[C@@H]5CC[C@@H]6C[C@@H](O)CC[C@]6(C)[C@H]5CC[C@]34C

> <STRUCTURE_SMILES_Desalt>
O=C1C=CC(=CO1)[C@H]3C[C@H]2O[C@]24[C@@H]5CC[C@@H]6C[C@@H](O)CC[C@]6(C)[C@H]5CC[C@]34C

> <Substance_modify_yyyymmdd>
20110801

$$$$
