465-65-6
ChemmineR-0915142007XD

 24 28  0  0  1  0  0  0  0  0  1 V2000
    2.2013   -3.7897    0.0000 C   0  0  0  0  0  0  0  0  0  0  0  0
    3.2493   -4.4225    0.0000 C   0  0  0  0  0  0  0  0  0  0  0  0
    2.2013   -2.5243    0.0000 C   0  0  0  0  0  0  0  0  0  0  0  0
    1.1270   -4.4686    0.0000 C   0  0  0  0  0  0  0  0  0  0  0  0
    1.1270   -1.9377    0.0000 C   0  0  0  0  0  0  0  0  0  0  0  0
    0.3361   -3.1241    0.0000 O   0  0  0  0  0  0  0  0  0  0  0  0
    4.3763   -3.7897    0.0000 C   0  0  0  0  0  0  0  0  0  0  0  0
    3.2493   -1.9113    0.0000 C   0  0  0  0  0  0  0  0  0  0  0  0
    4.3763   -2.5243    0.0000 C   0  0  0  0  0  0  0  0  0  0  0  0
    2.1882   -5.3584    0.0000 C   0  0  0  0  0  0  0  0  0  0  0  0
    3.2493   -5.6813    0.0000 C   0  0  0  0  0  0  0  0  0  0  0  0
    1.1270   -5.7472    0.0000 C   0  0  0  0  0  0  0  0  0  0  0  0
    1.1270   -0.6327    0.0000 C   0  0  0  0  0  0  0  0  0  0  0  0
    3.2493   -0.6327    0.0000 C   0  0  0  0  0  0  0  0  0  0  0  0
    2.2013   -6.3602    0.0000 C   0  0  0  0  0  0  0  0  0  0  0  0
    3.2493   -3.2163    0.0000 O   0  0  0  0  0  0  0  0  0  0  0  0
    0.0330   -6.4063    0.0000 O   0  0  0  0  0  0  0  0  0  0  0  0
    2.2013   -0.0132    0.0000 C   0  0  0  0  0  0  0  0  0  0  0  0
    0.0000    0.0000    0.0000 O   0  0  0  0  0  0  0  0  0  0  0  0
    6.5909   -2.5243    0.0000 C   0  0  0  0  0  0  0  0  0  0  0  0
    6.5909   -3.8029    0.0000 C   0  0  0  0  0  0  0  0  0  0  0  0
    5.4638   -1.8916    0.0000 C   0  0  0  0  0  0  0  0  0  0  0  0
    5.4638   -4.4686    0.0000 N   0  0  0  0  0  0  0  0  0  0  0  0
    4.5741   -5.3584    0.0000 C   0  0  0  0  0  0  0  0  0  0  0  0
  1  2  1  0  0  0  0
  1  3  1  0  0  0  0
  1  4  1  0  0  0  0
  1 10  1  1  0  0  0
  2  7  1  0  0  0  0
  2 11  1  0  0  0  0
  2 16  1  1  0  0  0
  3  5  1  0  0  0  0
  3  8  2  0  0  0  0
  4  6  1  6  0  0  0
  4 12  1  0  0  0  0
  5 13  2  0  0  0  0
  5  6  1  0  0  0  0
  7 23  1  1  0  0  0
  7  9  1  0  0  0  0
  8  9  1  0  0  0  0
  8 14  1  0  0  0  0
 10 24  1  0  0  0  0
 11 15  1  0  0  0  0
 12 15  1  0  0  0  0
 12 17  2  0  0  0  0
 13 19  1  0  0  0  0
 13 18  1  0  0  0  0
 14 18  2  0  0  0  0
 20 21  1  0  0  0  0
 20 22  2  0  0  0  0
 21 23  1  0  0  0  0
 23 24  1  0  0  0  0
M  END
> <ID>
3005

> <Formula>
C19H21NO4

> <FW>
327.3743

> <DSSTox_CID>
3349

> <DSSTox_RID>
76986

> <DSSTox_GSID>
23349

> <DSSTox_FileID_Sort>
1670

> <TS_ChemName>
Naloxone

> <TS_ChemName_Synonyms>
Naloxone (NLX)

> <TS_CASRN>
465-65-6

> <CASRN_ChemName_Relationship>
primary

> <TS_Description>
single chemical compound

> <ChemNote>
stereochem; tautomers

> <STRUCTURE_Shown>
tested chemical

> <STRUCTURE_Formula>
C19H21NO4

> <STRUCTURE_MW>
327.3743

> <STRUCTURE_ChemType>
defined organic

> <STRUCTURE_DefinedOrganicForm>
parent

> <STRUCTURE_IUPAC>
(5alpha)-3,14-dihydroxy-17-(prop-2-en-1-yl)-4,5-epoxymorphinan-6-one

> <STRUCTURE_SMILES>
O=C1CC[C@@]5(O)[C@H]2Cc4ccc(O)c3O[C@@H]1[C@]5(CCN2CC=C)c34

> <STRUCTURE_SMILES_Desalt>
O=C1CC[C@@]5(O)[C@H]2Cc4ccc(O)c3O[C@@H]1[C@]5(CCN2CC=C)c34

> <Substance_modify_yyyymmdd>
20080429

$$$$
