465-73-6
ChemmineR-0915142007XD

 20 23  0  0  1  0  0  0  0  0  1 V2000
    0.0000   -3.9039    0.0000 C    0  0  0  0  0  0  0  0  0  0  0  0
    0.5621   -2.8970    0.0000 C    0  0  0  0  0  0  0  0  0  0  0  0
    1.5381   -2.1928    0.0000 C    0  0  0  0  0  0  0  0  0  0  0  0
    1.1736   -3.2923    0.0000 C    0  0  0  0  0  0  0  0  0  0  0  0
    1.2045   -1.2354    0.0000 C    0  0  0  0  0  0  0  0  0  0  0  0
    2.7611   -2.8970    0.0000 C    0  0  0  0  0  0  0  0  0  0  0  0
    2.1990   -3.9162    0.0000 C    0  0  0  0  0  0  0  0  0  0  0  0
    3.7371   -2.2237    0.0000 C    0  0  0  0  0  0  0  0  0  0  0  0
    3.4035   -3.3232    0.0000 C    0  0  0  0  0  0  0  0  0  0  0  0
    3.4035   -0.9574    0.0000 C    0  0  0  0  0  0  0  0  0  0  0  0
    4.9725   -2.9279    0.0000 C    0  0  0  0  0  0  0  0  0  0  0  0
    4.5154   -3.8853    0.0000 C    0  0  0  0  0  0  0  0  0  0  0  0
    2.1496   -5.1825    0.0000 H    0  0  0  0  0  0  0  0  0  0  0  0
    2.7426   -1.6431    0.0000 H    0  0  0  0  0  0  0  0  0  0  0  0
    4.2251    0.0000    0.0000 Cl   0  0  0  0  0  0  0  0  0  0  0  0
    2.5017   -0.0556    0.0000 Cl   0  0  0  0  0  0  0  0  0  0  0  0
    3.4035   -4.5895    0.0000 Cl   0  0  0  0  0  0  0  0  0  0  0  0
    4.7439   -1.4454    0.0000 Cl   0  0  0  0  0  0  0  0  0  0  0  0
    6.1770   -2.5573    0.0000 Cl   0  0  0  0  0  0  0  0  0  0  0  0
    4.9293   -5.0899    0.0000 Cl   0  0  0  0  0  0  0  0  0  0  0  0
  1  2  2  0  0  0  0
  1  4  1  0  0  0  0
  2  3  1  0  0  0  0
  3  5  1  1  0  0  0
  3  6  1  0  0  0  0
  4  5  1  1  0  0  0
  4  7  1  0  0  0  0
  6  7  1  0  0  0  0
  6  8  1  0  0  0  0
  6 14  1  1  0  0  0
  7  9  1  0  0  0  0
  7 13  1  1  0  0  0
  8 10  1  1  0  0  0
  8 11  1  0  0  0  0
  8 18  1  0  0  0  0
  9 10  1  1  0  0  0
  9 12  1  0  0  0  0
  9 17  1  0  0  0  0
 10 15  1  0  0  0  0
 10 16  1  0  0  0  0
 11 12  2  0  0  0  0
 11 19  1  0  0  0  0
 12 20  1  0  0  0  0
M  END
> <ID>
8997

> <Formula>
C12H8Cl6

> <FW>
364.9099

> <DSSTox_CID>
22065

> <DSSTox_RID>
79914

> <DSSTox_GSID>
42065

> <DSSTox_FileID_Sort>
4596

> <TS_ChemName>
Isodrin

> <TS_ChemName_Synonyms>


> <TS_CASRN>
465-73-6

> <CASRN_ChemName_Relationship>
primary

> <TS_Description>
single chemical compound

> <ChemNote>
stereochem

> <STRUCTURE_Shown>
tested chemical

> <STRUCTURE_Formula>
C12H8Cl6

> <STRUCTURE_MW>
364.9099

> <STRUCTURE_ChemType>
defined organic

> <STRUCTURE_DefinedOrganicForm>
parent

> <STRUCTURE_IUPAC>
(1R,4S,4aS,5R,8R,8aR)-1,2,3,4,10,10-hexachloro-1,4,4a,5,8,8a-hexahydro-1,4:5,8-dimethanonaphthalene

> <STRUCTURE_SMILES>
ClC3=C(Cl)[C@]4(Cl)[C@@H]2[C@@H]1C[C@H](C=C1)[C@@H]2[C@@]3(Cl)C4(Cl)Cl

> <STRUCTURE_SMILES_Desalt>
ClC3=C(Cl)[C@]4(Cl)[C@@H]2[C@@H]1C[C@H](C=C1)[C@@H]2[C@@]3(Cl)C4(Cl)Cl

> <Substance_modify_yyyymmdd>
20080825

$$$$
