4658-28-0
ChemmineR-0915142007XD

 15 15  0  0  0  0  0  0  0  0  2 V2000
    5.7515   -2.6453    0.0000 N   0  0  0  0  0  0  0  0  0  0  0  0
    5.7515   -3.9818    0.0000 C   0  0  0  0  0  0  0  0  0  0  0  0
    4.6086   -4.6362    0.0000 N   0  0  0  0  0  0  0  0  0  0  0  0
    3.4564   -3.9818    0.0000 C   0  0  0  0  0  0  0  0  0  0  0  0
    3.4564   -2.6453    0.0000 N   0  0  0  0  0  0  0  0  0  0  0  0
    4.6086   -1.9909    0.0000 C   0  0  0  0  0  0  0  0  0  0  0  0
    6.9036   -4.6547    0.0000 N   0  0  0  0  0  0  0  0  0  0  0  0
    1.1521   -3.9818    0.0000 N   0  3  0  0  0  0  0  0  0  0  0  0
    2.3135   -4.6362    0.0000 N   0  0  0  0  0  0  0  0  0  0  0  0
    0.0000   -3.3090    0.0000 N   0  5  0  0  0  0  0  0  0  0  0  0
    8.0650   -3.9818    0.0000 C   0  0  0  0  0  0  0  0  0  0  0  0
    8.0650   -2.6453    0.0000 C   0  0  0  0  0  0  0  0  0  0  0  0
    9.2171   -4.6547    0.0000 C   0  0  0  0  0  0  0  0  0  0  0  0
    4.6086   -0.6544    0.0000 S   0  0  0  0  0  0  0  0  0  0  0  0
    3.4564    0.0000    0.0000 C   0  0  0  0  0  0  0  0  0  0  0  0
  1  2  1  0  0  0  0
  1  6  2  0  0  0  0
  2  3  2  0  0  0  0
  2  7  1  0  0  0  0
  3  4  1  0  0  0  0
  4  5  2  0  0  0  0
  4  9  1  0  0  0  0
  5  6  1  0  0  0  0
  6 14  1  0  0  0  0
  7 11  1  0  0  0  0
  8  9  2  0  0  0  0
  8 10  2  0  0  0  0
 11 12  1  0  0  0  0
 11 13  1  0  0  0  0
 14 15  1  0  0  0  0
M  END
> <ID>
8575

> <Formula>
C7H11N7S

> <FW>
225.2741

> <DSSTox_CID>
21615

> <DSSTox_RID>
79787

> <DSSTox_GSID>
41615

> <DSSTox_FileID_Sort>
4469

> <TS_ChemName>
Aziprotryne

> <TS_ChemName_Synonyms>


> <TS_CASRN>
4658-28-0

> <CASRN_ChemName_Relationship>
primary

> <TS_Description>
single chemical compound

> <ChemNote>


> <STRUCTURE_Shown>
tested chemical

> <STRUCTURE_Formula>
C7H11N7S

> <STRUCTURE_MW>
225.2741

> <STRUCTURE_ChemType>
defined organic

> <STRUCTURE_DefinedOrganicForm>
parent

> <STRUCTURE_IUPAC>
4-azido-6-(methylsulfanyl)-N-(propan-2-yl)-1,3,5-triazin-2-amine

> <STRUCTURE_SMILES>
CSc1nc(/N=[N+]=[N-])nc(NC(C)C)n1

> <STRUCTURE_SMILES_Desalt>
CSc1nc(/N=[N+]=[N-])nc(NC(C)C)n1

> <Substance_modify_yyyymmdd>
20080825

$$$$
