466-97-7
ChemmineR-0915142007XD

 21 25  0  0  1  0  0  0  0  0  1 V2000
    2.6293   -2.2556    0.0000 C   0  0  0  0  0  0  0  0  0  0  0  0
    3.9276   -2.2556    0.0000 C   0  0  0  0  0  0  0  0  0  0  0  0
    4.6030   -1.1278    0.0000 C   0  0  0  0  0  0  0  0  0  0  0  0
    1.9867   -1.1278    0.0000 C   0  0  0  0  0  0  0  0  0  0  0  0
    3.3506   -0.3606    0.0000 O   0  0  0  0  0  0  0  0  0  0  0  0
    1.9867   -3.3834    0.0000 C   0  0  0  0  0  0  0  0  0  0  0  0
    4.6030   -3.3834    0.0000 C   0  0  0  0  0  0  0  0  0  0  0  0
    0.7016   -3.3834    0.0000 C   0  0  0  0  0  0  0  0  0  0  0  0
    2.6424   -4.5243    0.0000 C   0  0  0  0  0  0  0  0  0  0  0  0
    0.0328   -2.2556    0.0000 C   0  0  0  0  0  0  0  0  0  0  0  0
    3.9604   -4.5243    0.0000 C   0  0  0  0  0  0  0  0  0  0  0  0
    0.6754   -1.1278    0.0000 C   0  0  0  0  0  0  0  0  0  0  0  0
    2.0326   -5.1341    0.0000 N   0  0  0  0  0  0  0  0  0  0  0  0
    5.9143   -1.1278    0.0000 C   0  0  0  0  0  0  0  0  0  0  0  0
    5.9143   -3.3834    0.0000 C   0  0  0  0  0  0  0  0  0  0  0  0
    6.5569   -2.2556    0.0000 C   0  0  0  0  0  0  0  0  0  0  0  0
    1.3442   -2.2556    0.0000 C   0  0  0  0  0  0  0  0  0  0  0  0
    1.3442   -4.7734    0.0000 C   0  0  0  0  0  0  0  0  0  0  0  0
    6.5569    0.0000    0.0000 O   0  0  0  0  0  0  0  0  0  0  0  0
    0.0000   -0.0328    0.0000 O   0  0  0  0  0  0  0  0  0  0  0  0
    3.2850   -3.3834    0.0000 H   0  0  0  0  0  0  0  0  0  0  0  0
  1  2  1  0  0  0  0
  1  4  1  0  0  0  0
  1  6  1  0  0  0  0
  1 17  1  1  0  0  0
  2  3  1  0  0  0  0
  2  7  2  0  0  0  0
  3 14  2  0  0  0  0
  3  5  1  0  0  0  0
  4  5  1  6  0  0  0
  4 12  1  0  0  0  0
  6  8  1  0  0  0  0
  6  9  1  0  0  0  0
  6 21  1  1  0  0  0
  7 15  1  0  0  0  0
  7 11  1  0  0  0  0
  8 10  2  0  0  0  0
  9 11  1  0  0  0  0
  9 13  1  1  0  0  0
 10 12  1  0  0  0  0
 12 20  1  6  0  0  0
 13 18  1  0  0  0  0
 14 19  1  0  0  0  0
 14 16  1  0  0  0  0
 15 16  2  0  0  0  0
 17 18  1  0  0  0  0
M  END
> <ID>
14003

> <Formula>
C16H17NO3

> <FW>
271.3111

> <DSSTox_CID>
28945

> <DSSTox_RID>
83210

> <DSSTox_GSID>
49019

> <DSSTox_FileID_Sort>
7886

> <TS_ChemName>
Normorphine

> <TS_ChemName_Synonyms>


> <TS_CASRN>
466-97-7

> <CASRN_ChemName_Relationship>
primary

> <TS_Description>
single chemical compound

> <ChemNote>


> <STRUCTURE_Shown>
tested chemical

> <STRUCTURE_Formula>
C16H17NO3

> <STRUCTURE_MW>
271.3111

> <STRUCTURE_ChemType>
defined organic

> <STRUCTURE_DefinedOrganicForm>
parent

> <STRUCTURE_IUPAC>
(5alpha,6alpha)-7,8-didehydro-4,5-epoxymorphinan-3,6-diol

> <STRUCTURE_SMILES>
Oc1ccc2C[C@H]4NCC[C@@]35[C@@H](Oc1c23)[C@@H](O)C=C[C@@H]45

> <STRUCTURE_SMILES_Desalt>
Oc1ccc2C[C@H]4NCC[C@@]35[C@@H](Oc1c23)[C@@H](O)C=C[C@@H]45

> <Substance_modify_yyyymmdd>
20111204

$$$$
