467-15-2
ChemmineR-0915142007XD

 22 26  0  0  1  0  0  0  0  0  1 V2000
    2.6471   -2.2689    0.0000 C   0  0  0  0  0  0  0  0  0  0  0  0
    3.9548   -2.2689    0.0000 C   0  0  0  0  0  0  0  0  0  0  0  0
    4.6166   -1.1345    0.0000 C   0  0  0  0  0  0  0  0  0  0  0  0
    1.9695   -1.1345    0.0000 C   0  0  0  0  0  0  0  0  0  0  0  0
    3.3403   -0.3624    0.0000 O   0  0  0  0  0  0  0  0  0  0  0  0
    1.9853   -3.3876    0.0000 C   0  0  0  0  0  0  0  0  0  0  0  0
    4.6166   -3.3876    0.0000 C   0  0  0  0  0  0  0  0  0  0  0  0
    0.6933   -3.3876    0.0000 C   0  0  0  0  0  0  0  0  0  0  0  0
    2.6628   -4.5063    0.0000 C   0  0  0  0  0  0  0  0  0  0  0  0
    0.0315   -2.2689    0.0000 C   0  0  0  0  0  0  0  0  0  0  0  0
    4.0021   -4.4748    0.0000 C   0  0  0  0  0  0  0  0  0  0  0  0
    0.6775   -1.1345    0.0000 C   0  0  0  0  0  0  0  0  0  0  0  0
    2.0326   -5.1365    0.0000 N   0  0  0  0  0  0  0  0  0  0  0  0
    5.9244   -1.1345    0.0000 C   0  0  0  0  0  0  0  0  0  0  0  0
    5.9244   -3.3876    0.0000 C   0  0  0  0  0  0  0  0  0  0  0  0
    6.5704   -2.2689    0.0000 C   0  0  0  0  0  0  0  0  0  0  0  0
    1.3550   -2.2689    0.0000 C   0  0  0  0  0  0  0  0  0  0  0  0
    1.3550   -4.7742    0.0000 C   0  0  0  0  0  0  0  0  0  0  0  0
    0.0000   -0.0315    0.0000 O   0  0  0  0  0  0  0  0  0  0  0  0
    6.5704   -0.0158    0.0000 O   0  0  0  0  0  0  0  0  0  0  0  0
    7.8781    0.0000    0.0000 C   0  0  0  0  0  0  0  0  0  0  0  0
    3.3088   -3.3876    0.0000 H   0  0  0  0  0  0  0  0  0  0  0  0
  1  2  1  0  0  0  0
  1  4  1  0  0  0  0
  1  6  1  0  0  0  0
  1 17  1  1  0  0  0
  2  3  1  0  0  0  0
  2  7  2  0  0  0  0
  3 14  2  0  0  0  0
  3  5  1  0  0  0  0
  4  5  1  6  0  0  0
  4 12  1  0  0  0  0
  6  8  1  0  0  0  0
  6  9  1  0  0  0  0
  6 22  1  1  0  0  0
  7 15  1  0  0  0  0
  7 11  1  0  0  0  0
  8 10  2  0  0  0  0
  9 11  1  0  0  0  0
  9 13  1  1  0  0  0
 10 12  1  0  0  0  0
 12 19  1  6  0  0  0
 13 18  1  0  0  0  0
 14 20  1  0  0  0  0
 14 16  1  0  0  0  0
 15 16  2  0  0  0  0
 17 18  1  0  0  0  0
 20 21  1  0  0  0  0
M  END
> <ID>
11610

> <Formula>
C17H19NO3

> <FW>
285.3377

> <DSSTox_CID>
26327

> <DSSTox_RID>
81543

> <DSSTox_GSID>
46327

> <DSSTox_FileID_Sort>
6224

> <TS_ChemName>
Norcodeine

> <TS_ChemName_Synonyms>


> <TS_CASRN>
467-15-2

> <CASRN_ChemName_Relationship>
primary

> <TS_Description>
single chemical compound

> <ChemNote>
stereochem

> <STRUCTURE_Shown>
tested chemical

> <STRUCTURE_Formula>
C17H19NO3

> <STRUCTURE_MW>
285.3377

> <STRUCTURE_ChemType>
defined organic

> <STRUCTURE_DefinedOrganicForm>
parent

> <STRUCTURE_IUPAC>
(5alpha,6alpha)-3-methoxy-7,8-didehydro-4,5-epoxymorphinan-6-ol

> <STRUCTURE_SMILES>
COc1ccc2C[C@H]4NCC[C@@]35[C@@H](Oc1c23)[C@@H](O)C=C[C@@H]45

> <STRUCTURE_SMILES_Desalt>
COc1ccc2C[C@H]4NCC[C@@]35[C@@H](Oc1c23)[C@@H](O)C=C[C@@H]45

> <Substance_modify_yyyymmdd>
20110815

$$$$
