467-85-6
ChemmineR-0915142007XD

 22 23  0  0  0  0  0  0  0  0  1 V2000
    0.0000   -4.1183    0.0000 C   0  0  0  0  0  0  0  0  0  0  0  0
    1.1543   -3.4555    0.0000 C   0  0  0  0  0  0  0  0  0  0  0  0
    2.3012   -4.1183    0.0000 C   0  0  0  0  0  0  0  0  0  0  0  0
    2.3012   -5.4514    0.0000 O   0  0  0  0  0  0  0  0  0  0  0  0
    3.4555   -3.4555    0.0000 C   0  0  0  0  0  0  0  0  0  0  0  0
    4.1183   -4.6099    0.0000 C   0  0  0  0  0  0  0  0  0  0  0  0
    5.4514   -4.6099    0.0000 C   0  0  0  0  0  0  0  0  0  0  0  0
    6.1142   -5.7567    0.0000 N   0  0  0  0  0  0  0  0  0  0  0  0
    5.4514   -6.9111    0.0000 C   0  0  0  0  0  0  0  0  0  0  0  0
    7.4473   -5.7567    0.0000 C   0  0  0  0  0  0  0  0  0  0  0  0
    2.7927   -2.3012    0.0000 C   0  0  0  0  0  0  0  0  0  0  0  0
    3.4555   -1.1469    0.0000 C   0  0  0  0  0  0  0  0  0  0  0  0
    2.7927    0.0000    0.0000 C   0  0  0  0  0  0  0  0  0  0  0  0
    1.4597    0.0000    0.0000 C   0  0  0  0  0  0  0  0  0  0  0  0
    0.7969   -1.1469    0.0000 C   0  0  0  0  0  0  0  0  0  0  0  0
    1.4597   -2.3012    0.0000 C   0  0  0  0  0  0  0  0  0  0  0  0
    4.6099   -2.7927    0.0000 C   0  0  0  0  0  0  0  0  0  0  0  0
    5.7642   -3.4555    0.0000 C   0  0  0  0  0  0  0  0  0  0  0  0
    6.9111   -2.7927    0.0000 C   0  0  0  0  0  0  0  0  0  0  0  0
    6.9111   -1.4597    0.0000 C   0  0  0  0  0  0  0  0  0  0  0  0
    5.7642   -0.7969    0.0000 C   0  0  0  0  0  0  0  0  0  0  0  0
    4.6099   -1.4597    0.0000 C   0  0  0  0  0  0  0  0  0  0  0  0
  1  2  1  0  0  0  0
  2  3  1  0  0  0  0
  3  4  2  0  0  0  0
  3  5  1  0  0  0  0
  5  6  1  0  0  0  0
  5 11  1  0  0  0  0
  5 17  1  0  0  0  0
  6  7  1  0  0  0  0
  7  8  1  0  0  0  0
  8  9  1  0  0  0  0
  8 10  1  0  0  0  0
 11 12  2  0  0  0  0
 11 16  1  0  0  0  0
 12 13  1  0  0  0  0
 13 14  2  0  0  0  0
 14 15  1  0  0  0  0
 15 16  2  0  0  0  0
 17 18  2  0  0  0  0
 17 22  1  0  0  0  0
 18 19  1  0  0  0  0
 19 20  2  0  0  0  0
 20 21  1  0  0  0  0
 21 22  2  0  0  0  0
M  END
> <ID>
16148

> <Formula>
C20H25NO

> <FW>
295.4186

> <DSSTox_CID>
31537

> <DSSTox_RID>
97422

> <DSSTox_GSID>
57748

> <DSSTox_FileID_Sort>
8489

> <TS_ChemName>
Normethadone

> <TS_ChemName_Synonyms>


> <TS_CASRN>
467-85-6

> <CASRN_ChemName_Relationship>
primary

> <TS_Description>
single chemical compound

> <ChemNote>


> <STRUCTURE_Shown>
tested chemical

> <STRUCTURE_Formula>
C20H25NO

> <STRUCTURE_MW>
295.4186

> <STRUCTURE_ChemType>
defined organic

> <STRUCTURE_DefinedOrganicForm>
parent

> <STRUCTURE_IUPAC>
6-(dimethylamino)-4,4-diphenylhexan-3-one

> <STRUCTURE_SMILES>
CCC(=O)C(CCN(C)C)(c1ccccc1)c2ccccc2

> <STRUCTURE_SMILES_Desalt>
CCC(=O)C(CCN(C)C)(c1ccccc1)c2ccccc2

> <Substance_modify_yyyymmdd>
20131018

$$$$
