467-55-0
ChemmineR-0915142007XD

 37 42  0  0  1  0  0  0  0  0  1 V2000
    6.7939   -3.1156    0.0000 C   0  0  0  0  0  0  0  0  0  0  0  0
   10.1702   -2.0313    0.0000 C   0  0  0  0  0  0  0  0  0  0  0  0
    6.7939   -4.4057    0.0000 C   0  0  0  0  0  0  0  0  0  0  0  0
    8.0291   -2.7038    0.0000 C   0  0  0  0  0  0  0  0  0  0  0  0
    4.5430   -4.4057    0.0000 C   0  0  0  0  0  0  0  0  0  0  0  0
    5.6684   -2.4430    0.0000 C   0  0  0  0  0  0  0  0  0  0  0  0
    3.4038   -5.0508    0.0000 C   0  0  0  0  0  0  0  0  0  0  0  0
    8.7977   -3.8155    0.0000 C   0  0  0  0  0  0  0  0  0  0  0  0
    5.6684   -5.0508    0.0000 C   0  0  0  0  0  0  0  0  0  0  0  0
   10.1702   -3.4175    0.0000 O   0  0  0  0  0  0  0  0  0  0  0  0
    4.5430   -3.1156    0.0000 C   0  0  0  0  0  0  0  0  0  0  0  0
    8.7977   -1.5784    0.0000 C   0  0  0  0  0  0  0  0  0  0  0  0
    8.0291   -4.8175    0.0000 C   0  0  0  0  0  0  0  0  0  0  0  0
    3.4038   -6.3684    0.0000 C   0  0  0  0  0  0  0  0  0  0  0  0
    2.2783   -4.4057    0.0000 C   0  0  0  0  0  0  0  0  0  0  0  0
    5.6684   -6.3684    0.0000 C   0  0  0  0  0  0  0  0  0  0  0  0
    5.6684   -1.1941    0.0000 O   0  0  0  0  0  0  0  0  0  0  0  0
    4.5430   -6.9997    0.0000 C   0  0  0  0  0  0  0  0  0  0  0  0
    2.2783   -6.9997    0.0000 C   0  0  0  0  0  0  0  0  0  0  0  0
    6.7939   -1.8117    0.0000 C   0  0  0  0  0  0  0  0  0  0  0  0
    1.1666   -5.0508    0.0000 C   0  0  0  0  0  0  0  0  0  0  0  0
    1.1666   -6.3547    0.0000 C   0  0  0  0  0  0  0  0  0  0  0  0
    3.4038   -3.8979    0.0000 C   0  0  0  0  0  0  0  0  0  0  0  0
    0.0000   -6.9997    0.0000 O   0  0  0  0  0  0  0  0  0  0  0  0
    8.3036   -0.3294    0.0000 C   0  0  0  0  0  0  0  0  0  0  0  0
    3.4450   -7.8507    0.0000 H   0  0  0  0  0  0  0  0  0  0  0  0
    5.6684   -3.6920    0.0000 H   0  0  0  0  0  0  0  0  0  0  0  0
    4.5430   -5.7919    0.0000 H   0  0  0  0  0  0  0  0  0  0  0  0
    6.7939   -5.7919    0.0000 H   0  0  0  0  0  0  0  0  0  0  0  0
    8.0291   -4.0489    0.0000 H   0  0  0  0  0  0  0  0  0  0  0  0
    8.7977   -2.4705    0.0000 H   0  0  0  0  0  0  0  0  0  0  0  0
   10.1702   -0.6725    0.0000 O   0  0  0  0  0  0  0  0  0  0  0  0
   11.3643   -2.7175    0.0000 C   0  0  0  0  0  0  0  0  0  0  0  0
   11.3643    0.0000    0.0000 C   0  0  0  0  0  0  0  0  0  0  0  0
   12.5309   -2.0313    0.0000 C   0  0  0  0  0  0  0  0  0  0  0  0
   12.5309   -0.6725    0.0000 C   0  0  0  0  0  0  0  0  0  0  0  0
   13.7250    0.0000    0.0000 C   0  0  0  0  0  0  0  0  0  0  0  0
  1  3  1  0  0  0  0
  1  4  1  0  0  0  0
  1  6  1  0  0  0  0
  1 20  1  1  0  0  0
  2 12  1  0  0  0  0
  2 10  1  0  0  0  0
  2 32  1  6  0  0  0
  2 33  1  0  0  0  0
  3  9  1  0  0  0  0
  3 13  1  0  0  0  0
  3 29  1  6  0  0  0
  4  8  1  0  0  0  0
  4 12  1  0  0  0  0
  4 30  1  6  0  0  0
  5 11  1  0  0  0  0
  5  7  1  0  0  0  0
  5  9  1  0  0  0  0
  5 28  1  6  0  0  0
  6 11  1  0  0  0  0
  6 17  2  0  0  0  0
  7 14  1  0  0  0  0
  7 15  1  0  0  0  0
  7 23  1  1  0  0  0
  8 10  1  0  0  0  0
  8 13  1  0  0  0  0
  8 31  1  6  0  0  0
  9 16  1  0  0  0  0
  9 27  1  1  0  0  0
 12 25  1  6  0  0  0
 14 19  1  0  0  0  0
 14 26  1  6  0  0  0
 14 18  1  0  0  0  0
 15 21  1  0  0  0  0
 16 18  1  0  0  0  0
 19 22  1  0  0  0  0
 21 22  1  0  0  0  0
 22 24  1  1  0  0  0
 32 34  1  0  0  0  0
 33 35  1  0  0  0  0
 34 36  1  0  0  0  0
 35 36  1  0  0  0  0
 36 37  1  6  0  0  0
M  END
> <ID>
10864

> <Formula>
C27H42O4

> <FW>
430.62

> <DSSTox_CID>
25310

> <DSSTox_RID>
80794

> <DSSTox_GSID>
45310

> <DSSTox_FileID_Sort>
5475

> <TS_ChemName>
Hecogenin

> <TS_ChemName_Synonyms>


> <TS_CASRN>
467-55-0

> <CASRN_ChemName_Relationship>
primary

> <TS_Description>
single chemical compound

> <ChemNote>
stereochem

> <STRUCTURE_Shown>
tested chemical

> <STRUCTURE_Formula>
C27H42O4

> <STRUCTURE_MW>
430.62

> <STRUCTURE_ChemType>
defined organic

> <STRUCTURE_DefinedOrganicForm>
parent

> <STRUCTURE_IUPAC>
(3beta,5alpha,25R)-3-hydroxyspirostan-12-one

> <STRUCTURE_SMILES>
O=C4C[C@@H]1[C@@]6(C)CC[C@H](O)C[C@@H]6CC[C@H]1[C@@H]5C[C@@H]3O[C@]2(CC[C@@H](C)CO2)[C@@H](C)[C@@H]3[C@@]45C

> <STRUCTURE_SMILES_Desalt>
O=C4C[C@@H]1[C@@]6(C)CC[C@H](O)C[C@@H]6CC[C@H]1[C@@H]5C[C@@H]3O[C@]2(CC[C@@H](C)CO2)[C@@H](C)[C@@H]3[C@@]45C

> <Substance_modify_yyyymmdd>
20110720

$$$$
