46728-75-0
ChemmineR-0915142007XD

 17 16  0  0  0  0  0  0  0  0  2 V2000
    4.5990   -2.0039    0.0000 C    0  0  0  0  0  0  0  0  0  0  0  0
    4.5990   -3.3303    0.0000 C    0  0  0  0  0  0  0  0  0  0  0  0
    3.4456   -3.9863    0.0000 C    0  0  0  0  0  0  0  0  0  0  0  0
    2.3067   -3.3303    0.0000 C    0  0  0  0  0  0  0  0  0  0  0  0
    2.3067   -2.0039    0.0000 C    0  0  0  0  0  0  0  0  0  0  0  0
    3.4456   -1.3264    0.0000 C    0  0  0  0  0  0  0  0  0  0  0  0
    5.7523   -1.3264    0.0000 C    0  0  0  0  0  0  0  0  0  0  0  0
    6.9057   -2.0039    0.0000 O    0  0  0  0  0  0  0  0  0  0  0  0
    5.7523    0.0000    0.0000 O    0  5  0  0  0  0  0  0  0  0  0  0
    1.1534   -1.3264    0.0000 C    0  0  0  0  0  0  0  0  0  0  0  0
    1.1534    0.0000    0.0000 O    0  0  0  0  0  0  0  0  0  0  0  0
    0.0000   -2.0039    0.0000 O    0  0  0  0  0  0  0  0  0  0  0  0
    3.4456   -5.3198    0.0000 S    0  0  0  0  0  0  0  0  0  0  0  0
    2.1121   -5.3198    0.0000 O    0  0  0  0  0  0  0  0  0  0  0  0
    4.7720   -5.3198    0.0000 O    0  0  0  0  0  0  0  0  0  0  0  0
    3.4456   -6.6462    0.0000 O    0  0  0  0  0  0  0  0  0  0  0  0
    7.2084   -0.6055    0.0000 Li   0  3  0  0  0  0  0  0  0  0  0  0
  1  2  2  0  0  0  0
  1  6  1  0  0  0  0
  1  7  1  0  0  0  0
  2  3  1  0  0  0  0
  3  4  2  0  0  0  0
  3 13  1  0  0  0  0
  4  5  1  0  0  0  0
  5  6  2  0  0  0  0
  5 10  1  0  0  0  0
  7  8  2  0  0  0  0
  7  9  1  0  0  0  0
 10 11  2  0  0  0  0
 10 12  1  0  0  0  0
 13 14  2  0  0  0  0
 13 15  2  0  0  0  0
 13 16  1  0  0  0  0
M  END
> <ID>
10467

> <Formula>
C8H5LiO7S

> <FW>
252.1271 (245.1866+6.9405)

> <DSSTox_CID>
24819

> <DSSTox_RID>
80500

> <DSSTox_GSID>
44819

> <DSSTox_FileID_Sort>
5182

> <TS_ChemName>
Lithium 3-carboxy-5-sulfobenzoate

> <TS_ChemName_Synonyms>
Lithium 3-carboxy-5-sulfobenzoate (1,3-Benzenedicarboxylic acid, 5-sulfo-, monolithium salt)

> <TS_CASRN>
46728-75-0

> <CASRN_ChemName_Relationship>
primary

> <TS_Description>
single chemical compound

> <ChemNote>
parent [22326-31-4]

> <STRUCTURE_Shown>
tested chemical

> <STRUCTURE_Formula>
C8H5LiO7S

> <STRUCTURE_MW>
252.1271

> <STRUCTURE_ChemType>
defined organic

> <STRUCTURE_DefinedOrganicForm>
salt

> <STRUCTURE_IUPAC>
lithium 3-carboxy-5-sulfobenzoate

> <STRUCTURE_SMILES>
[Li+].OS(=O)(=O)c1cc(cc(c1)C([O-])=O)C(=O)O

> <STRUCTURE_SMILES_Desalt>
OS(=O)(=O)c1cc(cc(c1)C(=O)O)C(=O)O

> <Substance_modify_yyyymmdd>
20091116

$$$$
