4674-50-4
ChemmineR-0915142007XD

 16 17  0  0  1  0  0  0  0  0  1 V2000
    3.4592   -1.9997    0.0000 C   0  0  0  0  0  0  0  0  0  0  0  0
    3.4592   -3.3302    0.0000 C   0  0  0  0  0  0  0  0  0  0  0  0
    4.6042   -1.3304    0.0000 C   0  0  0  0  0  0  0  0  0  0  0  0
    4.6042   -3.9833    0.0000 C   0  0  0  0  0  0  0  0  0  0  0  0
    5.7572   -1.9997    0.0000 C   0  0  0  0  0  0  0  0  0  0  0  0
    5.7572   -3.3302    0.0000 C   0  0  0  0  0  0  0  0  0  0  0  0
    2.3061   -1.3304    0.0000 C   0  0  0  0  0  0  0  0  0  0  0  0
    1.1531   -1.9997    0.0000 C   0  0  0  0  0  0  0  0  0  0  0  0
    2.3061   -3.9833    0.0000 C   0  0  0  0  0  0  0  0  0  0  0  0
    1.1531   -3.3302    0.0000 C   0  0  0  0  0  0  0  0  0  0  0  0
    6.9103   -1.3304    0.0000 C   0  0  0  0  0  0  0  0  0  0  0  0
    6.9103    0.0000    0.0000 C   0  0  0  0  0  0  0  0  0  0  0  0
    8.0633   -1.9997    0.0000 C   0  0  0  0  0  0  0  0  0  0  0  0
    3.4592   -0.6531    0.0000 C   0  0  0  0  0  0  0  0  0  0  0  0
    2.3061    0.0000    0.0000 C   0  0  0  0  0  0  0  0  0  0  0  0
    0.0000   -3.9833    0.0000 O   0  0  0  0  0  0  0  0  0  0  0  0
  1  3  1  0  0  0  0
  1  7  1  0  0  0  0
  1  2  1  0  0  0  0
  1 14  1  1  0  0  0
  2  4  1  0  0  0  0
  2  9  2  0  0  0  0
  3  5  1  0  0  0  0
  4  6  1  0  0  0  0
  5  6  1  0  0  0  0
  5 11  1  6  0  0  0
  7  8  1  0  0  0  0
  7 15  1  1  0  0  0
  8 10  1  0  0  0  0
  9 10  1  0  0  0  0
 10 16  2  0  0  0  0
 11 12  2  0  0  0  0
 11 13  1  0  0  0  0
M  END
> <ID>
12204

> <Formula>
C15H22O

> <FW>
218.3346

> <DSSTox_CID>
27050

> <DSSTox_RID>
82068

> <DSSTox_GSID>
47050

> <DSSTox_FileID_Sort>
6749

> <TS_ChemName>
Nootkatone

> <TS_ChemName_Synonyms>
(+)-Nootkatone

> <TS_CASRN>
4674-50-4

> <CASRN_ChemName_Relationship>
primary

> <TS_Description>
single chemical compound

> <ChemNote>
stereochem

> <STRUCTURE_Shown>
tested chemical

> <STRUCTURE_Formula>
C15H22O

> <STRUCTURE_MW>
218.3346

> <STRUCTURE_ChemType>
defined organic

> <STRUCTURE_DefinedOrganicForm>
parent

> <STRUCTURE_IUPAC>
(4R,4aS,6R)-4,4a-dimethyl-6-(prop-1-en-2-yl)-4,4a,5,6,7,8-hexahydronaphthalen-2(3H)-one

> <STRUCTURE_SMILES>
C=C(C)[C@@H]1CCC2=CC(=O)C[C@@H](C)[C@]2(C)C1

> <STRUCTURE_SMILES_Desalt>
C=C(C)[C@@H]1CCC2=CC(=O)C[C@@H](C)[C@]2(C)C1

> <Substance_modify_yyyymmdd>
20100429

$$$$
