468-59-7
ChemmineR-0915142007XD

 19 20  0  0  1  0  0  0  0  0  1 V2000
    3.5011   -3.9726    0.0000 C   0  0  0  0  0  0  0  0  0  0  0  0
    4.6382   -3.3348    0.0000 C   0  0  0  0  0  0  0  0  0  0  0  0
    2.3572   -3.3348    0.0000 C   0  0  0  0  0  0  0  0  0  0  0  0
    4.6382   -4.5896    0.0000 O   0  0  0  0  0  0  0  0  0  0  0  0
    3.5011   -1.3103    0.0000 N   0  0  0  0  0  0  0  0  0  0  0  0
    4.6382   -1.9620    0.0000 C   0  0  0  0  0  0  0  0  0  0  0  0
    4.6382   -5.9138    0.0000 C   0  0  0  0  0  0  0  0  0  0  0  0
    2.3572   -4.6659    0.0000 C   0  0  0  0  0  0  0  0  0  0  0  0
    2.3572   -1.9620    0.0000 C   0  0  0  0  0  0  0  0  0  0  0  0
    3.5427   -6.5517    0.0000 O   0  0  0  0  0  0  0  0  0  0  0  0
    5.7960   -4.0142    0.0000 C   0  0  0  0  0  0  0  0  0  0  0  0
    3.5011    0.0000    0.0000 C   0  0  0  0  0  0  0  0  0  0  0  0
    5.8237   -6.5655    0.0000 C   0  0  0  0  0  0  0  0  0  0  0  0
    2.3572   -5.9970    0.0000 C   0  0  0  0  0  0  0  0  0  0  0  0
    1.1578   -4.0350    0.0000 C   0  0  0  0  0  0  0  0  0  0  0  0
    6.9330   -5.8376    0.0000 C   0  0  0  0  0  0  0  0  0  0  0  0
    1.2341   -6.6764    0.0000 C   0  0  0  0  0  0  0  0  0  0  0  0
    0.0000   -4.7144    0.0000 C   0  0  0  0  0  0  0  0  0  0  0  0
    0.0000   -6.0455    0.0000 C   0  0  0  0  0  0  0  0  0  0  0  0
  1  2  1  0  0  0  0
  1  3  1  0  0  0  0
  1  4  1  6  0  0  0
  1  8  1  1  0  0  0
  2  6  1  0  0  0  0
  2 11  1  1  0  0  0
  3  9  1  0  0  0  0
  4  7  1  0  0  0  0
  5  9  1  0  0  0  0
  5 12  1  0  0  0  0
  5  6  1  0  0  0  0
  7 10  2  0  0  0  0
  7 13  1  0  0  0  0
  8 14  2  0  0  0  0
  8 15  1  0  0  0  0
 13 16  1  0  0  0  0
 14 17  1  0  0  0  0
 15 18  2  0  0  0  0
 17 19  2  0  0  0  0
 18 19  1  0  0  0  0
M  END
> <ID>
11953

> <Formula>
C16H23NO2

> <FW>
261.3593

> <DSSTox_CID>
26766

> <DSSTox_RID>
81889

> <DSSTox_GSID>
46766

> <DSSTox_FileID_Sort>
6570

> <TS_ChemName>
Betaprodine

> <TS_ChemName_Synonyms>


> <TS_CASRN>
468-59-7

> <CASRN_ChemName_Relationship>
primary

> <TS_Description>
single chemical compound

> <ChemNote>
stereochem

> <STRUCTURE_Shown>
tested chemical

> <STRUCTURE_Formula>
C16H23NO2

> <STRUCTURE_MW>
261.3593

> <STRUCTURE_ChemType>
defined organic

> <STRUCTURE_DefinedOrganicForm>
parent

> <STRUCTURE_IUPAC>
(3R,4R)-1,3-dimethyl-4-phenylpiperidin-4-yl propanoate

> <STRUCTURE_SMILES>
C[C@@H]1CN(C)CC[C@]1(OC(=O)CC)c2ccccc2

> <STRUCTURE_SMILES_Desalt>
C[C@@H]1CN(C)CC[C@]1(OC(=O)CC)c2ccccc2

> <Substance_modify_yyyymmdd>
20110930

$$$$
