4680-78-8
ChemmineR-0915142007XD

 48 51  0  0  0  0  0  0  0  0  2 V2000
   11.1191   -4.6004    0.0000 C    0  0  0  0  0  0  0  0  0  0  0  0
    9.7870   -4.6004    0.0000 C    0  0  0  0  0  0  0  0  0  0  0  0
    9.1298   -3.4459    0.0000 C    0  0  0  0  0  0  0  0  0  0  0  0
    7.7976   -3.4459    0.0000 C    0  0  0  0  0  0  0  0  0  0  0  0
    7.1226   -4.6004    0.0000 C    0  0  0  0  0  0  0  0  0  0  0  0
    7.7976   -5.7550    0.0000 C    0  0  0  0  0  0  0  0  0  0  0  0
    9.1298   -5.7550    0.0000 C    0  0  0  0  0  0  0  0  0  0  0  0
    5.8082   -4.6004    0.0000 N    0  0  0  0  0  0  0  0  0  0  0  0
    5.1333   -3.4459    0.0000 C    0  0  0  0  0  0  0  0  0  0  0  0
    3.8011   -3.4459    0.0000 C    0  0  0  0  0  0  0  0  0  0  0  0
    3.1439   -2.2913    0.0000 C    0  0  0  0  0  0  0  0  0  0  0  0
    1.8117   -2.2913    0.0000 C    0  0  0  0  0  0  0  0  0  0  0  0
    1.1545   -3.4459    0.0000 C    0  0  0  0  0  0  0  0  0  0  0  0
    1.8117   -4.6004    0.0000 C    0  0  0  0  0  0  0  0  0  0  0  0
    3.1439   -4.6004    0.0000 C    0  0  0  0  0  0  0  0  0  0  0  0
    1.1545   -1.1545    0.0000 S    0  0  0  0  0  0  0  0  0  0  0  0
    2.3091   -0.4796    0.0000 O    0  0  0  0  0  0  0  0  0  0  0  0
    0.0000   -1.8117    0.0000 O    0  0  0  0  0  0  0  0  0  0  0  0
    0.4796    0.0000    0.0000 O    0  5  0  0  0  0  0  0  0  0  0  0
    5.1333   -5.7550    0.0000 C    0  0  0  0  0  0  0  0  0  0  0  0
    5.8082   -6.9095    0.0000 C    0  0  0  0  0  0  0  0  0  0  0  0
   11.7763   -5.7550    0.0000 C    0  0  0  0  0  0  0  0  0  0  0  0
   11.1191   -6.9095    0.0000 C    0  0  0  0  0  0  0  0  0  0  0  0
   11.7763   -8.0463    0.0000 C    0  0  0  0  0  0  0  0  0  0  0  0
   13.1085   -8.0463    0.0000 C    0  0  0  0  0  0  0  0  0  0  0  0
   13.7835   -6.9095    0.0000 C    0  0  0  0  0  0  0  0  0  0  0  0
   13.1085   -5.7550    0.0000 C    0  0  0  0  0  0  0  0  0  0  0  0
   13.7835   -9.2008    0.0000 N    0  3  0  0  0  0  0  0  0  0  0  0
   15.0979   -9.2008    0.0000 C    0  0  0  0  0  0  0  0  0  0  0  0
   15.7728  -10.3554    0.0000 C    0  0  0  0  0  0  0  0  0  0  0  0
   15.0979  -11.5099    0.0000 C    0  0  0  0  0  0  0  0  0  0  0  0
   15.7728  -12.6645    0.0000 C    0  0  0  0  0  0  0  0  0  0  0  0
   17.1050  -12.6645    0.0000 C    0  0  0  0  0  0  0  0  0  0  0  0
   17.7622  -11.5099    0.0000 C    0  0  0  0  0  0  0  0  0  0  0  0
   17.1050  -10.3554    0.0000 C    0  0  0  0  0  0  0  0  0  0  0  0
   15.0979  -13.8012    0.0000 S    0  0  0  0  0  0  0  0  0  0  0  0
   13.9611  -13.1440    0.0000 O    0  0  0  0  0  0  0  0  0  0  0  0
   16.2524  -14.4762    0.0000 O    0  0  0  0  0  0  0  0  0  0  0  0
   14.4407  -14.9558    0.0000 O    0  5  0  0  0  0  0  0  0  0  0  0
   13.1085  -10.3554    0.0000 C    0  0  0  0  0  0  0  0  0  0  0  0
   13.7835  -11.5099    0.0000 C    0  0  0  0  0  0  0  0  0  0  0  0
   11.7763   -3.4459    0.0000 C    0  0  0  0  0  0  0  0  0  0  0  0
   13.1085   -3.4459    0.0000 C    0  0  0  0  0  0  0  0  0  0  0  0
   13.7835   -2.2913    0.0000 C    0  0  0  0  0  0  0  0  0  0  0  0
   13.1085   -1.1545    0.0000 C    0  0  0  0  0  0  0  0  0  0  0  0
   11.7763   -1.1545    0.0000 C    0  0  0  0  0  0  0  0  0  0  0  0
   11.1191   -2.2913    0.0000 C    0  0  0  0  0  0  0  0  0  0  0  0
    8.8989  -16.2879    0.0000 Na   0  3  0  0  0  0  0  0  0  0  0  0
  1  2  1  0  0  0  0
  1 22  2  0  0  0  0
  1 42  1  0  0  0  0
  2  3  2  0  0  0  0
  2  7  1  0  0  0  0
  3  4  1  0  0  0  0
  4  5  2  0  0  0  0
  5  6  1  0  0  0  0
  5  8  1  0  0  0  0
  6  7  2  0  0  0  0
  8  9  1  0  0  0  0
  8 20  1  0  0  0  0
  9 10  1  0  0  0  0
 10 11  2  0  0  0  0
 10 15  1  0  0  0  0
 11 12  1  0  0  0  0
 12 13  2  0  0  0  0
 12 16  1  0  0  0  0
 13 14  1  0  0  0  0
 14 15  2  0  0  0  0
 16 17  2  0  0  0  0
 16 18  2  0  0  0  0
 16 19  1  0  0  0  0
 20 21  1  0  0  0  0
 22 23  1  0  0  0  0
 22 27  1  0  0  0  0
 23 24  2  0  0  0  0
 24 25  1  0  0  0  0
 25 26  1  0  0  0  0
 25 28  2  0  0  0  0
 26 27  2  0  0  0  0
 28 29  1  0  0  0  0
 28 40  1  0  0  0  0
 29 30  1  0  0  0  0
 30 31  2  0  0  0  0
 30 35  1  0  0  0  0
 31 32  1  0  0  0  0
 32 33  2  0  0  0  0
 32 36  1  0  0  0  0
 33 34  1  0  0  0  0
 34 35  2  0  0  0  0
 36 37  2  0  0  0  0
 36 38  2  0  0  0  0
 36 39  1  0  0  0  0
 40 41  1  0  0  0  0
 42 43  2  0  0  0  0
 42 47  1  0  0  0  0
 43 44  1  0  0  0  0
 44 45  2  0  0  0  0
 45 46  1  0  0  0  0
 46 47  2  0  0  0  0
M  END
> <ID>
644

> <Formula>
C37H35N2NaO6S2

> <FW>
690.8034 (667.8141+22.9892)

> <DSSTox_CID>
671

> <DSSTox_RID>
75723

> <DSSTox_GSID>
20671

> <DSSTox_FileID_Sort>
407

> <TS_ChemName>
FD&C Green No. 1

> <TS_ChemName_Synonyms>
FD & C green No. 1 (C.I. Acid Green 3) (Guinea Green B)

> <TS_CASRN>
4680-78-8

> <CASRN_ChemName_Relationship>
primary

> <TS_Description>
single chemical compound

> <ChemNote>
ammonium; parent [6638-02-4]

> <STRUCTURE_Shown>
tested chemical

> <STRUCTURE_Formula>
C37H35N2NaO6S2

> <STRUCTURE_MW>
690.8034

> <STRUCTURE_ChemType>
defined organic

> <STRUCTURE_DefinedOrganicForm>
salt

> <STRUCTURE_IUPAC>
sodium 3-[(ethyl{(1E,4E)-4-[{4-[ethyl(3-sulfonatobenzyl)amino]phenyl}(phenyl)methylidene]cyclohexa-2,5-dien-1-ylidene}ammonio)methyl]benzenesulfonate

> <STRUCTURE_SMILES>
[Na+].CC/[N+](Cc1cccc(c1)S([O-])(=O)=O)=C2\C=C/C(C=C2)=C(/c3ccccc3)c4ccc(cc4)N(Cc5cccc(c5)S([O-])(=O)=O)CC

> <STRUCTURE_SMILES_Desalt>
CC/[N+](Cc1cccc(c1)S(=O)(=O)O)=C2\C=C/C(C=C2)=C(/c3ccccc3)c4ccc(cc4)N(Cc5cccc(c5)S(=O)(=O)O)CC

> <Substance_modify_yyyymmdd>
20080429

$$$$
