4682-36-4
ChemmineR-0915142007XD

 33 33  0  0  0  0  0  0  0  0  1 V2000
    3.4695   -2.6563    0.0000 C   0  0  0  0  0  0  0  0  0  0  0  0
    3.4695   -3.9754    0.0000 C   0  0  0  0  0  0  0  0  0  0  0  0
    2.2949   -2.0058    0.0000 C   0  0  0  0  0  0  0  0  0  0  0  0
    2.2949   -4.6440    0.0000 C   0  0  0  0  0  0  0  0  0  0  0  0
    4.5898   -4.6440    0.0000 O   0  0  0  0  0  0  0  0  0  0  0  0
    8.0593   -3.9754    0.0000 N   0  0  0  0  0  0  0  0  0  0  0  0
    5.7644   -3.9754    0.0000 C   0  0  0  0  0  0  0  0  0  0  0  0
    4.5898   -2.0058    0.0000 C   0  0  0  0  0  0  0  0  0  0  0  0
    6.9028   -4.6440    0.0000 C   0  0  0  0  0  0  0  0  0  0  0  0
    1.1565   -2.6563    0.0000 C   0  0  0  0  0  0  0  0  0  0  0  0
    2.2949   -0.6686    0.0000 C   0  0  0  0  0  0  0  0  0  0  0  0
    2.2949   -5.9812    0.0000 C   0  0  0  0  0  0  0  0  0  0  0  0
    1.1565   -3.9754    0.0000 C   0  0  0  0  0  0  0  0  0  0  0  0
    8.0593   -2.6563    0.0000 C   0  0  0  0  0  0  0  0  0  0  0  0
    9.1977   -4.6440    0.0000 C   0  0  0  0  0  0  0  0  0  0  0  0
    4.5898   -0.6686    0.0000 C   0  0  0  0  0  0  0  0  0  0  0  0
    1.1565   -6.6317    0.0000 C   0  0  0  0  0  0  0  0  0  0  0  0
    0.0000   -4.6440    0.0000 C   0  0  0  0  0  0  0  0  0  0  0  0
    3.4695    0.0000    0.0000 C   0  0  0  0  0  0  0  0  0  0  0  0
    0.0000   -5.9812    0.0000 C   0  0  0  0  0  0  0  0  0  0  0  0
   14.7452   -2.8189    0.0000 C   0  0  0  0  0  0  0  0  0  0  0  0
   16.0824   -2.8189    0.0000 C   0  0  0  0  0  0  0  0  0  0  0  0
   13.3900   -2.8189    0.0000 C   0  0  0  0  0  0  0  0  0  0  0  0
   14.7452   -4.1381    0.0000 C   0  0  0  0  0  0  0  0  0  0  0  0
   13.5887   -4.8067    0.0000 O   0  0  0  0  0  0  0  0  0  0  0  0
   12.7575   -1.6444    0.0000 C   0  0  0  0  0  0  0  0  0  0  0  0
   11.3842   -1.6444    0.0000 O   0  0  0  0  0  0  0  0  0  0  0  0
   13.3900   -0.5060    0.0000 O   0  0  0  0  0  0  0  0  0  0  0  0
   16.7149   -1.6444    0.0000 C   0  0  0  0  0  0  0  0  0  0  0  0
   16.0824   -0.5060    0.0000 O   0  0  0  0  0  0  0  0  0  0  0  0
   18.0701   -1.6444    0.0000 O   0  0  0  0  0  0  0  0  0  0  0  0
   14.7452   -1.4998    0.0000 O   0  0  0  0  0  0  0  0  0  0  0  0
   15.9198   -4.8067    0.0000 O   0  0  0  0  0  0  0  0  0  0  0  0
  1  2  1  0  0  0  0
  1  3  2  0  0  0  0
  1  8  1  0  0  0  0
  2  4  1  0  0  0  0
  2  5  1  0  0  0  0
  3 10  1  0  0  0  0
  3 11  1  0  0  0  0
  4 12  2  0  0  0  0
  4 13  1  0  0  0  0
  5  7  1  0  0  0  0
  6  9  1  0  0  0  0
  6 14  1  0  0  0  0
  6 15  1  0  0  0  0
  7  9  1  0  0  0  0
  8 16  2  0  0  0  0
 11 19  2  0  0  0  0
 12 17  1  0  0  0  0
 13 18  2  0  0  0  0
 16 19  1  0  0  0  0
 17 20  2  0  0  0  0
 18 20  1  0  0  0  0
 21 24  1  0  0  0  0
 21 23  1  0  0  0  0
 21 32  1  0  0  0  0
 21 22  1  0  0  0  0
 22 29  1  0  0  0  0
 23 26  1  0  0  0  0
 24 25  1  0  0  0  0
 24 33  2  0  0  0  0
 26 27  1  0  0  0  0
 26 28  2  0  0  0  0
 29 30  2  0  0  0  0
 29 31  1  0  0  0  0
M  END
> <ID>
10330

> <Formula>
C24H31NO8

> <FW>
461.5048 (269.3813+192.1235)

> <DSSTox_CID>
24678

> <DSSTox_RID>
80390

> <DSSTox_GSID>
44678

> <DSSTox_FileID_Sort>
5072

> <TS_ChemName>
Orphenadrine dihydrogen citrate

> <TS_ChemName_Synonyms>


> <TS_CASRN>
4682-36-4

> <CASRN_ChemName_Relationship>
primary

> <TS_Description>
single chemical compound

> <ChemNote>
parent [83-98-7]

> <STRUCTURE_Shown>
tested chemical

> <STRUCTURE_Formula>
C24H31NO8

> <STRUCTURE_MW>
461.5048

> <STRUCTURE_ChemType>
defined organic

> <STRUCTURE_DefinedOrganicForm>
complex

> <STRUCTURE_IUPAC>
N,N-dimethyl-2-[(2-methylphenyl)(phenyl)methoxy]ethanamine 2-hydroxypropane-1,2,3-tricarboxylate (1:1)

> <STRUCTURE_SMILES>
O=C(O)C(O)(CC(=O)O)CC(=O)O.CN(C)CCOC(c1ccccc1)c2ccccc2C

> <STRUCTURE_SMILES_Desalt>
CN(C)CCOC(c1ccccc1)c2ccccc2C

> <Substance_modify_yyyymmdd>
20080429

$$$$
