4684-94-0
ChemmineR-0915142007XD

 10 10  0  0  0  0  0  0  0  0  1 V2000
    3.4631   -1.3484    0.0000 N    0  0  0  0  0  0  0  0  0  0  0  0
    2.3107   -2.0053    0.0000 C    0  0  0  0  0  0  0  0  0  0  0  0
    4.6098   -2.0168    0.0000 C    0  0  0  0  0  0  0  0  0  0  0  0
    5.7623   -1.3369    0.0000 Cl   0  0  0  0  0  0  0  0  0  0  0  0
    2.3107   -3.3364    0.0000 C    0  0  0  0  0  0  0  0  0  0  0  0
    3.4631   -4.0048    0.0000 C    0  0  0  0  0  0  0  0  0  0  0  0
    4.6098   -3.3364    0.0000 C    0  0  0  0  0  0  0  0  0  0  0  0
    1.1640   -1.3369    0.0000 C    0  0  0  0  0  0  0  0  0  0  0  0
    0.0000   -1.9880    0.0000 O    0  0  0  0  0  0  0  0  0  0  0  0
    1.1640    0.0000    0.0000 O    0  0  0  0  0  0  0  0  0  0  0  0
  1  2  2  0  0  0  0
  1  3  1  0  0  0  0
  2  5  1  0  0  0  0
  2  8  1  0  0  0  0
  3  4  1  0  0  0  0
  3  7  2  0  0  0  0
  5  6  2  0  0  0  0
  6  7  1  0  0  0  0
  8  9  2  0  0  0  0
  8 10  1  0  0  0  0
M  END
> <ID>
7665

> <Formula>
C6H4ClNO2

> <FW>
157.5545

> <DSSTox_CID>
20289

> <DSSTox_RID>
79472

> <DSSTox_GSID>
40289

> <DSSTox_FileID_Sort>
4154

> <TS_ChemName>
6-Chloro-2-picolinic acid

> <TS_ChemName_Synonyms>


> <TS_CASRN>
4684-94-0

> <CASRN_ChemName_Relationship>
primary

> <TS_Description>
single chemical compound

> <ChemNote>


> <STRUCTURE_Shown>
tested chemical

> <STRUCTURE_Formula>
C6H4ClNO2

> <STRUCTURE_MW>
157.5545

> <STRUCTURE_ChemType>
defined organic

> <STRUCTURE_DefinedOrganicForm>
parent

> <STRUCTURE_IUPAC>
6-chloropyridine-2-carboxylic acid

> <STRUCTURE_SMILES>
OC(=O)c1cccc(Cl)n1

> <STRUCTURE_SMILES_Desalt>
OC(=O)c1cccc(Cl)n1

> <Substance_modify_yyyymmdd>
20080429

$$$$
