4697-14-7
ChemmineR-0915142007XD

 29 29  0  0  1  0  0  0  0  0  2 V2000
    9.3193  -10.2073    0.0000 Na   0  3  0  0  0  0  0  0  0  0  0  0
    0.0000   -4.7158    0.0000 Na   0  3  0  0  0  0  0  0  0  0  0  0
    6.7572   -7.0635    0.0000 N    0  0  0  0  0  0  0  0  0  0  0  0
    6.7572   -5.6651    0.0000 C    0  0  0  0  0  0  0  0  0  0  0  0
    5.3282   -7.0635    0.0000 C    0  0  0  0  0  0  0  0  0  0  0  0
    5.3282   -5.6651    0.0000 C    0  0  0  0  0  0  0  0  0  0  0  0
    8.1352   -7.5228    0.0000 C    0  0  0  0  0  0  0  0  0  0  0  0
    8.1454   -5.2057    0.0000 S    0  0  0  0  0  0  0  0  0  0  0  0
    8.9518   -6.3285    0.0000 C    0  0  0  0  0  0  0  0  0  0  0  0
    4.0931   -3.8482    0.0000 C    0  0  0  0  0  0  0  0  0  0  0  0
    4.0931   -5.1139    0.0000 N    0  0  0  0  0  0  0  0  0  0  0  0
    2.9907   -3.2153    0.0000 C    0  0  0  0  0  0  0  0  0  0  0  0
    8.5741   -8.8804    0.0000 C    0  0  0  0  0  0  0  0  0  0  0  0
    2.9907   -1.9496    0.0000 C    0  0  0  0  0  0  0  0  0  0  0  0
    1.9088   -3.8482    0.0000 C    0  0  0  0  0  0  0  0  0  0  0  0
    4.5116   -7.9617    0.0000 O    0  0  0  0  0  0  0  0  0  0  0  0
    2.3681    0.0000    0.0000 S    0  0  0  0  0  0  0  0  0  0  0  0
    5.1853   -3.2153    0.0000 O    0  0  0  0  0  0  0  0  0  0  0  0
    1.9700   -1.2045    0.0000 C    0  0  0  0  0  0  0  0  0  0  0  0
    4.0115   -1.2045    0.0000 C    0  0  0  0  0  0  0  0  0  0  0  0
    3.6338    0.0000    0.0000 C    0  0  0  0  0  0  0  0  0  0  0  0
    9.9930   -9.1662    0.0000 O    0  0  0  0  0  0  0  0  0  0  0  0
    0.8064   -3.2153    0.0000 O    0  0  0  0  0  0  0  0  0  0  0  0
    7.6453   -9.9828    0.0000 O    0  5  0  0  0  0  0  0  0  0  0  0
    1.9088   -5.1139    0.0000 O    0  5  0  0  0  0  0  0  0  0  0  0
    9.7990   -5.2057    0.0000 C    0  0  0  0  0  0  0  0  0  0  0  0
    9.8399   -7.4718    0.0000 C    0  0  0  0  0  0  0  0  0  0  0  0
    6.7470   -4.5423    0.0000 H    0  0  0  0  0  0  0  0  0  0  0  0
    5.3282   -4.5320    0.0000 H    0  0  0  0  0  0  0  0  0  0  0  0
  3  4  1  0  0  0  0
  3  5  1  0  0  0  0
  3  7  1  0  0  0  0
  4  8  1  0  0  0  0
  4 28  1  6  0  0  0
  4  6  1  0  0  0  0
  5  6  1  0  0  0  0
  5 16  2  0  0  0  0
  6 11  1  1  0  0  0
  6 29  1  6  0  0  0
  7  9  1  0  0  0  0
  7 13  1  6  0  0  0
  8  9  1  0  0  0  0
  9 26  1  0  0  0  0
  9 27  1  0  0  0  0
 10 11  1  0  0  0  0
 10 12  1  0  0  0  0
 10 18  2  0  0  0  0
 12 14  1  0  0  0  0
 12 15  1  6  0  0  0
 13 22  2  0  0  0  0
 13 24  1  0  0  0  0
 14 19  2  0  0  0  0
 14 20  1  0  0  0  0
 15 23  2  0  0  0  0
 15 25  1  0  0  0  0
 17 19  1  0  0  0  0
 17 21  1  0  0  0  0
 20 21  2  0  0  0  0
M  END
> <ID>
11026

> <Formula>
C15H14N2Na2O6S2

> <FW>
428.3910 (22.9892+22.9892+382.4126)

> <DSSTox_CID>
25561

> <DSSTox_RID>
80958

> <DSSTox_GSID>
45561

> <DSSTox_FileID_Sort>
5639

> <TS_ChemName>
Ticarcillin disodium

> <TS_ChemName_Synonyms>


> <TS_CASRN>
4697-14-7

> <CASRN_ChemName_Relationship>
primary

> <TS_Description>
single chemical compound

> <ChemNote>
stereochem; parent [34787-01-4]

> <STRUCTURE_Shown>
tested chemical

> <STRUCTURE_Formula>
C15H14N2Na2O6S2

> <STRUCTURE_MW>
428.391

> <STRUCTURE_ChemType>
defined organic

> <STRUCTURE_DefinedOrganicForm>
complex

> <STRUCTURE_IUPAC>
disodium (2S,5R,6R)-6-{[(2R)-2-carboxylato-2-(thiophen-3-yl)acetyl]amino}-3,3-dimethyl-7-oxo-4-thia-1-azabicyclo[3.2.0]heptane-2-carboxylate

> <STRUCTURE_SMILES>
[Na+].[Na+].O=C([O-])[C@@H]2N3C(=O)[C@@H](NC(=O)[C@@H](c1ccsc1)C([O-])=O)[C@H]3SC2(C)C

> <STRUCTURE_SMILES_Desalt>
OC(=O)[C@@H]2N3C(=O)[C@@H](NC(=O)[C@@H](c1ccsc1)C(=O)O)[C@H]3SC2(C)C

> <Substance_modify_yyyymmdd>
20100107

$$$$
