470-90-6
ChemmineR-0915142007XD

 20 20  0  0  0  0  0  0  0  0  1 V2000
    5.7752   -3.3144    0.0000 P    0  0  0  0  0  0  0  0  0  0  0  0
    7.1010   -3.3144    0.0000 O    0  0  0  0  0  0  0  0  0  0  0  0
    5.7752   -4.6402    0.0000 O    0  0  0  0  0  0  0  0  0  0  0  0
    4.4404   -3.3144    0.0000 O    0  0  0  0  0  0  0  0  0  0  0  0
    5.7752   -1.9886    0.0000 O    0  0  0  0  0  0  0  0  0  0  0  0
    4.6220   -5.3303    0.0000 C    0  0  0  0  0  0  0  0  0  0  0  0
    4.6220   -6.6560    0.0000 C    0  0  0  0  0  0  0  0  0  0  0  0
    3.4688   -7.3098    0.0000 Cl   0  0  0  0  0  0  0  0  0  0  0  0
    3.4688   -4.6402    0.0000 C    0  0  0  0  0  0  0  0  0  0  0  0
    2.3065   -5.3303    0.0000 C    0  0  0  0  0  0  0  0  0  0  0  0
    3.4688   -3.3144    0.0000 C    0  0  0  0  0  0  0  0  0  0  0  0
    1.1532   -4.6402    0.0000 C    0  0  0  0  0  0  0  0  0  0  0  0
    2.3065   -2.6697    0.0000 C    0  0  0  0  0  0  0  0  0  0  0  0
    1.1532   -3.3144    0.0000 C    0  0  0  0  0  0  0  0  0  0  0  0
    2.3065   -6.6560    0.0000 Cl   0  0  0  0  0  0  0  0  0  0  0  0
    0.0000   -2.6697    0.0000 Cl   0  0  0  0  0  0  0  0  0  0  0  0
    6.9194   -1.3348    0.0000 C    0  0  0  0  0  0  0  0  0  0  0  0
    6.9194    0.0000    0.0000 C    0  0  0  0  0  0  0  0  0  0  0  0
    7.7548   -2.1612    0.0000 C    0  0  0  0  0  0  0  0  0  0  0  0
    9.0805   -2.1612    0.0000 C    0  0  0  0  0  0  0  0  0  0  0  0
  1  2  1  0  0  0  0
  1  3  1  0  0  0  0
  1  4  2  0  0  0  0
  1  5  1  0  0  0  0
  2 19  1  0  0  0  0
  3  6  1  0  0  0  0
  5 17  1  0  0  0  0
  6  7  2  3  0  0  0
  6  9  1  0  0  0  0
  7  8  1  0  0  0  0
  9 10  2  0  0  0  0
  9 11  1  0  0  0  0
 10 12  1  0  0  0  0
 10 15  1  0  0  0  0
 11 13  2  0  0  0  0
 12 14  2  0  0  0  0
 13 14  1  0  0  0  0
 14 16  1  0  0  0  0
 17 18  1  0  0  0  0
 19 20  1  0  0  0  0
M  END
> <ID>
6695

> <Formula>
C12H14Cl3O4P

> <FW>
359.5699

> <DSSTox_CID>
14250

> <DSSTox_RID>
79130

> <DSSTox_GSID>
34250

> <DSSTox_FileID_Sort>
3812

> <TS_ChemName>
Chlorfenvinphos

> <TS_ChemName_Synonyms>
Chlorfenvinphos (2-Chloro-1-(2,4-dichlorophenyl)vinyl diethyl phosphate)

> <TS_CASRN>
470-90-6

> <CASRN_ChemName_Relationship>
primary

> <TS_Description>
mixture of Z,E isomers

> <ChemNote>
mixture of Z,E isomers

> <STRUCTURE_Shown>
representative isomer in mixture

> <STRUCTURE_Formula>
C12H14Cl3O4P

> <STRUCTURE_MW>
359.5699

> <STRUCTURE_ChemType>
defined organic

> <STRUCTURE_DefinedOrganicForm>
parent

> <STRUCTURE_IUPAC>
2-chloro-1-(2,4-dichlorophenyl)ethenyl diethyl phosphate

> <STRUCTURE_SMILES>
Clc1cc(Cl)ccc1C(OP(=O)(OCC)OCC)=CCl

> <STRUCTURE_SMILES_Desalt>
Clc1cc(Cl)ccc1C(OP(=O)(OCC)OCC)=CCl

> <Substance_modify_yyyymmdd>
20080429

$$$$
