4707-47-5
ChemmineR-0915142007XD

 14 14  0  0  0  0  0  0  0  0  1 V2000
    4.5952   -1.3296    0.0000 C   0  0  0  0  0  0  0  0  0  0  0  0
    4.5952    0.0000    0.0000 O   0  0  0  0  0  0  0  0  0  0  0  0
    3.4447   -1.9979    0.0000 C   0  0  0  0  0  0  0  0  0  0  0  0
    5.7526   -1.9979    0.0000 O   0  0  0  0  0  0  0  0  0  0  0  0
    2.3217   -1.3296    0.0000 C   0  0  0  0  0  0  0  0  0  0  0  0
    3.4447   -3.3275    0.0000 C   0  0  0  0  0  0  0  0  0  0  0  0
    1.1712   -1.9979    0.0000 C   0  0  0  0  0  0  0  0  0  0  0  0
    2.3217   -4.0027    0.0000 C   0  0  0  0  0  0  0  0  0  0  0  0
    1.1712   -3.3275    0.0000 C   0  0  0  0  0  0  0  0  0  0  0  0
    2.3217    0.0000    0.0000 O   0  0  0  0  0  0  0  0  0  0  0  0
    0.0000   -4.0027    0.0000 O   0  0  0  0  0  0  0  0  0  0  0  0
    0.0000   -1.3296    0.0000 C   0  0  0  0  0  0  0  0  0  0  0  0
    4.5952   -4.0027    0.0000 C   0  0  0  0  0  0  0  0  0  0  0  0
    6.8893   -1.3296    0.0000 C   0  0  0  0  0  0  0  0  0  0  0  0
  1  2  2  0  0  0  0
  1  3  1  0  0  0  0
  1  4  1  0  0  0  0
  3  5  2  0  0  0  0
  3  6  1  0  0  0  0
  4 14  1  0  0  0  0
  5  7  1  0  0  0  0
  5 10  1  0  0  0  0
  6  8  2  0  0  0  0
  6 13  1  0  0  0  0
  7  9  2  0  0  0  0
  7 12  1  0  0  0  0
  8  9  1  0  0  0  0
  9 11  1  0  0  0  0
M  END
> <ID>
8609

> <Formula>
C10H12O4

> <FW>
196.1999

> <DSSTox_CID>
21653

> <DSSTox_RID>
79803

> <DSSTox_GSID>
41653

> <DSSTox_FileID_Sort>
4485

> <TS_ChemName>
Methyl 2,4-dihydroxy-3,6-dimethylbenzoate

> <TS_ChemName_Synonyms>


> <TS_CASRN>
4707-47-5

> <CASRN_ChemName_Relationship>
primary

> <TS_Description>
single chemical compound

> <ChemNote>


> <STRUCTURE_Shown>
tested chemical

> <STRUCTURE_Formula>
C10H12O4

> <STRUCTURE_MW>
196.1999

> <STRUCTURE_ChemType>
defined organic

> <STRUCTURE_DefinedOrganicForm>
parent

> <STRUCTURE_IUPAC>
methyl 2,4-dihydroxy-3,6-dimethylbenzoate

> <STRUCTURE_SMILES>
Oc1cc(C)c(C(=O)OC)c(O)c1C

> <STRUCTURE_SMILES_Desalt>
Oc1cc(C)c(C(=O)OC)c(O)c1C

> <Substance_modify_yyyymmdd>
20080825

$$$$
