4712-55-4
ChemmineR-0915142007XD

 17 18  0  0  0  0  0  0  0  0  1 V2000
    4.6768   -2.0257    0.0000 P   0  0  0  0  0  0  0  0  0  0  0  0
    5.8250   -2.6978    0.0000 O   0  0  0  0  0  0  0  0  0  0  0  0
    3.5099   -2.6978    0.0000 O   0  0  0  0  0  0  0  0  0  0  0  0
    4.6768   -0.6814    0.0000 O   0  0  0  0  0  0  0  0  0  0  0  0
    8.1680    0.0000    0.0000 C   0  0  0  0  0  0  0  0  0  0  0  0
    9.3349   -0.6814    0.0000 C   0  0  0  0  0  0  0  0  0  0  0  0
    9.3349   -2.0257    0.0000 C   0  0  0  0  0  0  0  0  0  0  0  0
    8.1680   -2.6978    0.0000 C   0  0  0  0  0  0  0  0  0  0  0  0
    7.0012   -2.0257    0.0000 C   0  0  0  0  0  0  0  0  0  0  0  0
    7.0012   -0.6814    0.0000 C   0  0  0  0  0  0  0  0  0  0  0  0
    0.0000   -2.0163    0.0000 C   0  0  0  0  0  0  0  0  0  0  0  0
    0.0000   -0.6628    0.0000 C   0  0  0  0  0  0  0  0  0  0  0  0
    1.1669    0.0000    0.0000 C   0  0  0  0  0  0  0  0  0  0  0  0
    2.3337   -0.6628    0.0000 C   0  0  0  0  0  0  0  0  0  0  0  0
    2.3337   -2.0163    0.0000 C   0  0  0  0  0  0  0  0  0  0  0  0
    1.1669   -2.6978    0.0000 C   0  0  0  0  0  0  0  0  0  0  0  0
    4.6954   -3.0525    0.0000 H   0  0  0  0  0  0  0  0  0  0  0  0
  1  2  1  0  0  0  0
  1  3  1  0  0  0  0
  1  4  2  0  0  0  0
  1 17  1  0  0  0  0
  2  9  1  0  0  0  0
  3 15  1  0  0  0  0
  5 10  2  0  0  0  0
  5  6  1  0  0  0  0
  6  7  2  0  0  0  0
  7  8  1  0  0  0  0
  8  9  2  0  0  0  0
  9 10  1  0  0  0  0
 11 16  2  0  0  0  0
 11 12  1  0  0  0  0
 12 13  2  0  0  0  0
 13 14  1  0  0  0  0
 14 15  2  0  0  0  0
 15 16  1  0  0  0  0
M  END
> <ID>
8835

> <Formula>
C12H11O3P

> <FW>
234.1877

> <DSSTox_CID>
21889

> <DSSTox_RID>
79868

> <DSSTox_GSID>
41889

> <DSSTox_FileID_Sort>
4550

> <TS_ChemName>
Diphenyl phosphite

> <TS_ChemName_Synonyms>


> <TS_CASRN>
4712-55-4

> <CASRN_ChemName_Relationship>
primary

> <TS_Description>
single chemical compound

> <ChemNote>


> <STRUCTURE_Shown>
tested chemical

> <STRUCTURE_Formula>
C12H11O3P

> <STRUCTURE_MW>
234.1877

> <STRUCTURE_ChemType>
defined organic

> <STRUCTURE_DefinedOrganicForm>
parent

> <STRUCTURE_IUPAC>
diphenyl phosphonate

> <STRUCTURE_SMILES>
O=P(Oc1ccccc1)Oc2ccccc2

> <STRUCTURE_SMILES_Desalt>
O=P(Oc1ccccc1)Oc2ccccc2

> <Substance_modify_yyyymmdd>
20080825

$$$$
