472-86-6
ChemmineR-0915142007XD

 21 21  0  0  0  0  0  0  0  0  1 V2000
   10.3575    0.0000    0.0000 C   0  0  0  0  0  0  0  0  0  0  0  0
   10.3575   -1.3295    0.0000 C   0  0  0  0  0  0  0  0  0  0  0  0
   11.5098   -2.0006    0.0000 C   0  0  0  0  0  0  0  0  0  0  0  0
   11.5098   -3.3301    0.0000 C   0  0  0  0  0  0  0  0  0  0  0  0
   12.6620   -3.9885    0.0000 O   0  0  0  0  0  0  0  0  0  0  0  0
    9.2053   -2.0006    0.0000 C   0  0  0  0  0  0  0  0  0  0  0  0
    8.0530   -1.3295    0.0000 C   0  0  0  0  0  0  0  0  0  0  0  0
    6.9008   -2.0006    0.0000 C   0  0  0  0  0  0  0  0  0  0  0  0
    5.7612   -1.3295    0.0000 C   0  0  0  0  0  0  0  0  0  0  0  0
    5.7612    0.0000    0.0000 C   0  0  0  0  0  0  0  0  0  0  0  0
    4.6090   -2.0006    0.0000 C   0  0  0  0  0  0  0  0  0  0  0  0
    3.4567   -1.3295    0.0000 C   0  0  0  0  0  0  0  0  0  0  0  0
    2.3045   -2.0006    0.0000 C   0  0  0  0  0  0  0  0  0  0  0  0
    2.3045   -3.3301    0.0000 C   0  0  0  0  0  0  0  0  0  0  0  0
    3.4567   -3.9885    0.0000 C   0  0  0  0  0  0  0  0  0  0  0  0
    1.1522   -3.9885    0.0000 C   0  0  0  0  0  0  0  0  0  0  0  0
    0.0000   -3.3301    0.0000 C   0  0  0  0  0  0  0  0  0  0  0  0
    0.0000   -2.0006    0.0000 C   0  0  0  0  0  0  0  0  0  0  0  0
    1.1522   -1.3295    0.0000 C   0  0  0  0  0  0  0  0  0  0  0  0
    0.2912   -0.3166    0.0000 C   0  0  0  0  0  0  0  0  0  0  0  0
    2.0006   -0.3166    0.0000 C   0  0  0  0  0  0  0  0  0  0  0  0
  1  2  1  0  0  0  0
  2  3  2  0  0  0  0
  2  6  1  0  0  0  0
  3  4  1  0  0  0  0
  4  5  2  0  0  0  0
  6  7  2  0  0  0  0
  7  8  1  0  0  0  0
  8  9  2  0  0  0  0
  9 10  1  0  0  0  0
  9 11  1  0  0  0  0
 11 12  2  0  0  0  0
 12 13  1  0  0  0  0
 13 14  2  0  0  0  0
 13 19  1  0  0  0  0
 14 15  1  0  0  0  0
 14 16  1  0  0  0  0
 16 17  1  0  0  0  0
 17 18  1  0  0  0  0
 18 19  1  0  0  0  0
 19 20  1  0  0  0  0
 19 21  1  0  0  0  0
M  END
> <ID>
4494

> <Formula>
C20H28O

> <FW>
284.4357

> <DSSTox_CID>
5997

> <DSSTox_RID>
77982

> <DSSTox_GSID>
25997

> <DSSTox_FileID_Sort>
2665

> <TS_ChemName>
13-cis-Retinal

> <TS_ChemName_Synonyms>
Vitamin A aldehyde

> <TS_CASRN>
472-86-6

> <CASRN_ChemName_Relationship>
primary

> <TS_Description>
single chemical compound

> <ChemNote>
stereochem

> <STRUCTURE_Shown>
tested chemical

> <STRUCTURE_Formula>
C20H28O

> <STRUCTURE_MW>
284.4357

> <STRUCTURE_ChemType>
defined organic

> <STRUCTURE_DefinedOrganicForm>
parent

> <STRUCTURE_IUPAC>
(13cis)-retinal

> <STRUCTURE_SMILES>
CC=1CCCC(C)(C)C=1/C=CC(\C)=C\C=CC(/C)=C\C=O

> <STRUCTURE_SMILES_Desalt>
CC=1CCCC(C)(C)C=1/C=CC(\C)=C\C=CC(/C)=C\C=O

> <Substance_modify_yyyymmdd>
20080429

$$$$
