4724-48-5
ChemmineR-0915142007XD

 12 11  0  0  0  0  0  0  0  0  1 V2000
    9.2360   -1.1636    0.0000 P   0  0  0  0  0  0  0  0  0  0  0  0
   10.3892   -0.4883    0.0000 O   0  0  0  0  0  0  0  0  0  0  0  0
    8.5711    0.0000    0.0000 O   0  0  0  0  0  0  0  0  0  0  0  0
    9.9113   -2.3168    0.0000 O   0  0  0  0  0  0  0  0  0  0  0  0
    8.0932   -1.8181    0.0000 C   0  0  0  0  0  0  0  0  0  0  0  0
    6.9400   -1.1636    0.0000 C   0  0  0  0  0  0  0  0  0  0  0  0
    5.7764   -1.8181    0.0000 C   0  0  0  0  0  0  0  0  0  0  0  0
    4.6232   -1.1636    0.0000 C   0  0  0  0  0  0  0  0  0  0  0  0
    3.4700   -1.8181    0.0000 C   0  0  0  0  0  0  0  0  0  0  0  0
    2.3168   -1.1636    0.0000 C   0  0  0  0  0  0  0  0  0  0  0  0
    1.1532   -1.8181    0.0000 C   0  0  0  0  0  0  0  0  0  0  0  0
    0.0000   -1.1636    0.0000 C   0  0  0  0  0  0  0  0  0  0  0  0
  1  2  2  0  0  0  0
  1  3  1  0  0  0  0
  1  4  1  0  0  0  0
  1  5  1  0  0  0  0
  5  6  1  0  0  0  0
  6  7  1  0  0  0  0
  7  8  1  0  0  0  0
  8  9  1  0  0  0  0
  9 10  1  0  0  0  0
 10 11  1  0  0  0  0
 11 12  1  0  0  0  0
M  END
> <ID>
10331

> <Formula>
C8H19O3P

> <FW>
194.2084

> <DSSTox_CID>
24679

> <DSSTox_RID>
80391

> <DSSTox_GSID>
44679

> <DSSTox_FileID_Sort>
5073

> <TS_ChemName>
Octylphosphonic acid

> <TS_ChemName_Synonyms>


> <TS_CASRN>
4724-48-5

> <CASRN_ChemName_Relationship>
primary

> <TS_Description>
single chemical compound

> <ChemNote>


> <STRUCTURE_Shown>
tested chemical

> <STRUCTURE_Formula>
C8H19O3P

> <STRUCTURE_MW>
194.2084

> <STRUCTURE_ChemType>
defined organic

> <STRUCTURE_DefinedOrganicForm>
parent

> <STRUCTURE_IUPAC>
octylphosphonic acid

> <STRUCTURE_SMILES>
O=P(O)(O)CCCCCCCC

> <STRUCTURE_SMILES_Desalt>
O=P(O)(O)CCCCCCCC

> <Substance_modify_yyyymmdd>
20091116

$$$$
