4726-14-1
ChemmineR-0915142007XD

 23 23  0  0  0  0  0  0  0  0  2 V2000
    4.6573   -4.6108    0.0000 C   0  0  0  0  0  0  0  0  0  0  0  0
    4.6573   -2.3054    0.0000 C   0  0  0  0  0  0  0  0  0  0  0  0
    3.9880   -3.4581    0.0000 C   0  0  0  0  0  0  0  0  0  0  0  0
    3.9880   -5.7635    0.0000 N   0  3  0  0  0  0  0  0  0  0  0  0
    3.9880   -1.1527    0.0000 N   0  3  0  0  0  0  0  0  0  0  0  0
    7.9667   -3.4581    0.0000 S   0  0  0  0  0  0  0  0  0  0  0  0
    5.9866   -2.3054    0.0000 C   0  0  0  0  0  0  0  0  0  0  0  0
    5.9866   -4.6108    0.0000 C   0  0  0  0  0  0  0  0  0  0  0  0
    6.6373   -3.4581    0.0000 C   0  0  0  0  0  0  0  0  0  0  0  0
    2.6587   -3.4581    0.0000 N   0  0  0  0  0  0  0  0  0  0  0  0
    2.6587   -5.7635    0.0000 O   0  5  0  0  0  0  0  0  0  0  0  0
    2.6587   -1.1527    0.0000 O   0  5  0  0  0  0  0  0  0  0  0  0
    4.6573   -6.9162    0.0000 O   0  0  0  0  0  0  0  0  0  0  0  0
    4.6573    0.0000    0.0000 O   0  0  0  0  0  0  0  0  0  0  0  0
    7.9667   -4.7874    0.0000 O   0  0  0  0  0  0  0  0  0  0  0  0
    7.9667   -2.1288    0.0000 O   0  0  0  0  0  0  0  0  0  0  0  0
    9.2960   -3.4581    0.0000 C   0  0  0  0  0  0  0  0  0  0  0  0
    1.9986   -2.3054    0.0000 C   0  0  0  0  0  0  0  0  0  0  0  0
    1.9986   -4.6108    0.0000 C   0  0  0  0  0  0  0  0  0  0  0  0
    0.6693   -2.3054    0.0000 C   0  0  0  0  0  0  0  0  0  0  0  0
    0.6693   -4.6108    0.0000 C   0  0  0  0  0  0  0  0  0  0  0  0
    0.0000   -1.1527    0.0000 C   0  0  0  0  0  0  0  0  0  0  0  0
    0.0000   -5.7635    0.0000 C   0  0  0  0  0  0  0  0  0  0  0  0
  1  3  2  0  0  0  0
  1  4  1  0  0  0  0
  1  8  1  0  0  0  0
  2  3  1  0  0  0  0
  2  5  1  0  0  0  0
  2  7  2  0  0  0  0
  3 10  1  0  0  0  0
  4 11  1  0  0  0  0
  4 13  2  0  0  0  0
  5 12  1  0  0  0  0
  5 14  2  0  0  0  0
  6  9  1  0  0  0  0
  6 15  2  0  0  0  0
  6 16  2  0  0  0  0
  6 17  1  0  0  0  0
  7  9  1  0  0  0  0
  8  9  2  0  0  0  0
 10 18  1  0  0  0  0
 10 19  1  0  0  0  0
 18 20  1  0  0  0  0
 19 21  1  0  0  0  0
 20 22  1  0  0  0  0
 21 23  1  0  0  0  0
M  END
> <ID>
9133

> <Formula>
C13H19N3O6S

> <FW>
345.3715

> <DSSTox_CID>
22203

> <DSSTox_RID>
79956

> <DSSTox_GSID>
42203

> <DSSTox_FileID_Sort>
4638

> <TS_ChemName>
Nitralin

> <TS_ChemName_Synonyms>


> <TS_CASRN>
4726-14-1

> <CASRN_ChemName_Relationship>
primary

> <TS_Description>
single chemical compound

> <ChemNote>


> <STRUCTURE_Shown>
tested chemical

> <STRUCTURE_Formula>
C13H19N3O6S

> <STRUCTURE_MW>
345.3715

> <STRUCTURE_ChemType>
defined organic

> <STRUCTURE_DefinedOrganicForm>
parent

> <STRUCTURE_IUPAC>
4-(methylsulfonyl)-2,6-dinitro-N,N-dipropylaniline

> <STRUCTURE_SMILES>
O=S(C)(=O)c1cc(c(c(c1)[N+]([O-])=O)N(CCC)CCC)[N+]([O-])=O

> <STRUCTURE_SMILES_Desalt>
O=S(C)(=O)c1cc(c(c(c1)[N+]([O-])=O)N(CCC)CCC)[N+]([O-])=O

> <Substance_modify_yyyymmdd>
20080825

$$$$
