473-55-2
ChemmineR-0915142007XD

 10 11  0  0  0  0  0  0  0  0  1 V2000
    0.0000    0.0000    0.0000 C   0  0  0  0  0  0  0  0  0  0  0  0
    1.0067   -1.0021    0.0000 C   0  0  0  0  0  0  0  0  0  0  0  0
    0.6987   -2.1375    0.0000 C   0  0  0  0  0  0  0  0  0  0  0  0
    1.5261   -2.9650    0.0000 C   0  0  0  0  0  0  0  0  0  0  0  0
    2.6570   -2.6524    0.0000 C   0  0  0  0  0  0  0  0  0  0  0  0
    1.4250   -1.9399    0.0000 C   0  0  0  0  0  0  0  0  0  0  0  0
    2.1375   -0.7125    0.0000 C   0  0  0  0  0  0  0  0  0  0  0  0
    3.3649   -1.4204    0.0000 C   0  0  0  0  0  0  0  0  0  0  0  0
    4.0774   -0.1931    0.0000 C   0  0  0  0  0  0  0  0  0  0  0  0
    4.5968   -2.1329    0.0000 C   0  0  0  0  0  0  0  0  0  0  0  0
  1  2  1  0  0  0  0
  2  3  1  0  0  0  0
  2  7  1  0  0  0  0
  3  4  1  0  0  0  0
  4  5  1  0  0  0  0
  5  6  1  0  0  0  0
  5  8  1  0  0  0  0
  6  7  1  0  0  0  0
  7  8  1  0  0  0  0
  8  9  1  0  0  0  0
  8 10  1  0  0  0  0
M  END
> <ID>
4471

> <Formula>
C10H18

> <FW>
138.2499

> <DSSTox_CID>
5922

> <DSSTox_RID>
77966

> <DSSTox_GSID>
25922

> <DSSTox_FileID_Sort>
2649

> <TS_ChemName>
Pinane

> <TS_ChemName_Synonyms>
Pinane (Bicyclo[3.1.1]heptane, 2,6,6-trimethyl-)

> <TS_CASRN>
473-55-2

> <CASRN_ChemName_Relationship>
primary

> <TS_Description>
single chemical compound

> <ChemNote>
mixture of isomers; structure shown without stereochem

> <STRUCTURE_Shown>
tested chemical

> <STRUCTURE_Formula>
C10H18

> <STRUCTURE_MW>
138.2499

> <STRUCTURE_ChemType>
defined organic

> <STRUCTURE_DefinedOrganicForm>
parent

> <STRUCTURE_IUPAC>
2,6,6-trimethylbicyclo[3.1.1]heptane

> <STRUCTURE_SMILES>
CC2(C)C1CC2C(C)CC1

> <STRUCTURE_SMILES_Desalt>
CC2(C)C1CC2C(C)CC1

> <Substance_modify_yyyymmdd>
20080429

$$$$
