473-32-5
ChemmineR-0915142007XD

 55 58  0  0  0  0  0  0  0  0  1 V2000
   23.4126   -3.0974    0.0000 O   0  0  0  0  0  0  0  0  0  0  0  0
   22.7749   -4.2817    0.0000 S   0  0  0  0  0  0  0  0  0  0  0  0
   22.1372   -5.4204    0.0000 O   0  0  0  0  0  0  0  0  0  0  0  0
   21.6361   -3.5984    0.0000 C   0  0  0  0  0  0  0  0  0  0  0  0
   20.4974   -4.2817    0.0000 C   0  0  0  0  0  0  0  0  0  0  0  0
   19.3586   -3.5984    0.0000 C   0  0  0  0  0  0  0  0  0  0  0  0
   19.3586   -2.2775    0.0000 C   0  0  0  0  0  0  0  0  0  0  0  0
   18.1743   -1.5942    0.0000 N   0  0  0  0  0  0  0  0  0  0  0  0
   17.0356   -2.2775    0.0000 C   0  0  0  0  0  0  0  0  0  0  0  0
   17.0356   -3.5984    0.0000 O   0  0  0  0  0  0  0  0  0  0  0  0
   15.8969   -1.5942    0.0000 C   0  0  0  0  0  0  0  0  0  0  0  0
   14.7581   -2.2775    0.0000 C   0  0  0  0  0  0  0  0  0  0  0  0
   13.6194   -1.5942    0.0000 C   0  0  0  0  0  0  0  0  0  0  0  0
   12.4351   -2.2775    0.0000 C   0  0  0  0  0  0  0  0  0  0  0  0
   11.2963   -1.5942    0.0000 C   0  0  0  0  0  0  0  0  0  0  0  0
   10.1576   -2.2775    0.0000 C   0  0  0  0  0  0  0  0  0  0  0  0
    9.0188   -1.5942    0.0000 C   0  0  0  0  0  0  0  0  0  0  0  0
    7.8346   -2.2775    0.0000 C   0  0  0  0  0  0  0  0  0  0  0  0
    6.6958   -1.5942    0.0000 C   0  0  0  0  0  0  0  0  0  0  0  0
    5.5571   -2.2775    0.0000 C   0  0  0  0  0  0  0  0  0  0  0  0
    4.4183   -1.5942    0.0000 C   0  0  0  0  0  0  0  0  0  0  0  0
    3.2796   -2.2775    0.0000 C   0  0  0  0  0  0  0  0  0  0  0  0
    2.0953   -1.5942    0.0000 C   0  0  0  0  0  0  0  0  0  0  0  0
    1.9586   -0.2733    0.0000 C   0  0  0  0  0  0  0  0  0  0  0  0
    0.6832    0.0000    0.0000 C   0  0  0  0  0  0  0  0  0  0  0  0
    0.0000   -1.1843    0.0000 C   0  0  0  0  0  0  0  0  0  0  0  0
    0.9110   -2.1408    0.0000 C   0  0  0  0  0  0  0  0  0  0  0  0
   20.4974   -1.6398    0.0000 C   0  0  0  0  0  0  0  0  0  0  0  0
   21.6361   -2.2775    0.0000 C   0  0  0  0  0  0  0  0  0  0  0  0
   23.9136   -4.9194    0.0000 C   0  0  0  0  0  0  0  0  0  0  0  0
   25.0524   -4.2817    0.0000 C   0  0  0  0  0  0  0  0  0  0  0  0
   26.1911   -4.9194    0.0000 C   0  0  0  0  0  0  0  0  0  0  0  0
   26.2367   -6.2403    0.0000 C   0  0  0  0  0  0  0  0  0  0  0  0
   27.3754   -6.9236    0.0000 N   0  0  0  0  0  0  0  0  0  0  0  0
   28.5141   -6.2403    0.0000 C   0  0  0  0  0  0  0  0  0  0  0  0
   28.5141   -4.9194    0.0000 O   0  0  0  0  0  0  0  0  0  0  0  0
   29.6529   -6.9236    0.0000 C   0  0  0  0  0  0  0  0  0  0  0  0
   30.7916   -6.2403    0.0000 C   0  0  0  0  0  0  0  0  0  0  0  0
   31.9304   -6.9236    0.0000 C   0  0  0  0  0  0  0  0  0  0  0  0
   33.1147   -6.2403    0.0000 C   0  0  0  0  0  0  0  0  0  0  0  0
   34.2534   -6.9236    0.0000 C   0  0  0  0  0  0  0  0  0  0  0  0
   35.3922   -6.2403    0.0000 C   0  0  0  0  0  0  0  0  0  0  0  0
   36.5309   -6.9236    0.0000 C   0  0  0  0  0  0  0  0  0  0  0  0
   37.7152   -6.2403    0.0000 C   0  0  0  0  0  0  0  0  0  0  0  0
   38.8539   -6.9236    0.0000 C   0  0  0  0  0  0  0  0  0  0  0  0
   39.9927   -6.2403    0.0000 C   0  0  0  0  0  0  0  0  0  0  0  0
   41.1314   -6.9236    0.0000 C   0  0  0  0  0  0  0  0  0  0  0  0
   42.2702   -6.2403    0.0000 C   0  0  0  0  0  0  0  0  0  0  0  0
   43.4545   -6.9236    0.0000 C   0  0  0  0  0  0  0  0  0  0  0  0
   44.6388   -6.3770    0.0000 C   0  0  0  0  0  0  0  0  0  0  0  0
   45.5497   -7.3791    0.0000 C   0  0  0  0  0  0  0  0  0  0  0  0
   44.8665   -8.5178    0.0000 C   0  0  0  0  0  0  0  0  0  0  0  0
   43.5911   -8.2445    0.0000 C   0  0  0  0  0  0  0  0  0  0  0  0
   25.0979   -6.9236    0.0000 C   0  0  0  0  0  0  0  0  0  0  0  0
   23.9136   -6.2403    0.0000 C   0  0  0  0  0  0  0  0  0  0  0  0
  1  2  2  0  0  0  0
  2  3  2  0  0  0  0
  2  4  1  0  0  0  0
  2 30  1  0  0  0  0
  4  5  2  0  0  0  0
  4 29  1  0  0  0  0
  5  6  1  0  0  0  0
  6  7  2  0  0  0  0
  7  8  1  0  0  0  0
  7 28  1  0  0  0  0
  8  9  1  0  0  0  0
  9 10  2  0  0  0  0
  9 11  1  0  0  0  0
 11 12  1  0  0  0  0
 12 13  1  0  0  0  0
 13 14  1  0  0  0  0
 14 15  1  0  0  0  0
 15 16  1  0  0  0  0
 16 17  1  0  0  0  0
 17 18  1  0  0  0  0
 18 19  1  0  0  0  0
 19 20  1  0  0  0  0
 20 21  1  0  0  0  0
 21 22  1  0  0  0  0
 22 23  1  0  0  0  0
 23 24  1  0  0  0  0
 23 27  1  0  0  0  0
 24 25  1  0  0  0  0
 25 26  1  0  0  0  0
 26 27  1  0  0  0  0
 28 29  2  0  0  0  0
 30 31  2  0  0  0  0
 30 55  1  0  0  0  0
 31 32  1  0  0  0  0
 32 33  2  0  0  0  0
 33 34  1  0  0  0  0
 33 54  1  0  0  0  0
 34 35  1  0  0  0  0
 35 36  2  0  0  0  0
 35 37  1  0  0  0  0
 37 38  1  0  0  0  0
 38 39  1  0  0  0  0
 39 40  1  0  0  0  0
 40 41  1  0  0  0  0
 41 42  1  0  0  0  0
 42 43  1  0  0  0  0
 43 44  1  0  0  0  0
 44 45  1  0  0  0  0
 45 46  1  0  0  0  0
 46 47  1  0  0  0  0
 47 48  1  0  0  0  0
 48 49  1  0  0  0  0
 49 50  1  0  0  0  0
 49 53  1  0  0  0  0
 50 51  1  0  0  0  0
 51 52  1  0  0  0  0
 52 53  1  0  0  0  0
 54 55  2  0  0  0  0
M  END
> <ID>
11323

> <Formula>
C48H76N2O4S

> <FW>
777.193

> <DSSTox_CID>
25959

> <DSSTox_RID>
81255

> <DSSTox_GSID>
45959

> <DSSTox_FileID_Sort>
5936

> <TS_ChemName>
Chaulmosulfone

> <TS_ChemName_Synonyms>


> <TS_CASRN>
473-32-5

> <CASRN_ChemName_Relationship>
primary

> <TS_Description>
single chemical compound

> <ChemNote>


> <STRUCTURE_Shown>
tested chemical

> <STRUCTURE_Formula>
C48H76N2O4S

> <STRUCTURE_MW>
777.193

> <STRUCTURE_ChemType>
defined organic

> <STRUCTURE_DefinedOrganicForm>
parent

> <STRUCTURE_IUPAC>
N,N'-(sulfonyldibenzene-4,1-diyl)bis(13-cyclopentyltridecanamide)

> <STRUCTURE_SMILES>
O=C(CCCCCCCCCCCCC1CCCC1)Nc2ccc(cc2)S(=O)(=O)c3ccc(cc3)NC(=O)CCCCCCCCCCCCC4CCCC4

> <STRUCTURE_SMILES_Desalt>
O=C(CCCCCCCCCCCCC1CCCC1)Nc2ccc(cc2)S(=O)(=O)c3ccc(cc3)NC(=O)CCCCCCCCCCCCC4CCCC4

> <Substance_modify_yyyymmdd>
20110930

$$$$
