473289-62-2
ChemmineR-0915142007XD

 30 32  0  0  1  0  0  0  0  0  1 V2000
    2.2486   -7.7318    0.0000 C   0  0  0  0  0  0  0  0  0  0  0  0
    2.5366   -6.4247    0.0000 N   0  0  0  0  0  0  0  0  0  0  0  0
    3.0573   -8.7730    0.0000 C   0  0  0  0  0  0  0  0  0  0  0  0
    3.7330   -5.8487    0.0000 C   0  0  0  0  0  0  0  0  0  0  0  0
    4.3976   -8.7730    0.0000 C   0  0  0  0  0  0  0  0  0  0  0  0
    5.2283   -7.7318    0.0000 C   0  0  0  0  0  0  0  0  0  0  0  0
    4.9403   -6.4247    0.0000 C   0  0  0  0  0  0  0  0  0  0  0  0
    0.9637   -8.1084    0.0000 C   0  0  0  0  0  0  0  0  0  0  0  0
    0.0000   -7.2111    0.0000 C   0  0  0  0  0  0  0  0  0  0  0  0
    1.5729   -5.5163    0.0000 C   0  0  0  0  0  0  0  0  0  0  0  0
    0.2880   -5.9151    0.0000 C   0  0  0  0  0  0  0  0  0  0  0  0
    2.4037   -9.9250    0.0000 C   0  0  0  0  0  0  0  0  0  0  0  0
    3.0573  -11.0770    0.0000 C   0  0  0  0  0  0  0  0  0  0  0  0
    5.0622   -9.9250    0.0000 C   0  0  0  0  0  0  0  0  0  0  0  0
    4.3976  -11.0770    0.0000 C   0  0  0  0  0  0  0  0  0  0  0  0
    1.8609   -4.2314    0.0000 C   0  0  0  0  0  0  0  0  0  0  0  0
    3.1237   -3.8326    0.0000 O   0  0  0  0  0  0  0  0  0  0  0  0
    0.8862   -3.3231    0.0000 O   0  0  0  0  0  0  0  0  0  0  0  0
    3.7330   -4.5194    0.0000 O   0  0  0  0  0  0  0  0  0  0  0  0
    5.9816   -5.5939    0.0000 N   0  0  0  0  0  0  0  0  0  0  0  0
    5.7822   -4.2757    0.0000 C   0  0  0  0  0  0  0  0  0  0  0  0
    6.8124   -3.4671    0.0000 C   0  0  0  0  0  0  0  0  0  0  0  0
    4.5416   -3.7994    0.0000 O   0  0  0  0  0  0  0  0  0  0  0  0
    8.0641   -3.9434    0.0000 C   0  0  0  0  0  0  0  0  0  0  0  0
    6.6241   -2.1489    0.0000 S   0  0  0  0  0  0  0  0  0  0  0  0
    8.2524   -5.2616    0.0000 C   0  0  0  0  0  0  0  0  0  0  0  0
    9.1053   -3.1126    0.0000 C   0  0  0  0  0  0  0  0  0  0  0  0
    7.6653   -1.3182    0.0000 C   0  0  0  0  0  0  0  0  0  0  0  0
    7.4659    0.0000    0.0000 O   0  0  0  0  0  0  0  0  0  0  0  0
    8.8948   -1.7945    0.0000 C   0  0  0  0  0  0  0  0  0  0  0  0
  1  3  1  0  0  0  0
  1  8  1  1  0  0  0
  1  2  1  0  0  0  0
  2  4  1  0  0  0  0
  2 10  1  0  0  0  0
  3 12  1  0  0  0  0
  3  5  2  0  0  0  0
  4  7  1  0  0  0  0
  4 19  2  0  0  0  0
  5  6  1  0  0  0  0
  5 14  1  0  0  0  0
  6  7  1  0  0  0  0
  7 20  1  1  0  0  0
  8  9  1  0  0  0  0
  9 11  1  0  0  0  0
 10 11  1  0  0  0  0
 10 16  1  1  0  0  0
 12 13  2  0  0  0  0
 13 15  1  0  0  0  0
 14 15  2  0  0  0  0
 16 17  1  0  0  0  0
 16 18  2  0  0  0  0
 20 21  1  0  0  0  0
 21 22  1  0  0  0  0
 21 23  2  0  0  0  0
 22 24  1  0  0  0  0
 22 25  1  1  0  0  0
 24 26  1  0  0  0  0
 24 27  1  0  0  0  0
 25 28  1  0  0  0  0
 28 29  2  0  0  0  0
 28 30  1  0  0  0  0
M  END
> <ID>
12498

> <Formula>
C22H28N2O5S

> <FW>
432.5331

> <DSSTox_CID>
27356

> <DSSTox_RID>
82292

> <DSSTox_GSID>
47356

> <DSSTox_FileID_Sort>
6973

> <TS_ChemName>
Ilepatril

> <TS_ChemName_Synonyms>
A000362928; AVE7688

> <TS_CASRN>
473289-62-2

> <CASRN_ChemName_Relationship>
primary

> <TS_Description>
single chemical compound

> <ChemNote>
stereochem

> <STRUCTURE_Shown>
tested chemical

> <STRUCTURE_Formula>
C22H28N2O5S

> <STRUCTURE_MW>
432.5331

> <STRUCTURE_ChemType>
defined organic

> <STRUCTURE_DefinedOrganicForm>
parent

> <STRUCTURE_IUPAC>
(4S,7S,12bR)-7-{[(2S)-2-(acetylsulfanyl)-3-methylbutanoyl]amino}-6-oxo-1,2,3,4,6,7,8,12b-octahydropyrido[2,1-a][2]benzazepine-4-carboxylic acid

> <STRUCTURE_SMILES>
CC(C)[C@H](SC(C)=O)C(=O)N[C@H]3Cc1ccccc1[C@H]2CCC[C@@H](C(=O)O)N2C3=O

> <STRUCTURE_SMILES_Desalt>
CC(C)[C@H](SC(C)=O)C(=O)N[C@H]3Cc1ccccc1[C@H]2CCC[C@@H](C(=O)O)N2C3=O

> <Substance_modify_yyyymmdd>
20130910

$$$$
