474-86-2
ChemmineR-0915142007XD

 22 25  0  0  1  0  0  0  0  0  1 V2000
    5.7479   -3.6650    0.0000 C   0  0  0  0  0  0  0  0  0  0  0  0
    6.9010   -1.6627    0.0000 C   0  0  0  0  0  0  0  0  0  0  0  0
    6.9010   -2.9946    0.0000 C   0  0  0  0  0  0  0  0  0  0  0  0
    4.6126   -2.9946    0.0000 C   0  0  0  0  0  0  0  0  0  0  0  0
    3.4594   -3.6650    0.0000 C   0  0  0  0  0  0  0  0  0  0  0  0
    5.7479   -5.0148    0.0000 C   0  0  0  0  0  0  0  0  0  0  0  0
    3.4594   -5.0148    0.0000 C   0  0  0  0  0  0  0  0  0  0  0  0
    8.1525   -1.2694    0.0000 C   0  0  0  0  0  0  0  0  0  0  0  0
    5.7479   -1.0101    0.0000 C   0  0  0  0  0  0  0  0  0  0  0  0
    4.6126   -1.6627    0.0000 C   0  0  0  0  0  0  0  0  0  0  0  0
    8.1525   -3.4326    0.0000 C   0  0  0  0  0  0  0  0  0  0  0  0
    2.3242   -2.9946    0.0000 C   0  0  0  0  0  0  0  0  0  0  0  0
    4.6126   -5.6674    0.0000 C   0  0  0  0  0  0  0  0  0  0  0  0
    2.3242   -5.6674    0.0000 C   0  0  0  0  0  0  0  0  0  0  0  0
    8.9391   -2.3420    0.0000 C   0  0  0  0  0  0  0  0  0  0  0  0
    8.5726    0.0000    0.0000 O   0  0  0  0  0  0  0  0  0  0  0  0
    1.1710   -5.0148    0.0000 C   0  0  0  0  0  0  0  0  0  0  0  0
    1.1710   -3.6650    0.0000 C   0  0  0  0  0  0  0  0  0  0  0  0
    6.9010   -0.3397    0.0000 C   0  0  0  0  0  0  0  0  0  0  0  0
    0.0000   -5.7032    0.0000 O   0  0  0  0  0  0  0  0  0  0  0  0
    4.6126   -4.3265    0.0000 H   0  0  0  0  0  0  0  0  0  0  0  0
    6.9010   -4.3265    0.0000 H   0  0  0  0  0  0  0  0  0  0  0  0
  1  3  1  0  0  0  0
  1  4  1  0  0  0  0
  1  6  2  0  0  0  0
  2  3  1  0  0  0  0
  2  8  1  0  0  0  0
  2 19  1  1  0  0  0
  2  9  1  0  0  0  0
  3 11  1  0  0  0  0
  3 22  1  6  0  0  0
  4  5  1  0  0  0  0
  4 10  1  0  0  0  0
  4 21  1  6  0  0  0
  5 12  1  0  0  0  0
  5  7  2  0  0  0  0
  6 13  1  0  0  0  0
  7 13  1  0  0  0  0
  7 14  1  0  0  0  0
  8 16  2  0  0  0  0
  8 15  1  0  0  0  0
  9 10  1  0  0  0  0
 11 15  1  0  0  0  0
 12 18  2  0  0  0  0
 14 17  2  0  0  0  0
 17 20  1  0  0  0  0
 17 18  1  0  0  0  0
M  END
> <ID>
12574

> <Formula>
C18H20O2

> <FW>
268.3502

> <DSSTox_CID>
27433

> <DSSTox_RID>
82343

> <DSSTox_GSID>
47433

> <DSSTox_FileID_Sort>
7024

> <TS_ChemName>
Equilin

> <TS_ChemName_Synonyms>


> <TS_CASRN>
474-86-2

> <CASRN_ChemName_Relationship>
primary

> <TS_Description>
single chemical compound

> <ChemNote>
stereochem

> <STRUCTURE_Shown>
tested chemical

> <STRUCTURE_Formula>
C18H20O2

> <STRUCTURE_MW>
268.3502

> <STRUCTURE_ChemType>
defined organic

> <STRUCTURE_DefinedOrganicForm>
parent

> <STRUCTURE_IUPAC>
3-hydroxyestra-1,3,5(10),7-tetraen-17-one

> <STRUCTURE_SMILES>
Oc3cc4CC=C1[C@H](CC[C@]2(C)C(=O)CC[C@@H]12)c4cc3

> <STRUCTURE_SMILES_Desalt>
Oc3cc4CC=C1[C@H](CC[C@]2(C)C(=O)CC[C@@H]12)c4cc3

> <Substance_modify_yyyymmdd>
20100619

$$$$
