474368-70-2
ChemmineR-0915142007XD

 17 16  0  0  0  0  0  0  0  0  2 V2000
    0.6723   -9.2098    0.0000 C   0  0  0  0  0  0  0  0  0  0  0  0
    0.0000   -8.0494    0.0000 C   0  0  0  0  0  0  0  0  0  0  0  0
    0.6723   -6.9074    0.0000 C   0  0  0  0  0  0  0  0  0  0  0  0
    0.0000   -5.7562    0.0000 C   0  0  0  0  0  0  0  0  0  0  0  0
    1.9893    0.0000    0.0000 C   0  0  0  0  0  0  0  0  0  0  0  0
    0.6723   -4.5957    0.0000 C   0  0  0  0  0  0  0  0  0  0  0  0
    0.6723    0.0000    0.0000 C   0  0  0  0  0  0  0  0  0  0  0  0
    2.6709   -1.1604    0.0000 C   0  0  0  0  0  0  0  0  0  0  0  0
    0.0000   -3.4537    0.0000 C   0  0  0  0  0  0  0  0  0  0  0  0
    0.0000   -1.1604    0.0000 C   0  0  0  0  0  0  0  0  0  0  0  0
    1.9893   -2.3025    0.0000 C   0  0  0  0  0  0  0  0  0  0  0  0
    0.6723   -2.3025    0.0000 N   0  3  0  0  0  0  0  0  0  0  0  0
    3.8773   -6.4929    0.0000 B   0  5  0  0  0  0  0  0  0  0  0  0
    2.5419   -6.4929    0.0000 F   0  0  0  0  0  0  0  0  0  0  0  0
    3.8773   -7.8100    0.0000 F   0  0  0  0  0  0  0  0  0  0  0  0
    3.8773   -5.1575    0.0000 F   0  0  0  0  0  0  0  0  0  0  0  0
    5.1944   -6.4929    0.0000 F   0  0  0  0  0  0  0  0  0  0  0  0
  1  2  1  0  0  0  0
  2  3  1  0  0  0  0
  3  4  1  0  0  0  0
  4  6  1  0  0  0  0
  5  7  2  0  0  0  0
  5  8  1  0  0  0  0
  6  9  1  0  0  0  0
  7 10  1  0  0  0  0
  8 11  2  0  0  0  0
  9 12  1  0  0  0  0
 10 12  2  0  0  0  0
 11 12  1  0  0  0  0
 13 14  1  0  0  0  0
 13 15  1  0  0  0  0
 13 16  1  0  0  0  0
 13 17  1  0  0  0  0
M  END
> <ID>
14168

> <Formula>
C11H18BF4N

> <FW>
251.0719 (164.2668+86.8052)

> <DSSTox_CID>
29161

> <DSSTox_RID>
83380

> <DSSTox_GSID>
49305

> <DSSTox_FileID_Sort>
8055

> <TS_ChemName>
1-Hexylpyridinium tetrafluoroborate

> <TS_ChemName_Synonyms>


> <TS_CASRN>
474368-70-2

> <CASRN_ChemName_Relationship>
primary

> <TS_Description>
single chemical compound

> <ChemNote>


> <STRUCTURE_Shown>
tested chemical

> <STRUCTURE_Formula>
C11H18BF4N

> <STRUCTURE_MW>
251.0719

> <STRUCTURE_ChemType>
defined organic

> <STRUCTURE_DefinedOrganicForm>
complex

> <STRUCTURE_IUPAC>
1-hexylpyridinium tetrafluoroborate

> <STRUCTURE_SMILES>
F[B-](F)(F)F.CCCCCC[n+]1ccccc1

> <STRUCTURE_SMILES_Desalt>
CCCCCC[n+]1ccccc1

> <Substance_modify_yyyymmdd>
20111204

$$$$
