4748-78-1
ChemmineR-0915142007XD

 10 10  0  0  0  0  0  0  0  0  1 V2000
    5.9870   -1.1562    0.0000 C   0  0  0  0  0  0  0  0  0  0  0  0
    6.6449   -2.3058    0.0000 O   0  0  0  0  0  0  0  0  0  0  0  0
    4.6581   -1.1562    0.0000 C   0  0  0  0  0  0  0  0  0  0  0  0
    3.9869   -2.3058    0.0000 C   0  0  0  0  0  0  0  0  0  0  0  0
    3.9869    0.0000    0.0000 C   0  0  0  0  0  0  0  0  0  0  0  0
    2.6579   -2.3058    0.0000 C   0  0  0  0  0  0  0  0  0  0  0  0
    2.6579    0.0000    0.0000 C   0  0  0  0  0  0  0  0  0  0  0  0
    2.0001   -1.1562    0.0000 C   0  0  0  0  0  0  0  0  0  0  0  0
    0.6711   -1.1562    0.0000 C   0  0  0  0  0  0  0  0  0  0  0  0
    0.0000    0.0000    0.0000 C   0  0  0  0  0  0  0  0  0  0  0  0
  1  2  2  0  0  0  0
  1  3  1  0  0  0  0
  3  4  2  0  0  0  0
  3  5  1  0  0  0  0
  4  6  1  0  0  0  0
  5  7  2  0  0  0  0
  6  8  2  0  0  0  0
  7  8  1  0  0  0  0
  8  9  1  0  0  0  0
  9 10  1  0  0  0  0
M  END
> <ID>
12231

> <Formula>
C9H10O

> <FW>
134.1751

> <DSSTox_CID>
27080

> <DSSTox_RID>
82092

> <DSSTox_GSID>
47080

> <DSSTox_FileID_Sort>
6773

> <TS_ChemName>
4-Ethylbenzaldehyde

> <TS_ChemName_Synonyms>


> <TS_CASRN>
4748-78-1

> <CASRN_ChemName_Relationship>
primary

> <TS_Description>
single chemical compound

> <ChemNote>


> <STRUCTURE_Shown>
tested chemical

> <STRUCTURE_Formula>
C9H10O

> <STRUCTURE_MW>
134.1751

> <STRUCTURE_ChemType>
defined organic

> <STRUCTURE_DefinedOrganicForm>
parent

> <STRUCTURE_IUPAC>
4-ethylbenzaldehyde

> <STRUCTURE_SMILES>
CCc1ccc(C=O)cc1

> <STRUCTURE_SMILES_Desalt>
CCc1ccc(C=O)cc1

> <Substance_modify_yyyymmdd>
20100429

$$$$
