475-31-0
ChemmineR-0915142007XD

 37 40  0  0  1  0  0  0  0  0  1 V2000
    6.8845   -2.7627    0.0000 C   0  0  0  0  0  0  0  0  0  0  0  0
    4.5503   -4.0775    0.0000 C   0  0  0  0  0  0  0  0  0  0  0  0
    3.3832   -4.7571    0.0000 C   0  0  0  0  0  0  0  0  0  0  0  0
    6.8845   -4.1071    0.0000 C   0  0  0  0  0  0  0  0  0  0  0  0
    5.7322   -4.7571    0.0000 C   0  0  0  0  0  0  0  0  0  0  0  0
    5.7322   -2.1126    0.0000 C   0  0  0  0  0  0  0  0  0  0  0  0
    3.3832   -6.1163    0.0000 C   0  0  0  0  0  0  0  0  0  0  0  0
    4.5503   -2.7627    0.0000 C   0  0  0  0  0  0  0  0  0  0  0  0
    5.7322   -6.1163    0.0000 C   0  0  0  0  0  0  0  0  0  0  0  0
    8.1846   -2.3342    0.0000 C   0  0  0  0  0  0  0  0  0  0  0  0
    4.5503   -6.8107    0.0000 C   0  0  0  0  0  0  0  0  0  0  0  0
    8.1846   -4.5355    0.0000 C   0  0  0  0  0  0  0  0  0  0  0  0
    2.2013   -4.0775    0.0000 C   0  0  0  0  0  0  0  0  0  0  0  0
    8.9529   -3.4127    0.0000 C   0  0  0  0  0  0  0  0  0  0  0  0
   12.0258   -1.2410    0.0000 C   0  0  0  0  0  0  0  0  0  0  0  0
   13.5032   -4.3878    0.0000 C   0  0  0  0  0  0  0  0  0  0  0  0
    2.2013   -6.8107    0.0000 C   0  0  0  0  0  0  0  0  0  0  0  0
   12.9565   -2.1865    0.0000 N   0  0  0  0  0  0  0  0  0  0  0  0
   12.3804    0.0000    0.0000 O   0  0  0  0  0  0  0  0  0  0  0  0
   14.7737   -4.0923    0.0000 O   0  0  0  0  0  0  0  0  0  0  0  0
    8.6131   -0.9160    0.0000 C   0  0  0  0  0  0  0  0  0  0  0  0
    9.8541   -0.6057    0.0000 C   0  0  0  0  0  0  0  0  0  0  0  0
   12.5872   -3.4570    0.0000 C   0  0  0  0  0  0  0  0  0  0  0  0
    5.7322   -0.9603    0.0000 O   0  0  0  0  0  0  0  0  0  0  0  0
    6.9289   -6.8254    0.0000 O   0  0  0  0  0  0  0  0  0  0  0  0
   10.7552   -1.5512    0.0000 C   0  0  0  0  0  0  0  0  0  0  0  0
    6.8845   -1.5217    0.0000 C   0  0  0  0  0  0  0  0  0  0  0  0
    1.0194   -4.7571    0.0000 C   0  0  0  0  0  0  0  0  0  0  0  0
    1.0194   -6.1163    0.0000 C   0  0  0  0  0  0  0  0  0  0  0  0
    3.3832   -3.5014    0.0000 C   0  0  0  0  0  0  0  0  0  0  0  0
   13.1486   -5.6436    0.0000 O   0  0  0  0  0  0  0  0  0  0  0  0
    0.0000   -6.7959    0.0000 O   0  0  0  0  0  0  0  0  0  0  0  0
    7.6823    0.0000    0.0000 C   0  0  0  0  0  0  0  0  0  0  0  0
    3.3832   -7.4459    0.0000 H   0  0  0  0  0  0  0  0  0  0  0  0
    4.5503   -5.4072    0.0000 H   0  0  0  0  0  0  0  0  0  0  0  0
    6.8845   -5.4515    0.0000 H   0  0  0  0  0  0  0  0  0  0  0  0
    5.7322   -3.4275    0.0000 H   0  0  0  0  0  0  0  0  0  0  0  0
  1  4  1  0  0  0  0
  1  6  1  0  0  0  0
  1 10  1  0  0  0  0
  1 27  1  1  0  0  0
  2  8  1  0  0  0  0
  2  3  1  0  0  0  0
  2  5  1  0  0  0  0
  2 35  1  6  0  0  0
  3  7  1  0  0  0  0
  3 13  1  0  0  0  0
  3 30  1  1  0  0  0
  4  5  1  0  0  0  0
  4 12  1  0  0  0  0
  4 36  1  6  0  0  0
  5  9  1  0  0  0  0
  5 37  1  1  0  0  0
  6  8  1  0  0  0  0
  6 24  1  6  0  0  0
  7 17  1  0  0  0  0
  7 11  1  0  0  0  0
  7 34  1  1  0  0  0
  9 11  1  0  0  0  0
  9 25  1  6  0  0  0
 10 14  1  0  0  0  0
 10 21  1  1  0  0  0
 12 14  1  0  0  0  0
 13 28  1  0  0  0  0
 15 26  1  0  0  0  0
 15 18  1  0  0  0  0
 15 19  2  0  0  0  0
 16 23  1  0  0  0  0
 16 20  2  0  0  0  0
 16 31  1  0  0  0  0
 17 29  1  0  0  0  0
 18 23  1  0  0  0  0
 21 22  1  0  0  0  0
 21 33  1  6  0  0  0
 22 26  1  0  0  0  0
 28 29  1  0  0  0  0
 29 32  1  6  0  0  0
M  END
> <ID>
12577

> <Formula>
C26H43NO6

> <FW>
465.6227

> <DSSTox_CID>
27436

> <DSSTox_RID>
82346

> <DSSTox_GSID>
47436

> <DSSTox_FileID_Sort>
7027

> <TS_ChemName>
Glycocholic acid

> <TS_ChemName_Synonyms>


> <TS_CASRN>
475-31-0

> <CASRN_ChemName_Relationship>
primary

> <TS_Description>
single chemical compound

> <ChemNote>
stereochem

> <STRUCTURE_Shown>
tested chemical

> <STRUCTURE_Formula>
C26H43NO6

> <STRUCTURE_MW>
465.6227

> <STRUCTURE_ChemType>
defined organic

> <STRUCTURE_DefinedOrganicForm>
parent

> <STRUCTURE_IUPAC>
N-[(3alpha,5beta,7alpha,8xi,12alpha)-3,7,12-trihydroxy-24-oxocholan-24-yl]glycine

> <STRUCTURE_SMILES>
O=C(O)CNC(=O)CC[C@@H](C)[C@H]1CC[C@H]2[C@@H]3[C@H](O)C[C@@H]4C[C@H](O)CC[C@]4(C)[C@H]3C[C@H](O)[C@]12C

> <STRUCTURE_SMILES_Desalt>
O=C(O)CNC(=O)CC[C@@H](C)[C@H]1CC[C@H]2[C@@H]3[C@H](O)C[C@@H]4C[C@H](O)CC[C@]4(C)[C@H]3C[C@H](O)[C@]12C

> <Substance_modify_yyyymmdd>
20100619

$$$$
