4752-10-7
ChemmineR-0915142007XD

 12 13  0  0  0  0  0  0  0  0  1 V2000
    0.0000   -2.0052    0.0000 C    0  0  0  0  0  0  0  0  0  0  0  0
    0.0000   -3.3296    0.0000 C    0  0  0  0  0  0  0  0  0  0  0  0
    1.1542   -1.3297    0.0000 C    0  0  0  0  0  0  0  0  0  0  0  0
    1.1542   -3.9891    0.0000 C    0  0  0  0  0  0  0  0  0  0  0  0
    2.3084   -2.0052    0.0000 C    0  0  0  0  0  0  0  0  0  0  0  0
    2.3084   -3.3296    0.0000 C    0  0  0  0  0  0  0  0  0  0  0  0
    3.4626   -1.3297    0.0000 C    0  0  0  0  0  0  0  0  0  0  0  0
    3.4626   -3.9891    0.0000 C    0  0  0  0  0  0  0  0  0  0  0  0
    3.4626    0.0000    0.0000 Cl   0  0  0  0  0  0  0  0  0  0  0  0
    3.4626   -5.3188    0.0000 Cl   0  0  0  0  0  0  0  0  0  0  0  0
    4.6114   -2.0052    0.0000 N    0  0  0  0  0  0  0  0  0  0  0  0
    4.6114   -3.3296    0.0000 N    0  0  0  0  0  0  0  0  0  0  0  0
  1  2  2  0  0  0  0
  1  3  1  0  0  0  0
  2  4  1  0  0  0  0
  3  5  2  0  0  0  0
  4  6  2  0  0  0  0
  5  6  1  0  0  0  0
  5  7  1  0  0  0  0
  6  8  1  0  0  0  0
  7  9  1  0  0  0  0
  7 11  2  0  0  0  0
  8 10  1  0  0  0  0
  8 12  2  0  0  0  0
 11 12  1  0  0  0  0
M  END
> <ID>
14169

> <Formula>
C8H4Cl2N2

> <FW>
199.0368

> <DSSTox_CID>
29162

> <DSSTox_RID>
83381

> <DSSTox_GSID>
49306

> <DSSTox_FileID_Sort>
8056

> <TS_ChemName>
1,4-Dichlorophthalazine

> <TS_ChemName_Synonyms>


> <TS_CASRN>
4752-10-7

> <CASRN_ChemName_Relationship>
primary

> <TS_Description>
single chemical compound

> <ChemNote>


> <STRUCTURE_Shown>
tested chemical

> <STRUCTURE_Formula>
C8H4Cl2N2

> <STRUCTURE_MW>
199.0368

> <STRUCTURE_ChemType>
defined organic

> <STRUCTURE_DefinedOrganicForm>
parent

> <STRUCTURE_IUPAC>
1,4-dichlorophthalazine

> <STRUCTURE_SMILES>
Clc2nnc(Cl)c1ccccc12

> <STRUCTURE_SMILES_Desalt>
Clc2nnc(Cl)c1ccccc12

> <Substance_modify_yyyymmdd>
20111204

$$$$
