475207-59-1
ChemmineR-0915142007XD

 43 45  0  0  0  0  0  0  0  0  1 V2000
    0.0000   -1.3516    0.0000 C    0  0  0  0  0  0  0  0  0  0  0  0
    1.1557   -2.0175    0.0000 N    0  0  0  0  0  0  0  0  0  0  0  0
    2.3114   -1.3516    0.0000 C    0  0  0  0  0  0  0  0  0  0  0  0
    2.3114    0.0000    0.0000 O    0  0  0  0  0  0  0  0  0  0  0  0
    3.4474   -2.0175    0.0000 C    0  0  0  0  0  0  0  0  0  0  0  0
    4.6031   -1.3516    0.0000 C    0  0  0  0  0  0  0  0  0  0  0  0
    5.7588   -2.0175    0.0000 C    0  0  0  0  0  0  0  0  0  0  0  0
    5.7588   -3.3495    0.0000 C    0  0  0  0  0  0  0  0  0  0  0  0
    4.6031   -4.0155    0.0000 C    0  0  0  0  0  0  0  0  0  0  0  0
    3.4474   -3.3495    0.0000 N    0  0  0  0  0  0  0  0  0  0  0  0
    6.9145   -1.3516    0.0000 O    0  0  0  0  0  0  0  0  0  0  0  0
    8.0702   -2.0175    0.0000 C    0  0  0  0  0  0  0  0  0  0  0  0
    9.2258   -1.3516    0.0000 C    0  0  0  0  0  0  0  0  0  0  0  0
   10.3619   -2.0175    0.0000 C    0  0  0  0  0  0  0  0  0  0  0  0
   10.3619   -3.3495    0.0000 C    0  0  0  0  0  0  0  0  0  0  0  0
   11.5176   -4.0155    0.0000 N    0  0  0  0  0  0  0  0  0  0  0  0
   12.6733   -3.3495    0.0000 C    0  0  0  0  0  0  0  0  0  0  0  0
   12.6733   -2.0175    0.0000 O    0  0  0  0  0  0  0  0  0  0  0  0
   13.8290   -4.0155    0.0000 N    0  0  0  0  0  0  0  0  0  0  0  0
   14.9847   -3.3495    0.0000 C    0  0  0  0  0  0  0  0  0  0  0  0
   14.9847   -2.0175    0.0000 C    0  0  0  0  0  0  0  0  0  0  0  0
   16.1403   -1.3516    0.0000 C    0  0  0  0  0  0  0  0  0  0  0  0
   17.2764   -2.0175    0.0000 C    0  0  0  0  0  0  0  0  0  0  0  0
   18.4321   -1.3516    0.0000 Cl   0  0  0  0  0  0  0  0  0  0  0  0
   17.2764   -3.3495    0.0000 C    0  0  0  0  0  0  0  0  0  0  0  0
   16.1403   -4.0155    0.0000 C    0  0  0  0  0  0  0  0  0  0  0  0
   18.4321   -4.0155    0.0000 C    0  0  0  0  0  0  0  0  0  0  0  0
   19.5878   -4.6815    0.0000 F    0  0  0  0  0  0  0  0  0  0  0  0
   17.7661   -5.1712    0.0000 F    0  0  0  0  0  0  0  0  0  0  0  0
   19.0981   -2.8598    0.0000 F    0  0  0  0  0  0  0  0  0  0  0  0
    9.2258   -4.0155    0.0000 C    0  0  0  0  0  0  0  0  0  0  0  0
    8.0702   -3.3495    0.0000 C    0  0  0  0  0  0  0  0  0  0  0  0
    9.4021   -6.8557    0.0000 C    0  0  0  0  0  0  0  0  0  0  0  0
   10.0681   -7.9918    0.0000 C    0  0  0  0  0  0  0  0  0  0  0  0
   11.3805   -7.9918    0.0000 C    0  0  0  0  0  0  0  0  0  0  0  0
   12.0465   -6.8557    0.0000 C    0  0  0  0  0  0  0  0  0  0  0  0
   11.3609   -5.7000    0.0000 C    0  0  0  0  0  0  0  0  0  0  0  0
   10.0681   -5.7196    0.0000 C    0  0  0  0  0  0  0  0  0  0  0  0
   13.3785   -6.8557    0.0000 C    0  0  0  0  0  0  0  0  0  0  0  0
    8.0506   -6.8557    0.0000 S    0  0  0  0  0  0  0  0  0  0  0  0
    6.7186   -6.8361    0.0000 O    0  0  0  0  0  0  0  0  0  0  0  0
    8.0506   -8.1877    0.0000 O    0  0  0  0  0  0  0  0  0  0  0  0
    8.0702   -5.5238    0.0000 O    0  0  0  0  0  0  0  0  0  0  0  0
  1  2  1  0  0  0  0
  2  3  1  0  0  0  0
  3  4  2  0  0  0  0
  3  5  1  0  0  0  0
  5  6  2  0  0  0  0
  5 10  1  0  0  0  0
  6  7  1  0  0  0  0
  7  8  2  0  0  0  0
  7 11  1  0  0  0  0
  8  9  1  0  0  0  0
  9 10  2  0  0  0  0
 11 12  1  0  0  0  0
 12 13  2  0  0  0  0
 12 32  1  0  0  0  0
 13 14  1  0  0  0  0
 14 15  2  0  0  0  0
 15 16  1  0  0  0  0
 15 31  1  0  0  0  0
 16 17  1  0  0  0  0
 17 18  2  0  0  0  0
 17 19  1  0  0  0  0
 19 20  1  0  0  0  0
 20 21  2  0  0  0  0
 20 26  1  0  0  0  0
 21 22  1  0  0  0  0
 22 23  2  0  0  0  0
 23 24  1  0  0  0  0
 23 25  1  0  0  0  0
 25 26  2  0  0  0  0
 25 27  1  0  0  0  0
 27 28  1  0  0  0  0
 27 29  1  0  0  0  0
 27 30  1  0  0  0  0
 31 32  2  0  0  0  0
 33 38  2  0  0  0  0
 33 34  1  0  0  0  0
 33 40  1  0  0  0  0
 34 35  2  0  0  0  0
 35 36  1  0  0  0  0
 36 39  1  0  0  0  0
 36 37  2  0  0  0  0
 37 38  1  0  0  0  0
 40 41  1  0  0  0  0
 40 42  2  0  0  0  0
 40 43  2  0  0  0  0
M  END
> <ID>
12917

> <Formula>
C28H24ClF3N4O6S

> <FW>
637.0266 (464.8249+172.2016)

> <DSSTox_CID>
27817

> <DSSTox_RID>
82581

> <DSSTox_GSID>
47839

> <DSSTox_FileID_Sort>
7258

> <TS_ChemName>
Sorafenib tosylate

> <TS_ChemName_Synonyms>


> <TS_CASRN>
475207-59-1

> <CASRN_ChemName_Relationship>
primary

> <TS_Description>
single chemical compound

> <ChemNote>
parent [284461-73-0]

> <STRUCTURE_Shown>
tested chemical

> <STRUCTURE_Formula>
C28H24ClF3N4O6S

> <STRUCTURE_MW>
637.0266

> <STRUCTURE_ChemType>
defined organic

> <STRUCTURE_DefinedOrganicForm>
complex

> <STRUCTURE_IUPAC>
4-[4-({[4-chloro-3-(trifluoromethyl)phenyl]carbamoyl}amino)phenoxy]-N-methylpyridine-2-carboxamide 4-methylbenzenesulfonate (1:1)

> <STRUCTURE_SMILES>
O=C(NC)c3cc(Oc2ccc(NC(=O)Nc1cc(c(Cl)cc1)C(F)(F)F)cc2)ccn3.O=S(=O)(O)c1ccc(C)cc1

> <STRUCTURE_SMILES_Desalt>
O=C(NC)c3cc(Oc2ccc(NC(=O)Nc1cc(c(Cl)cc1)C(F)(F)F)cc2)ccn3

> <Substance_modify_yyyymmdd>
20110808

$$$$
