475575-45-2
ChemmineR-0915142007XD

 12 11  0  0  0  0  0  0  0  0  2 V2000
    6.6119   -1.0757    0.0000 N    0  3  0  0  0  0  0  0  0  0  0  0
    4.5625   -1.7341    0.0000 N    0  0  0  0  0  0  0  0  0  0  0  0
    5.8422   -2.1700    0.0000 C    0  0  0  0  0  0  0  0  0  0  0  0
    5.8329    0.0000    0.0000 C    0  0  0  0  0  0  0  0  0  0  0  0
    4.5625   -0.4173    0.0000 C    0  0  0  0  0  0  0  0  0  0  0  0
    3.5053   -2.5223    0.0000 C    0  0  0  0  0  0  0  0  0  0  0  0
    2.2905   -1.9752    0.0000 C    0  0  0  0  0  0  0  0  0  0  0  0
    1.2055   -2.7449    0.0000 C    0  0  0  0  0  0  0  0  0  0  0  0
    0.0000   -2.1792    0.0000 C    0  0  0  0  0  0  0  0  0  0  0  0
    6.2595   -3.4311    0.0000 C    0  0  0  0  0  0  0  0  0  0  0  0
    7.9287   -1.0757    0.0000 C    0  0  0  0  0  0  0  0  0  0  0  0
    9.2733   -2.6800    0.0000 Br   0  5  0  0  0  0  0  0  0  0  0  0
  1  3  2  0  0  0  0
  1  4  1  0  0  0  0
  1 11  1  0  0  0  0
  2  3  1  0  0  0  0
  2  5  1  0  0  0  0
  2  6  1  0  0  0  0
  3 10  1  0  0  0  0
  4  5  2  0  0  0  0
  6  7  1  0  0  0  0
  7  8  1  0  0  0  0
  8  9  1  0  0  0  0
M  END
> <ID>
13006

> <Formula>
C9H17BrN2

> <FW>
233.1487 (153.2441+79.9045)

> <DSSTox_CID>
27907

> <DSSTox_RID>
82660

> <DSSTox_GSID>
47931

> <DSSTox_FileID_Sort>
7337

> <TS_ChemName>
1-Butyl-2,3-dimethylimidazolium bromide

> <TS_ChemName_Synonyms>


> <TS_CASRN>
475575-45-2

> <CASRN_ChemName_Relationship>
primary

> <TS_Description>
single chemical compound

> <ChemNote>
ammonium; parent [108203-89-0]

> <STRUCTURE_Shown>
tested chemical

> <STRUCTURE_Formula>
C9H17BrN2

> <STRUCTURE_MW>
233.1487

> <STRUCTURE_ChemType>
defined organic

> <STRUCTURE_DefinedOrganicForm>
salt

> <STRUCTURE_IUPAC>
1-butyl-2,3-dimethyl-1H-imidazol-3-ium bromide

> <STRUCTURE_SMILES>
[Br-].CCCCn1cc[n+](C)c1C

> <STRUCTURE_SMILES_Desalt>
CCCCn1cc[n+](C)c1C

> <Substance_modify_yyyymmdd>
20110418

$$$$
