4757-55-5
ChemmineR-0915142007XD

 22 24  0  0  0  0  0  0  0  0  1 V2000
    4.6113   -0.6655    0.0000 C   0  0  0  0  0  0  0  0  0  0  0  0
    5.7548    0.0000    0.0000 C   0  0  0  0  0  0  0  0  0  0  0  0
    6.9076   -0.6655    0.0000 C   0  0  0  0  0  0  0  0  0  0  0  0
    6.9076   -1.9964    0.0000 C   0  0  0  0  0  0  0  0  0  0  0  0
    5.7548   -2.6618    0.0000 C   0  0  0  0  0  0  0  0  0  0  0  0
    4.6113   -1.9964    0.0000 C   0  0  0  0  0  0  0  0  0  0  0  0
    5.7548   -3.9927    0.0000 N   0  0  0  0  0  0  0  0  0  0  0  0
    4.6113   -4.6582    0.0000 C   0  0  0  0  0  0  0  0  0  0  0  0
    3.4585   -3.9927    0.0000 C   0  0  0  0  0  0  0  0  0  0  0  0
    2.3057   -4.6582    0.0000 C   0  0  0  0  0  0  0  0  0  0  0  0
    1.1528   -3.9927    0.0000 N   0  0  0  0  0  0  0  0  0  0  0  0
    0.0000   -4.6582    0.0000 C   0  0  0  0  0  0  0  0  0  0  0  0
    1.1528   -2.6618    0.0000 C   0  0  0  0  0  0  0  0  0  0  0  0
    6.9076   -4.6582    0.0000 C   0  0  0  0  0  0  0  0  0  0  0  0
    8.0604   -3.9927    0.0000 C   0  0  0  0  0  0  0  0  0  0  0  0
    8.0604   -2.6618    0.0000 C   0  0  0  0  0  0  0  0  0  0  0  0
    8.5197   -1.4153    0.0000 C   0  0  0  0  0  0  0  0  0  0  0  0
    9.3726   -2.8961    0.0000 C   0  0  0  0  0  0  0  0  0  0  0  0
    9.2133   -4.6582    0.0000 C   0  0  0  0  0  0  0  0  0  0  0  0
    9.2133   -5.9891    0.0000 C   0  0  0  0  0  0  0  0  0  0  0  0
    8.0604   -6.6545    0.0000 C   0  0  0  0  0  0  0  0  0  0  0  0
    6.9076   -5.9891    0.0000 C   0  0  0  0  0  0  0  0  0  0  0  0
  1  2  2  0  0  0  0
  1  6  1  0  0  0  0
  2  3  1  0  0  0  0
  3  4  2  0  0  0  0
  4  5  1  0  0  0  0
  4 16  1  0  0  0  0
  5  6  2  0  0  0  0
  5  7  1  0  0  0  0
  7  8  1  0  0  0  0
  7 14  1  0  0  0  0
  8  9  1  0  0  0  0
  9 10  1  0  0  0  0
 10 11  1  0  0  0  0
 11 12  1  0  0  0  0
 11 13  1  0  0  0  0
 14 15  2  0  0  0  0
 14 22  1  0  0  0  0
 15 16  1  0  0  0  0
 15 19  1  0  0  0  0
 16 17  1  0  0  0  0
 16 18  1  0  0  0  0
 19 20  2  0  0  0  0
 20 21  1  0  0  0  0
 21 22  2  0  0  0  0
M  END
> <ID>
2649

> <Formula>
C20H26N2

> <FW>
294.4338

> <DSSTox_CID>
2941

> <DSSTox_RID>
76798

> <DSSTox_GSID>
22941

> <DSSTox_FileID_Sort>
1482

> <TS_ChemName>
Dimetacrine

> <TS_ChemName_Synonyms>


> <TS_CASRN>
4757-55-5

> <CASRN_ChemName_Relationship>
primary

> <TS_Description>
single chemical compound

> <ChemNote>


> <STRUCTURE_Shown>
tested chemical

> <STRUCTURE_Formula>
C20H26N2

> <STRUCTURE_MW>
294.4338

> <STRUCTURE_ChemType>
defined organic

> <STRUCTURE_DefinedOrganicForm>
parent

> <STRUCTURE_IUPAC>
3-(9,9-dimethylacridin-10(9H)-yl)-N,N-dimethylpropan-1-amine

> <STRUCTURE_SMILES>
CN(C)CCCN3c1ccccc1C(C)(C)c2ccccc23

> <STRUCTURE_SMILES_Desalt>
CN(C)CCCN3c1ccccc1C(C)(C)c2ccccc23

> <Substance_modify_yyyymmdd>
20080429

$$$$
