4759-48-2
ChemmineR-0915142007XD

 22 22  0  0  0  0  0  0  0  0  1 V2000
    2.2680   -2.0019    0.0000 C   0  0  0  0  0  0  0  0  0  0  0  0
    1.1403   -1.3304    0.0000 C   0  0  0  0  0  0  0  0  0  0  0  0
    2.2680   -3.3196    0.0000 C   0  0  0  0  0  0  0  0  0  0  0  0
    3.4463   -1.3304    0.0000 C   0  0  0  0  0  0  0  0  0  0  0  0
    0.0000   -2.0019    0.0000 C   0  0  0  0  0  0  0  0  0  0  0  0
    1.8118   -0.1901    0.0000 C   0  0  0  0  0  0  0  0  0  0  0  0
    0.4815   -0.1901    0.0000 C   0  0  0  0  0  0  0  0  0  0  0  0
    1.1403   -3.9911    0.0000 C   0  0  0  0  0  0  0  0  0  0  0  0
    3.4463   -3.9911    0.0000 C   0  0  0  0  0  0  0  0  0  0  0  0
    4.5866   -2.0019    0.0000 C   0  0  0  0  0  0  0  0  0  0  0  0
    0.0000   -3.3196    0.0000 C   0  0  0  0  0  0  0  0  0  0  0  0
    5.7523   -1.3304    0.0000 C   0  0  0  0  0  0  0  0  0  0  0  0
    6.8926   -2.0019    0.0000 C   0  0  0  0  0  0  0  0  0  0  0  0
    5.7523    0.0000    0.0000 C   0  0  0  0  0  0  0  0  0  0  0  0
    8.0710   -1.3304    0.0000 C   0  0  0  0  0  0  0  0  0  0  0  0
    9.1986   -2.0019    0.0000 C   0  0  0  0  0  0  0  0  0  0  0  0
   10.3643   -1.3304    0.0000 C   0  0  0  0  0  0  0  0  0  0  0  0
   11.5173   -2.0019    0.0000 C   0  0  0  0  0  0  0  0  0  0  0  0
   10.3643    0.0000    0.0000 C   0  0  0  0  0  0  0  0  0  0  0  0
   11.5173   -3.3196    0.0000 C   0  0  0  0  0  0  0  0  0  0  0  0
   12.6703   -4.0038    0.0000 O   0  0  0  0  0  0  0  0  0  0  0  0
   10.3643   -4.0038    0.0000 O   0  0  0  0  0  0  0  0  0  0  0  0
  1  2  1  0  0  0  0
  1  3  2  0  0  0  0
  1  4  1  0  0  0  0
  2  5  1  0  0  0  0
  2  6  1  0  0  0  0
  2  7  1  0  0  0  0
  3  8  1  0  0  0  0
  3  9  1  0  0  0  0
  4 10  2  0  0  0  0
  5 11  1  0  0  0  0
  8 11  1  0  0  0  0
 10 12  1  0  0  0  0
 12 13  2  0  0  0  0
 12 14  1  0  0  0  0
 13 15  1  0  0  0  0
 15 16  2  0  0  0  0
 16 17  1  0  0  0  0
 17 18  2  0  0  0  0
 17 19  1  0  0  0  0
 18 20  1  0  0  0  0
 20 21  1  0  0  0  0
 20 22  2  0  0  0  0
M  END
> <ID>
2853

> <Formula>
C20H28O2

> <FW>
300.4351

> <DSSTox_CID>
3177

> <DSSTox_RID>
76906

> <DSSTox_GSID>
23177

> <DSSTox_FileID_Sort>
1590

> <TS_ChemName>
13-cis Retinoic acid

> <TS_ChemName_Synonyms>
Isotretinoin

> <TS_CASRN>
4759-48-2

> <CASRN_ChemName_Relationship>
primary

> <TS_Description>
single chemical compound

> <ChemNote>
stereochem

> <STRUCTURE_Shown>
tested chemical

> <STRUCTURE_Formula>
C20H28O2

> <STRUCTURE_MW>
300.4351

> <STRUCTURE_ChemType>
defined organic

> <STRUCTURE_DefinedOrganicForm>
parent

> <STRUCTURE_IUPAC>
(13cis)-retinoic acid

> <STRUCTURE_SMILES>
CC=1CCCC(C)(C)C=1/C=CC(\C)=C\C=CC(/C)=C\C(=O)O

> <STRUCTURE_SMILES_Desalt>
CC=1CCCC(C)(C)C=1/C=CC(\C)=C\C=CC(/C)=C\C(=O)O

> <Substance_modify_yyyymmdd>
20080429

$$$$
