476-66-4
ChemmineR-0915142007XD

 22 25  0  0  0  0  0  0  0  0  1 V2000
    1.1543   -7.9780    0.0000 O   0  0  0  0  0  0  0  0  0  0  0  0
    2.2994   -7.3170    0.0000 C   0  0  0  0  0  0  0  0  0  0  0  0
    2.2994   -5.9858    0.0000 C   0  0  0  0  0  0  0  0  0  0  0  0
    3.4537   -5.3155    0.0000 C   0  0  0  0  0  0  0  0  0  0  0  0
    4.6080   -5.9858    0.0000 C   0  0  0  0  0  0  0  0  0  0  0  0
    5.7624   -5.3155    0.0000 C   0  0  0  0  0  0  0  0  0  0  0  0
    5.7624   -3.9936    0.0000 O   0  0  0  0  0  0  0  0  0  0  0  0
    4.6080   -3.3234    0.0000 C   0  0  0  0  0  0  0  0  0  0  0  0
    3.4537   -3.9936    0.0000 C   0  0  0  0  0  0  0  0  0  0  0  0
    2.2994   -3.3234    0.0000 C   0  0  0  0  0  0  0  0  0  0  0  0
    2.2994   -1.9922    0.0000 C   0  0  0  0  0  0  0  0  0  0  0  0
    3.4537   -1.3312    0.0000 C   0  0  0  0  0  0  0  0  0  0  0  0
    4.6080   -1.9922    0.0000 C   0  0  0  0  0  0  0  0  0  0  0  0
    5.7624   -1.3312    0.0000 O   0  0  0  0  0  0  0  0  0  0  0  0
    3.4537    0.0000    0.0000 O   0  0  0  0  0  0  0  0  0  0  0  0
    1.1543   -3.9936    0.0000 C   0  0  0  0  0  0  0  0  0  0  0  0
    0.0000   -3.3234    0.0000 O   0  0  0  0  0  0  0  0  0  0  0  0
    1.1543   -5.3155    0.0000 O   0  0  0  0  0  0  0  0  0  0  0  0
    6.9074   -5.9858    0.0000 O   0  0  0  0  0  0  0  0  0  0  0  0
    4.6080   -7.3170    0.0000 C   0  0  0  0  0  0  0  0  0  0  0  0
    3.4537   -7.9780    0.0000 C   0  0  0  0  0  0  0  0  0  0  0  0
    3.4537   -9.3092    0.0000 O   0  0  0  0  0  0  0  0  0  0  0  0
  1  2  1  0  0  0  0
  2  3  1  0  0  0  0
  2 21  2  0  0  0  0
  3  4  2  0  0  0  0
  3 18  1  0  0  0  0
  4  5  1  0  0  0  0
  4  9  1  0  0  0  0
  5  6  1  0  0  0  0
  5 20  2  0  0  0  0
  6  7  1  0  0  0  0
  6 19  2  0  0  0  0
  7  8  1  0  0  0  0
  8  9  1  0  0  0  0
  8 13  2  0  0  0  0
  9 10  2  0  0  0  0
 10 11  1  0  0  0  0
 10 16  1  0  0  0  0
 11 12  2  0  0  0  0
 12 13  1  0  0  0  0
 12 15  1  0  0  0  0
 13 14  1  0  0  0  0
 16 17  2  0  0  0  0
 16 18  1  0  0  0  0
 20 21  1  0  0  0  0
 21 22  1  0  0  0  0
M  END
> <ID>
534

> <Formula>
C14H6O8

> <FW>
302.1926

> <DSSTox_CID>
557

> <DSSTox_RID>
75657

> <DSSTox_GSID>
20557

> <DSSTox_FileID_Sort>
341

> <TS_ChemName>
Ellagic acid

> <TS_ChemName_Synonyms>


> <TS_CASRN>
476-66-4

> <CASRN_ChemName_Relationship>
primary

> <TS_Description>
single chemical compound

> <ChemNote>
C.I. 55005

> <STRUCTURE_Shown>
tested chemical

> <STRUCTURE_Formula>
C14H6O8

> <STRUCTURE_MW>
302.1926

> <STRUCTURE_ChemType>
defined organic

> <STRUCTURE_DefinedOrganicForm>
parent

> <STRUCTURE_IUPAC>
2,3,7,8-tetrahydroxychromeno[5,4,3-cde]chromene-5,10-dione

> <STRUCTURE_SMILES>
Oc1c4OC(=O)c2cc(O)c(O)c3OC(=O)c(cc1O)c4c23

> <STRUCTURE_SMILES_Desalt>
Oc1c4OC(=O)c2cc(O)c(O)c3OC(=O)c(cc1O)c4c23

> <Substance_modify_yyyymmdd>
20080429

$$$$
