4767-03-7
ChemmineR-0915142007XD

  9  8  0  0  0  0  0  0  0  0  1 V2000
    1.1532   -1.3253    0.0000 C   0  0  0  0  0  0  0  0  0  0  0  0
    2.3020   -1.9965    0.0000 C   0  0  0  0  0  0  0  0  0  0  0  0
    2.9733   -0.8477    0.0000 C   0  0  0  0  0  0  0  0  0  0  0  0
    1.1532    0.0000    0.0000 O   0  0  0  0  0  0  0  0  0  0  0  0
    0.0000   -1.9965    0.0000 O   0  0  0  0  0  0  0  0  0  0  0  0
    4.3029   -0.8477    0.0000 O   0  0  0  0  0  0  0  0  0  0  0  0
    3.4552   -2.6678    0.0000 C   0  0  0  0  0  0  0  0  0  0  0  0
    3.4552   -3.9974    0.0000 O   0  0  0  0  0  0  0  0  0  0  0  0
    1.6480   -3.1497    0.0000 C   0  0  0  0  0  0  0  0  0  0  0  0
  1  2  1  0  0  0  0
  1  5  1  0  0  0  0
  1  4  2  0  0  0  0
  2  3  1  0  0  0  0
  2  7  1  0  0  0  0
  2  9  1  0  0  0  0
  3  6  1  0  0  0  0
  7  8  1  0  0  0  0
M  END
> <ID>
5261

> <Formula>
C5H10O4

> <FW>
134.1305

> <DSSTox_CID>
7577

> <DSSTox_RID>
78509

> <DSSTox_GSID>
27577

> <DSSTox_FileID_Sort>
3192

> <TS_ChemName>
3-Hydroxy-2-(hydroxymethyl)-2-methylpropanoic acid

> <TS_ChemName_Synonyms>
3-Hydroxy-2-(hydroxymethyl)-2-methylpropanoic acid (Propanoic acid, 3-hydroxy-2-(hydroxymethyl)-2-methyl-) (Dimethylolpropionic acid)

> <TS_CASRN>
4767-03-7

> <CASRN_ChemName_Relationship>
primary

> <TS_Description>
single chemical compound

> <ChemNote>


> <STRUCTURE_Shown>
tested chemical

> <STRUCTURE_Formula>
C5H10O4

> <STRUCTURE_MW>
134.1305

> <STRUCTURE_ChemType>
defined organic

> <STRUCTURE_DefinedOrganicForm>
parent

> <STRUCTURE_IUPAC>
3-hydroxy-2-(hydroxymethyl)-2-methylpropanoic acid

> <STRUCTURE_SMILES>
O=C(O)C(C)(CO)CO

> <STRUCTURE_SMILES_Desalt>
O=C(O)C(C)(CO)CO

> <Substance_modify_yyyymmdd>
20080429

$$$$
