47739-98-0
ChemmineR-0915142007XD

 34 38  0  0  0  0  0  0  0  0  1 V2000
   10.2997   -9.3833    0.0000 N    0  0  0  0  0  0  0  0  0  0  0  0
   10.6964   -8.1112    0.0000 C    0  0  0  0  0  0  0  0  0  0  0  0
   11.8864   -8.7541    0.0000 O    0  0  0  0  0  0  0  0  0  0  0  0
    9.7936   -7.1400    0.0000 C    0  0  0  0  0  0  0  0  0  0  0  0
    9.4927   -5.8406    0.0000 C    0  0  0  0  0  0  0  0  0  0  0  0
    8.2206   -5.4576    0.0000 C    0  0  0  0  0  0  0  0  0  0  0  0
    7.2495   -6.3467    0.0000 N    0  0  0  0  0  0  0  0  0  0  0  0
    5.9774   -5.9637    0.0000 C    0  0  0  0  0  0  0  0  0  0  0  0
    5.6902   -4.6643    0.0000 C    0  0  0  0  0  0  0  0  0  0  0  0
    4.4318   -4.2813    0.0000 C    0  0  0  0  0  0  0  0  0  0  0  0
    4.1172   -2.9819    0.0000 N    0  0  0  0  0  0  0  0  0  0  0  0
    5.1567   -2.1475    0.0000 C    0  0  0  0  0  0  0  0  0  0  0  0
    6.3057   -2.8314    0.0000 C    0  0  0  0  0  0  0  0  0  0  0  0
    7.4546   -2.1475    0.0000 C    0  0  0  0  0  0  0  0  0  0  0  0
    7.4546   -0.8207    0.0000 C    0  0  0  0  0  0  0  0  0  0  0  0
    6.3057   -0.1641    0.0000 C    0  0  0  0  0  0  0  0  0  0  0  0
    5.1567   -0.8207    0.0000 C    0  0  0  0  0  0  0  0  0  0  0  0
    4.1172    0.0000    0.0000 C    0  0  0  0  0  0  0  0  0  0  0  0
    2.8177   -0.2872    0.0000 C    0  0  0  0  0  0  0  0  0  0  0  0
    2.2432   -1.4909    0.0000 C    0  0  0  0  0  0  0  0  0  0  0  0
    2.8177   -2.6809    0.0000 C    0  0  0  0  0  0  0  0  0  0  0  0
    2.0791   -3.7889    0.0000 C    0  0  0  0  0  0  0  0  0  0  0  0
    0.7523   -3.6795    0.0000 C    0  0  0  0  0  0  0  0  0  0  0  0
    0.0000   -4.7874    0.0000 Cl   0  0  0  0  0  0  0  0  0  0  0  0
    0.1778   -2.4894    0.0000 C    0  0  0  0  0  0  0  0  0  0  0  0
    0.9164   -1.3815    0.0000 C    0  0  0  0  0  0  0  0  0  0  0  0
    7.5504   -7.6461    0.0000 C    0  0  0  0  0  0  0  0  0  0  0  0
    8.8225   -8.0428    0.0000 C    0  0  0  0  0  0  0  0  0  0  0  0
   11.0931   -6.8391    0.0000 N    0  0  0  0  0  0  0  0  0  0  0  0
   11.9958   -7.8240    0.0000 C    0  0  0  0  0  0  0  0  0  0  0  0
   13.2816   -7.5230    0.0000 C    0  0  0  0  0  0  0  0  0  0  0  0
   13.6783   -6.2510    0.0000 C    0  0  0  0  0  0  0  0  0  0  0  0
   12.7755   -5.2798    0.0000 C    0  0  0  0  0  0  0  0  0  0  0  0
   11.4761   -5.5670    0.0000 C    0  0  0  0  0  0  0  0  0  0  0  0
  1  2  1  0  0  0  0
  2  3  2  0  0  0  0
  2  4  1  0  0  0  0
  4  5  1  0  0  0  0
  4 28  1  0  0  0  0
  4 29  1  0  0  0  0
  5  6  1  0  0  0  0
  6  7  1  0  0  0  0
  7  8  1  0  0  0  0
  7 27  1  0  0  0  0
  8  9  1  0  0  0  0
  9 10  1  0  0  0  0
 10 11  1  0  0  0  0
 11 12  1  0  0  0  0
 11 21  1  0  0  0  0
 12 13  2  0  0  0  0
 12 17  1  0  0  0  0
 13 14  1  0  0  0  0
 14 15  2  0  0  0  0
 15 16  1  0  0  0  0
 16 17  2  0  0  0  0
 17 18  1  0  0  0  0
 18 19  1  0  0  0  0
 19 20  1  0  0  0  0
 20 21  2  0  0  0  0
 20 26  1  0  0  0  0
 21 22  1  0  0  0  0
 22 23  2  0  0  0  0
 23 24  1  0  0  0  0
 23 25  1  0  0  0  0
 25 26  2  0  0  0  0
 27 28  1  0  0  0  0
 29 30  1  0  0  0  0
 29 34  1  0  0  0  0
 30 31  1  0  0  0  0
 31 32  1  0  0  0  0
 32 33  1  0  0  0  0
 33 34  1  0  0  0  0
M  END
> <ID>
16149

> <Formula>
C28H37ClN4O

> <FW>
481.0726

> <DSSTox_CID>
31538

> <DSSTox_RID>
97423

> <DSSTox_GSID>
57749

> <DSSTox_FileID_Sort>
8490

> <TS_ChemName>
Clocapramine

> <TS_ChemName_Synonyms>


> <TS_CASRN>
47739-98-0

> <CASRN_ChemName_Relationship>
primary

> <TS_Description>
single chemical compound

> <ChemNote>


> <STRUCTURE_Shown>
tested chemical

> <STRUCTURE_Formula>
C28H37ClN4O

> <STRUCTURE_MW>
481.0726

> <STRUCTURE_ChemType>
defined organic

> <STRUCTURE_DefinedOrganicForm>
parent

> <STRUCTURE_IUPAC>
1'-[3-(3-chloro-10,11-dihydro-5H-dibenzo[b,f]azepin-5-yl)propyl]-1,4'-bipiperidine-4'-carboxamide

> <STRUCTURE_SMILES>
Clc4ccc5CCc1ccccc1N(CCCN2CCC(CC2)(C(N)=O)N3CCCCC3)c5c4

> <STRUCTURE_SMILES_Desalt>
Clc4ccc5CCc1ccccc1N(CCCN2CCC(CC2)(C(N)=O)N3CCCCC3)c5c4

> <Substance_modify_yyyymmdd>
20131018

$$$$
