4776-06-1
ChemmineR-0915142007XD

 22 23  0  0  0  0  0  0  0  0  1 V2000
    3.4557   -2.6724    0.0000 C    0  0  0  0  0  0  0  0  0  0  0  0
    3.4557   -4.0087    0.0000 C    0  0  0  0  0  0  0  0  0  0  0  0
    2.3038   -2.0043    0.0000 C    0  0  0  0  0  0  0  0  0  0  0  0
    2.3038   -4.6652    0.0000 C    0  0  0  0  0  0  0  0  0  0  0  0
    1.1519   -2.6724    0.0000 C    0  0  0  0  0  0  0  0  0  0  0  0
    1.1519   -4.0087    0.0000 C    0  0  0  0  0  0  0  0  0  0  0  0
    2.3038   -0.6681    0.0000 O    0  0  0  0  0  0  0  0  0  0  0  0
    0.0000   -2.0043    0.0000 Br   0  0  0  0  0  0  0  0  0  0  0  0
    2.3038   -5.9899    0.0000 Br   0  0  0  0  0  0  0  0  0  0  0  0
    4.6192   -2.0043    0.0000 C    0  0  0  0  0  0  0  0  0  0  0  0
    5.7711   -2.6609    0.0000 N    0  0  0  0  0  0  0  0  0  0  0  0
    4.6192   -0.6681    0.0000 O    0  0  0  0  0  0  0  0  0  0  0  0
    6.9230   -2.0043    0.0000 C    0  0  0  0  0  0  0  0  0  0  0  0
    6.9230   -0.6681    0.0000 C    0  0  0  0  0  0  0  0  0  0  0  0
    8.0634   -2.6609    0.0000 C    0  0  0  0  0  0  0  0  0  0  0  0
    8.0634    0.0000    0.0000 C    0  0  0  0  0  0  0  0  0  0  0  0
    9.2153   -2.0043    0.0000 C    0  0  0  0  0  0  0  0  0  0  0  0
    9.2153   -0.6681    0.0000 C    0  0  0  0  0  0  0  0  0  0  0  0
   10.3672   -2.6609    0.0000 C    0  0  0  0  0  0  0  0  0  0  0  0
   10.3672   -3.9856    0.0000 F    0  0  0  0  0  0  0  0  0  0  0  0
   11.5191   -2.0043    0.0000 F    0  0  0  0  0  0  0  0  0  0  0  0
   10.3672   -1.3247    0.0000 F    0  0  0  0  0  0  0  0  0  0  0  0
  1  2  1  0  0  0  0
  1  3  2  0  0  0  0
  1 10  1  0  0  0  0
  2  4  2  0  0  0  0
  3  5  1  0  0  0  0
  3  7  1  0  0  0  0
  4  6  1  0  0  0  0
  4  9  1  0  0  0  0
  5  6  2  0  0  0  0
  5  8  1  0  0  0  0
 10 11  1  0  0  0  0
 10 12  2  0  0  0  0
 11 13  1  0  0  0  0
 13 14  1  0  0  0  0
 13 15  2  0  0  0  0
 14 16  2  0  0  0  0
 15 17  1  0  0  0  0
 16 18  1  0  0  0  0
 17 18  2  0  0  0  0
 17 19  1  0  0  0  0
 19 20  1  0  0  0  0
 19 21  1  0  0  0  0
 19 22  1  0  0  0  0
M  END
> <ID>
8920

> <Formula>
C14H8Br2F3NO2

> <FW>
439.022

> <DSSTox_CID>
21985

> <DSSTox_RID>
79896

> <DSSTox_GSID>
41985

> <DSSTox_FileID_Sort>
4578

> <TS_ChemName>
Fluorosalan

> <TS_ChemName_Synonyms>


> <TS_CASRN>
4776-06-1

> <CASRN_ChemName_Relationship>
primary

> <TS_Description>
single chemical compound

> <ChemNote>


> <STRUCTURE_Shown>
tested chemical

> <STRUCTURE_Formula>
C14H8Br2F3NO2

> <STRUCTURE_MW>
439.022

> <STRUCTURE_ChemType>
defined organic

> <STRUCTURE_DefinedOrganicForm>
parent

> <STRUCTURE_IUPAC>
3,5-dibromo-2-hydroxy-N-[3-(trifluoromethyl)phenyl]benzamide

> <STRUCTURE_SMILES>
Oc1c(cc(Br)cc1Br)C(=O)Nc2cc(ccc2)C(F)(F)F

> <STRUCTURE_SMILES_Desalt>
Oc1c(cc(Br)cc1Br)C(=O)Nc2cc(ccc2)C(F)(F)F

> <Substance_modify_yyyymmdd>
20080825

$$$$
