478149-53-0
ChemmineR-0915142007XD

 20 23  0  0  1  0  0  0  0  0  1 V2000
    5.8384   -1.3957    0.0000 N   0  0  0  0  0  0  0  0  0  0  0  0
    7.0473   -2.0936    0.0000 C   0  0  0  0  0  0  0  0  0  0  0  0
    5.8384    0.0000    0.0000 C   0  0  0  0  0  0  0  0  0  0  0  0
    4.6294   -2.0936    0.0000 C   0  0  0  0  0  0  0  0  0  0  0  0
    6.2709   -2.1820    0.0000 C   0  0  0  0  0  0  0  0  0  0  0  0
    7.4798   -2.8897    0.0000 C   0  0  0  0  0  0  0  0  0  0  0  0
    6.2709   -0.7863    0.0000 C   0  0  0  0  0  0  0  0  0  0  0  0
    5.0619   -2.8897    0.0000 C   0  0  0  0  0  0  0  0  0  0  0  0
    4.6982   -4.2264    0.0000 N   0  0  0  0  0  0  0  0  0  0  0  0
    3.3418   -4.5803    0.0000 C   0  0  0  0  0  0  0  0  0  0  0  0
    2.3688   -3.5679    0.0000 O   0  0  0  0  0  0  0  0  0  0  0  0
    2.9683   -5.9170    0.0000 C   0  0  0  0  0  0  0  0  0  0  0  0
    3.9414   -6.9097    0.0000 N   0  0  0  0  0  0  0  0  0  0  0  0
    1.6316   -6.2610    0.0000 C   0  0  0  0  0  0  0  0  0  0  0  0
    3.5679   -8.2563    0.0000 C   0  0  0  0  0  0  0  0  0  0  0  0
    1.2384   -7.5978    0.0000 C   0  0  0  0  0  0  0  0  0  0  0  0
    2.2312   -8.5905    0.0000 C   0  0  0  0  0  0  0  0  0  0  0  0
    0.0000   -8.2170    0.0000 C   0  0  0  0  0  0  0  0  0  0  0  0
    0.1966   -9.5930    0.0000 C   0  0  0  0  0  0  0  0  0  0  0  0
    1.5726   -9.8289    0.0000 O   0  0  0  0  0  0  0  0  0  0  0  0
  1  2  1  0  0  0  0
  1  3  1  0  0  0  0
  1  4  1  0  0  0  0
  2  6  1  0  0  0  0
  3  7  1  0  0  0  0
  4  8  1  0  0  0  0
  5  6  1  0  0  0  0
  5  7  1  0  0  0  0
  5  8  1  0  0  0  0
  8  9  1  1  0  0  0
  9 10  1  0  0  0  0
 10 11  2  0  0  0  0
 10 12  1  0  0  0  0
 12 13  1  0  0  0  0
 12 14  2  0  0  0  0
 13 15  2  0  0  0  0
 14 16  1  0  0  0  0
 15 17  1  0  0  0  0
 16 17  2  0  0  0  0
 16 18  1  0  0  0  0
 17 20  1  0  0  0  0
 18 19  2  0  0  0  0
 19 20  1  0  0  0  0
M  END
> <ID>
12426

> <Formula>
C15H17N3O2

> <FW>
271.3144

> <DSSTox_CID>
27284

> <DSSTox_RID>
82238

> <DSSTox_GSID>
47284

> <DSSTox_FileID_Sort>
6919

> <TS_ChemName>
PHA-00543613

> <TS_ChemName_Synonyms>


> <TS_CASRN>
478149-53-0

> <CASRN_ChemName_Relationship>
primary

> <TS_Description>
single chemical compound

> <ChemNote>
stereochem

> <STRUCTURE_Shown>
tested chemical

> <STRUCTURE_Formula>
C15H17N3O2

> <STRUCTURE_MW>
271.3144

> <STRUCTURE_ChemType>
defined organic

> <STRUCTURE_DefinedOrganicForm>
parent

> <STRUCTURE_IUPAC>
N-[(3R)-1-azabicyclo[2.2.2]oct-3-yl]furo[2,3-c]pyridine-5-carboxamide

> <STRUCTURE_SMILES>
O=C(N[C@H]2CN1CCC2CC1)c3cc4ccoc4cn3

> <STRUCTURE_SMILES_Desalt>
O=C(N[C@H]2CN1CCC2CC1)c3cc4ccoc4cn3

> <Substance_modify_yyyymmdd>
20130910

$$$$
