478263-98-8
ChemmineR-0915142007XD

 34 36  0  0  1  0  0  0  0  0  2 V2000
    2.2997   -7.9557    0.0000 C    0  0  0  0  0  0  0  0  0  0  0  0
    2.2997   -9.2920    0.0000 C    0  0  0  0  0  0  0  0  0  0  0  0
    1.1395   -7.2927    0.0000 C    0  0  0  0  0  0  0  0  0  0  0  0
    1.1395   -9.9550    0.0000 C    0  0  0  0  0  0  0  0  0  0  0  0
    0.0000   -7.9557    0.0000 C    0  0  0  0  0  0  0  0  0  0  0  0
    0.0000   -9.2920    0.0000 C    0  0  0  0  0  0  0  0  0  0  0  0
    3.4599   -7.2927    0.0000 N    0  0  0  0  0  0  0  0  0  0  0  0
    4.6097   -7.9557    0.0000 C    0  0  0  0  0  0  0  0  0  0  0  0
    3.4599   -9.9550    0.0000 C    0  0  0  0  0  0  0  0  0  0  0  0
    4.6097   -9.2920    0.0000 C    0  0  0  0  0  0  0  0  0  0  0  0
    1.1395   -5.9564    0.0000 S    0  0  0  0  0  0  0  0  0  0  0  0
    2.2997   -5.2831    0.0000 N    0  5  0  0  0  0  0  0  0  0  0  0
    0.0000   -5.3142    0.0000 O    0  0  0  0  0  0  0  0  0  0  0  0
    0.0000   -6.6401    0.0000 O    0  0  0  0  0  0  0  0  0  0  0  0
    2.2997   -3.9571    0.0000 C    0  0  0  0  0  0  0  0  0  0  0  0
    3.4599   -1.9786    0.0000 C    0  0  0  0  0  0  0  0  0  0  0  0
    3.4599   -3.3149    0.0000 C    0  0  0  0  0  0  0  0  0  0  0  0
    2.2997   -1.3052    0.0000 C    0  0  0  0  0  0  0  0  0  0  0  0
    1.1395   -1.9786    0.0000 C    0  0  0  0  0  0  0  0  0  0  0  0
    1.1395   -3.3149    0.0000 C    0  0  0  0  0  0  0  0  0  0  0  0
    4.6097   -3.9778    0.0000 C    0  0  0  0  0  0  0  0  0  0  0  0
    4.6097   -5.3142    0.0000 O    0  0  0  0  0  0  0  0  0  0  0  0
    5.7700   -3.3149    0.0000 N    0  0  0  0  0  0  0  0  0  0  0  0
    6.9094   -3.9778    0.0000 C    0  0  0  0  0  0  0  0  0  0  0  0
    8.0593   -3.3149    0.0000 C    0  0  0  0  0  0  0  0  0  0  0  0
    6.9094   -5.3142    0.0000 C    0  0  0  0  0  0  0  0  0  0  0  0
    8.0593   -5.9564    0.0000 C    0  0  0  0  0  0  0  0  0  0  0  0
   10.3590   -1.9786    0.0000 C    0  0  0  0  0  0  0  0  0  0  0  0
   10.3590   -3.3149    0.0000 C    0  0  0  0  0  0  0  0  0  0  0  0
    9.2195   -1.3156    0.0000 C    0  0  0  0  0  0  0  0  0  0  0  0
    9.2195   -3.9778    0.0000 C    0  0  0  0  0  0  0  0  0  0  0  0
    8.0593   -1.9786    0.0000 C    0  0  0  0  0  0  0  0  0  0  0  0
    2.2583    0.0000    0.0000 F    0  0  0  0  0  0  0  0  0  0  0  0
    3.1906   -6.1740    0.0000 Na   0  3  0  0  0  0  0  0  0  0  0  0
  1  3  1  0  0  0  0
  1  7  2  0  0  0  0
  1  2  1  0  0  0  0
  2  4  1  0  0  0  0
  2  9  2  0  0  0  0
  3  5  2  0  0  0  0
  3 11  1  0  0  0  0
  4  6  2  0  0  0  0
  5  6  1  0  0  0  0
  7  8  1  0  0  0  0
  8 10  2  0  0  0  0
  9 10  1  0  0  0  0
 11 12  1  0  0  0  0
 11 13  2  0  0  0  0
 11 14  2  0  0  0  0
 12 15  1  0  0  0  0
 15 17  2  0  0  0  0
 15 20  1  0  0  0  0
 16 17  1  0  0  0  0
 16 18  2  0  0  0  0
 17 21  1  0  0  0  0
 18 19  1  0  0  0  0
 18 33  1  0  0  0  0
 19 20  2  0  0  0  0
 21 22  2  0  0  0  0
 21 23  1  0  0  0  0
 24 23  1  6  0  0  0
 24 25  1  0  0  0  0
 24 26  1  0  0  0  0
 25 31  1  0  0  0  0
 25 32  2  0  0  0  0
 26 27  1  0  0  0  0
 28 29  1  0  0  0  0
 28 30  2  0  0  0  0
 29 31  2  0  0  0  0
 30 32  1  0  0  0  0
M  END
> <ID>
12514

> <Formula>
C25H21FN3NaO3S

> <FW>
485.5057 (462.5165+22.9892)

> <DSSTox_CID>
27372

> <DSSTox_RID>
82304

> <DSSTox_GSID>
47372

> <DSSTox_FileID_Sort>
6985

> <TS_ChemName>
AVE3295

> <TS_ChemName_Synonyms>
A002032959B

> <TS_CASRN>
478263-98-8

> <CASRN_ChemName_Relationship>
primary

> <TS_Description>
single chemical compound

> <ChemNote>
stereochem

> <STRUCTURE_Shown>
tested chemical

> <STRUCTURE_Formula>
C25H21FN3NaO3S

> <STRUCTURE_MW>
485.5057

> <STRUCTURE_ChemType>
defined organic

> <STRUCTURE_DefinedOrganicForm>
salt

> <STRUCTURE_IUPAC>
sodium (4-fluoro-2-{[(1S)-1-phenylpropyl]carbamoyl}phenyl)(quinolin-8-ylsulfonyl)azanide

> <STRUCTURE_SMILES>
[Na+].CC[C@H](NC(=O)c3cc(F)ccc3[N-]S(=O)(=O)c1cccc2cccnc12)c4ccccc4

> <STRUCTURE_SMILES_Desalt>
CC[C@H](NC(=O)c3cc(F)ccc3NS(=O)(=O)c1cccc2cccnc12)c4ccccc4

> <Substance_modify_yyyymmdd>
20130910

$$$$
