4784-40-1
ChemmineR-0915142007XD

 24 25  0  0  0  0  0  0  0  0  1 V2000
    3.4862   -6.0504    0.0000 S    0  0  0  0  0  0  0  0  0  0  0  0
    3.4862   -3.3421    0.0000 N    0  0  0  0  0  0  0  0  0  0  0  0
    4.6675   -5.3973    0.0000 C    0  0  0  0  0  0  0  0  0  0  0  0
    2.3145   -5.3973    0.0000 C    0  0  0  0  0  0  0  0  0  0  0  0
    4.6675   -4.0432    0.0000 C    0  0  0  0  0  0  0  0  0  0  0  0
    2.3145   -4.0432    0.0000 C    0  0  0  0  0  0  0  0  0  0  0  0
    2.8715   -6.9820    0.0000 O    0  0  0  0  0  0  0  0  0  0  0  0
    4.1585   -6.9820    0.0000 O    0  0  0  0  0  0  0  0  0  0  0  0
    3.4862   -2.0264    0.0000 C    0  0  0  0  0  0  0  0  0  0  0  0
    4.6675   -1.3541    0.0000 C    0  0  0  0  0  0  0  0  0  0  0  0
    5.8391   -2.0264    0.0000 C    0  0  0  0  0  0  0  0  0  0  0  0
    6.9820   -1.3541    0.0000 N    0  0  0  0  0  0  0  0  0  0  0  0
    5.8391   -6.0504    0.0000 C    0  0  0  0  0  0  0  0  0  0  0  0
    1.1717   -6.0504    0.0000 C    0  0  0  0  0  0  0  0  0  0  0  0
    1.1717   -3.3421    0.0000 C    0  0  0  0  0  0  0  0  0  0  0  0
    5.8391   -3.3421    0.0000 C    0  0  0  0  0  0  0  0  0  0  0  0
    4.6675    0.0000    0.0000 C    0  0  0  0  0  0  0  0  0  0  0  0
    6.9820    0.0000    0.0000 C    0  0  0  0  0  0  0  0  0  0  0  0
    8.1536   -2.0264    0.0000 C    0  0  0  0  0  0  0  0  0  0  0  0
    6.9820   -5.3973    0.0000 C    0  0  0  0  0  0  0  0  0  0  0  0
    0.0000   -5.3973    0.0000 C    0  0  0  0  0  0  0  0  0  0  0  0
    0.0000   -4.0432    0.0000 C    0  0  0  0  0  0  0  0  0  0  0  0
    6.9820   -4.0432    0.0000 C    0  0  0  0  0  0  0  0  0  0  0  0
    9.6038   -4.1585    0.0000 Cl   0  0  0  0  0  0  0  0  0  0  0  0
  1  3  1  0  0  0  0
  1  4  1  0  0  0  0
  1  7  2  0  0  0  0
  1  8  2  0  0  0  0
  2  6  1  0  0  0  0
  2  9  1  0  0  0  0
  2  5  1  0  0  0  0
  3  5  2  0  0  0  0
  3 13  1  0  0  0  0
  4  6  2  0  0  0  0
  4 14  1  0  0  0  0
  5 16  1  0  0  0  0
  6 15  1  0  0  0  0
  9 10  1  0  0  0  0
 10 11  1  0  0  0  0
 10 17  1  0  0  0  0
 11 12  1  0  0  0  0
 12 18  1  0  0  0  0
 12 19  1  0  0  0  0
 13 20  2  0  0  0  0
 14 21  2  0  0  0  0
 15 22  2  0  0  0  0
 16 23  2  0  0  0  0
 20 23  1  0  0  0  0
 21 22  1  0  0  0  0
M  END
> <ID>
13609

> <Formula>
C18H23ClN2O2S

> <FW>
366.9054 (330.4445+36.4609)

> <DSSTox_CID>
28538

> <DSSTox_RID>
82810

> <DSSTox_GSID>
48612

> <DSSTox_FileID_Sort>
7487

> <TS_ChemName>
Oxomemazine hydrochloride

> <TS_ChemName_Synonyms>
OXOMEMAZINE HCl

> <TS_CASRN>
4784-40-1

> <CASRN_ChemName_Relationship>
primary

> <TS_Description>
single chemical compound

> <ChemNote>
parent [3689-50-7]

> <STRUCTURE_Shown>
tested chemical

> <STRUCTURE_Formula>
C18H23ClN2O2S

> <STRUCTURE_MW>
366.9054

> <STRUCTURE_ChemType>
defined organic

> <STRUCTURE_DefinedOrganicForm>
complex

> <STRUCTURE_IUPAC>
3-(5,5-dioxido-10H-phenothiazin-10-yl)-N,N,2-trimethylpropan-1-amine hydrochloride (1:1)

> <STRUCTURE_SMILES>
Cl.CN(C)CC(C)CN2c1ccccc1S(=O)(=O)c3ccccc23

> <STRUCTURE_SMILES_Desalt>
CN(C)CC(C)CN2c1ccccc1S(=O)(=O)c3ccccc23

> <Substance_modify_yyyymmdd>
20111015

$$$$
