4789-68-8
ChemmineR-0915142007XD

 31 33  0  0  0  0  0  0  0  0  1 V2000
    8.9366   -3.9330    0.0000 O    0  0  0  0  0  0  0  0  0  0  0  0
    9.5921   -5.0692    0.0000 C    0  0  0  0  0  0  0  0  0  0  0  0
   10.9250   -5.0692    0.0000 O    0  0  0  0  0  0  0  0  0  0  0  0
    8.9366   -6.2272    0.0000 C    0  0  0  0  0  0  0  0  0  0  0  0
    7.6038   -6.2272    0.0000 C    0  0  0  0  0  0  0  0  0  0  0  0
    6.9483   -5.0692    0.0000 C    0  0  0  0  0  0  0  0  0  0  0  0
    5.6154   -5.0692    0.0000 O    0  0  0  0  0  0  0  0  0  0  0  0
    7.6038   -3.9330    0.0000 O    0  0  0  0  0  0  0  0  0  0  0  0
    3.5288   -2.2068    0.0000 C    0  0  0  0  0  0  0  0  0  0  0  0
    3.8128   -0.9177    0.0000 C    0  0  0  0  0  0  0  0  0  0  0  0
    4.3481   -3.2556    0.0000 C    0  0  0  0  0  0  0  0  0  0  0  0
    5.0255   -0.3387    0.0000 S    0  0  0  0  0  0  0  0  0  0  0  0
    5.6810   -3.2556    0.0000 C    0  0  0  0  0  0  0  0  0  0  0  0
    6.5113   -2.2068    0.0000 C    0  0  0  0  0  0  0  0  0  0  0  0
    6.2272   -0.9177    0.0000 C    0  0  0  0  0  0  0  0  0  0  0  0
    7.8004   -2.6111    0.0000 C    0  0  0  0  0  0  0  0  0  0  0  0
    8.7618   -1.7043    0.0000 C    0  0  0  0  0  0  0  0  0  0  0  0
    7.1996   -0.0109    0.0000 C    0  0  0  0  0  0  0  0  0  0  0  0
    8.4669   -0.4042    0.0000 C    0  0  0  0  0  0  0  0  0  0  0  0
    2.2505   -2.6001    0.0000 C    0  0  0  0  0  0  0  0  0  0  0  0
    1.2782   -1.7043    0.0000 C    0  0  0  0  0  0  0  0  0  0  0  0
    2.8514    0.0000    0.0000 C    0  0  0  0  0  0  0  0  0  0  0  0
    1.5732   -0.4042    0.0000 C    0  0  0  0  0  0  0  0  0  0  0  0
    0.0000   -2.0867    0.0000 Cl   0  0  0  0  0  0  0  0  0  0  0  0
    3.7691   -4.4574    0.0000 N    0  0  0  0  0  0  0  0  0  0  0  0
    4.5229   -5.5499    0.0000 C    0  0  0  0  0  0  0  0  0  0  0  0
    2.4581   -4.5557    0.0000 C    0  0  0  0  0  0  0  0  0  0  0  0
    3.9439   -6.7516    0.0000 C    0  0  0  0  0  0  0  0  0  0  0  0
    1.8791   -5.7465    0.0000 C    0  0  0  0  0  0  0  0  0  0  0  0
    2.6111   -6.8500    0.0000 N    0  0  0  0  0  0  0  0  0  0  0  0
    2.0320   -8.0517    0.0000 C    0  0  0  0  0  0  0  0  0  0  0  0
  1  2  1  0  0  0  0
  2  3  2  0  0  0  0
  2  4  1  0  0  0  0
  4  5  2  0  0  0  0
  5  6  1  0  0  0  0
  6  7  1  0  0  0  0
  6  8  2  0  0  0  0
  9 11  1  0  0  0  0
  9 20  1  0  0  0  0
  9 10  2  0  0  0  0
 10 12  1  0  0  0  0
 10 22  1  0  0  0  0
 11 13  1  0  0  0  0
 11 25  1  0  0  0  0
 12 15  1  0  0  0  0
 13 14  1  0  0  0  0
 14 16  1  0  0  0  0
 14 15  2  0  0  0  0
 15 18  1  0  0  0  0
 16 17  2  0  0  0  0
 17 19  1  0  0  0  0
 18 19  2  0  0  0  0
 20 21  2  0  0  0  0
 21 23  1  0  0  0  0
 21 24  1  0  0  0  0
 22 23  2  0  0  0  0
 25 26  1  0  0  0  0
 25 27  1  0  0  0  0
 26 28  1  0  0  0  0
 27 29  1  0  0  0  0
 28 30  1  0  0  0  0
 29 30  1  0  0  0  0
 30 31  1  0  0  0  0
M  END
> <ID>
11200

> <Formula>
C23H25ClN2O4S

> <FW>
460.9736 (116.0722+344.9014)

> <DSSTox_CID>
25791

> <DSSTox_RID>
81132

> <DSSTox_GSID>
45791

> <DSSTox_FileID_Sort>
5813

> <TS_ChemName>
Octoclothepine maleate

> <TS_ChemName_Synonyms>


> <TS_CASRN>
4789-68-8

> <CASRN_ChemName_Relationship>
primary

> <TS_Description>
single chemical compound

> <ChemNote>
stereochem; parent [13448-22-1]

> <STRUCTURE_Shown>
tested chemical

> <STRUCTURE_Formula>
C23H25ClN2O4S

> <STRUCTURE_MW>
460.9736

> <STRUCTURE_ChemType>
defined organic

> <STRUCTURE_DefinedOrganicForm>
complex

> <STRUCTURE_IUPAC>
1-(8-chloro-10,11-dihydrodibenzo[b,f]thiepin-10-yl)-4-methylpiperazine (2Z)-but-2-enedioate (1:1)

> <STRUCTURE_SMILES>
O=C(O)/C=C\C(=O)O.CN1CCN(CC1)C2Cc4ccccc4Sc3ccc(Cl)cc23

> <STRUCTURE_SMILES_Desalt>
CN1CCN(CC1)C2Cc4ccccc4Sc3ccc(Cl)cc23

> <Substance_modify_yyyymmdd>
20110902

$$$$
