479-13-0
ChemmineR-0915142007XD

 20 23  0  0  0  0  0  0  0  0  1 V2000
    5.9924   -2.2964    0.0000 C   0  0  0  0  0  0  0  0  0  0  0  0
    5.3254   -3.4555    0.0000 C   0  0  0  0  0  0  0  0  0  0  0  0
    6.2111   -4.4396    0.0000 O   0  0  0  0  0  0  0  0  0  0  0  0
    7.4249   -3.9038    0.0000 C   0  0  0  0  0  0  0  0  0  0  0  0
    7.2937   -2.5807    0.0000 C   0  0  0  0  0  0  0  0  0  0  0  0
    8.3653   -1.7934    0.0000 C   0  0  0  0  0  0  0  0  0  0  0  0
    9.5791   -2.3401    0.0000 C   0  0  0  0  0  0  0  0  0  0  0  0
    9.7213   -3.6633    0.0000 C   0  0  0  0  0  0  0  0  0  0  0  0
   10.9351   -4.1991    0.0000 O   0  0  0  0  0  0  0  0  0  0  0  0
    8.6387   -4.4396    0.0000 C   0  0  0  0  0  0  0  0  0  0  0  0
    3.9913   -3.4555    0.0000 C   0  0  0  0  0  0  0  0  0  0  0  0
    3.3243   -4.6037    0.0000 C   0  0  0  0  0  0  0  0  0  0  0  0
    2.0011   -4.6037    0.0000 C   0  0  0  0  0  0  0  0  0  0  0  0
    1.3341   -3.4555    0.0000 C   0  0  0  0  0  0  0  0  0  0  0  0
    2.0011   -2.2964    0.0000 C   0  0  0  0  0  0  0  0  0  0  0  0
    3.3243   -2.2964    0.0000 C   0  0  0  0  0  0  0  0  0  0  0  0
    3.9913   -1.1482    0.0000 O   0  0  0  0  0  0  0  0  0  0  0  0
    5.3254   -1.1482    0.0000 C   0  0  0  0  0  0  0  0  0  0  0  0
    5.9924    0.0000    0.0000 O   0  0  0  0  0  0  0  0  0  0  0  0
    0.0000   -3.4555    0.0000 O   0  0  0  0  0  0  0  0  0  0  0  0
  1  2  2  0  0  0  0
  1  5  1  0  0  0  0
  1 18  1  0  0  0  0
  2  3  1  0  0  0  0
  2 11  1  0  0  0  0
  3  4  1  0  0  0  0
  4  5  2  0  0  0  0
  4 10  1  0  0  0  0
  5  6  1  0  0  0  0
  6  7  2  0  0  0  0
  7  8  1  0  0  0  0
  8  9  1  0  0  0  0
  8 10  2  0  0  0  0
 11 12  1  0  0  0  0
 11 16  2  0  0  0  0
 12 13  2  0  0  0  0
 13 14  1  0  0  0  0
 14 15  2  0  0  0  0
 14 20  1  0  0  0  0
 15 16  1  0  0  0  0
 16 17  1  0  0  0  0
 17 18  1  0  0  0  0
 18 19  2  0  0  0  0
M  END
> <ID>
2200

> <Formula>
C15H8O5

> <FW>
268.221

> <DSSTox_CID>
2399

> <DSSTox_RID>
76572

> <DSSTox_GSID>
22399

> <DSSTox_FileID_Sort>
1256

> <TS_ChemName>
Coumestrol

> <TS_ChemName_Synonyms>


> <TS_CASRN>
479-13-0

> <CASRN_ChemName_Relationship>
primary

> <TS_Description>
single chemical compound

> <ChemNote>


> <STRUCTURE_Shown>
tested chemical

> <STRUCTURE_Formula>
C15H8O5

> <STRUCTURE_MW>
268.221

> <STRUCTURE_ChemType>
defined organic

> <STRUCTURE_DefinedOrganicForm>
parent

> <STRUCTURE_IUPAC>
3,9-dihydroxy-6H-[1]benzofuro[3,2-c]chromen-6-one

> <STRUCTURE_SMILES>
Oc2cc3OC(=O)c1c4ccc(O)cc4oc1c3cc2

> <STRUCTURE_SMILES_Desalt>
Oc2cc3OC(=O)c1c4ccc(O)cc4oc1c3cc2

> <Substance_modify_yyyymmdd>
20080429

$$$$
