479-18-5
ChemmineR-0915142007XD

 18 19  0  0  0  0  0  0  0  0  1 V2000
    2.1945   -1.2687    0.0000 N   0  0  0  0  0  0  0  0  0  0  0  0
    1.7830    0.0000    0.0000 C   0  0  0  0  0  0  0  0  0  0  0  0
    1.3030   -2.2545    0.0000 C   0  0  0  0  0  0  0  0  0  0  0  0
    0.0000   -1.9802    0.0000 O   0  0  0  0  0  0  0  0  0  0  0  0
    1.7145   -3.5146    0.0000 N   0  0  0  0  0  0  0  0  0  0  0  0
    0.8229   -4.5090    0.0000 C   0  0  0  0  0  0  0  0  0  0  0  0
    3.0089   -3.7975    0.0000 C   0  0  0  0  0  0  0  0  0  0  0  0
    3.9004   -2.8031    0.0000 C   0  0  0  0  0  0  0  0  0  0  0  0
    3.4889   -1.5430    0.0000 C   0  0  0  0  0  0  0  0  0  0  0  0
    4.3804   -0.5572    0.0000 O   0  0  0  0  0  0  0  0  0  0  0  0
    5.1177   -3.3432    0.0000 N   0  0  0  0  0  0  0  0  0  0  0  0
    6.2663   -2.6831    0.0000 C   0  0  0  0  0  0  0  0  0  0  0  0
    7.4236   -3.3432    0.0000 C   0  0  0  0  0  0  0  0  0  0  0  0
    7.4236   -4.6805    0.0000 O   0  0  0  0  0  0  0  0  0  0  0  0
    8.5723   -2.6831    0.0000 C   0  0  0  0  0  0  0  0  0  0  0  0
    8.5723   -1.3544    0.0000 O   0  0  0  0  0  0  0  0  0  0  0  0
    4.9805   -4.6719    0.0000 C   0  0  0  0  0  0  0  0  0  0  0  0
    3.6775   -4.9462    0.0000 N   0  0  0  0  0  0  0  0  0  0  0  0
  1  2  1  0  0  0  0
  1  3  1  0  0  0  0
  1  9  1  0  0  0  0
  3  4  2  0  0  0  0
  3  5  1  0  0  0  0
  5  6  1  0  0  0  0
  5  7  1  0  0  0  0
  7  8  2  0  0  0  0
  7 18  1  0  0  0  0
  8  9  1  0  0  0  0
  8 11  1  0  0  0  0
  9 10  2  0  0  0  0
 11 12  1  0  0  0  0
 11 17  1  0  0  0  0
 12 13  1  0  0  0  0
 13 14  1  0  0  0  0
 13 15  1  0  0  0  0
 15 16  1  0  0  0  0
 17 18  2  0  0  0  0
M  END
> <ID>
2678

> <Formula>
C10H14N4O4

> <FW>
254.2426

> <DSSTox_CID>
2975

> <DSSTox_RID>
76813

> <DSSTox_GSID>
22975

> <DSSTox_FileID_Sort>
1497

> <TS_ChemName>
Dyphylline

> <TS_ChemName_Synonyms>


> <TS_CASRN>
479-18-5

> <CASRN_ChemName_Relationship>
primary

> <TS_Description>
single chemical compound

> <ChemNote>


> <STRUCTURE_Shown>
tested chemical

> <STRUCTURE_Formula>
C10H14N4O4

> <STRUCTURE_MW>
254.2426

> <STRUCTURE_ChemType>
defined organic

> <STRUCTURE_DefinedOrganicForm>
parent

> <STRUCTURE_IUPAC>
7-(2,3-dihydroxypropyl)-1,3-dimethyl-3,7-dihydro-1H-purine-2,6-dione

> <STRUCTURE_SMILES>
OCC(O)Cn2cnc1c2C(=O)N(C)C(=O)N1C

> <STRUCTURE_SMILES_Desalt>
OCC(O)Cn2cnc1c2C(=O)N(C)C(=O)N1C

> <Substance_modify_yyyymmdd>
20080429

$$$$
