4792-15-8
ChemmineR-0915142007XD

 16 15  0  0  0  0  0  0  0  0  1 V2000
    1.1365    0.0000    0.0000 C   0  0  0  0  0  0  0  0  0  0  0  0
    2.3074   -0.6716    0.0000 C   0  0  0  0  0  0  0  0  0  0  0  0
    3.4439    0.0000    0.0000 O   0  0  0  0  0  0  0  0  0  0  0  0
    4.5976   -0.6716    0.0000 C   0  0  0  0  0  0  0  0  0  0  0  0
    5.7341    0.0000    0.0000 C   0  0  0  0  0  0  0  0  0  0  0  0
    6.8879   -0.6716    0.0000 O   0  0  0  0  0  0  0  0  0  0  0  0
    8.0244    0.0000    0.0000 C   0  0  0  0  0  0  0  0  0  0  0  0
    9.1953   -0.6716    0.0000 C   0  0  0  0  0  0  0  0  0  0  0  0
   10.3318    0.0000    0.0000 O   0  0  0  0  0  0  0  0  0  0  0  0
   11.4855   -0.6716    0.0000 C   0  0  0  0  0  0  0  0  0  0  0  0
   12.6220    0.0000    0.0000 C   0  0  0  0  0  0  0  0  0  0  0  0
   13.7757   -0.6716    0.0000 O   0  0  0  0  0  0  0  0  0  0  0  0
   14.9122    0.0000    0.0000 C   0  0  0  0  0  0  0  0  0  0  0  0
   16.0832   -0.6716    0.0000 C   0  0  0  0  0  0  0  0  0  0  0  0
    0.0000   -0.6716    0.0000 O   0  0  0  0  0  0  0  0  0  0  0  0
   17.2197    0.0000    0.0000 O   0  0  0  0  0  0  0  0  0  0  0  0
  1  2  1  0  0  0  0
  1 15  1  0  0  0  0
  2  3  1  0  0  0  0
  3  4  1  0  0  0  0
  4  5  1  0  0  0  0
  5  6  1  0  0  0  0
  6  7  1  0  0  0  0
  7  8  1  0  0  0  0
  8  9  1  0  0  0  0
  9 10  1  0  0  0  0
 10 11  1  0  0  0  0
 11 12  1  0  0  0  0
 12 13  1  0  0  0  0
 13 14  1  0  0  0  0
 14 16  1  0  0  0  0
M  END
> <ID>
5263

> <Formula>
C10H22O6

> <FW>
238.2781

> <DSSTox_CID>
7579

> <DSSTox_RID>
78510

> <DSSTox_GSID>
27579

> <DSSTox_FileID_Sort>
3193

> <TS_ChemName>
Pentaethylene glycol

> <TS_ChemName_Synonyms>
Pentaethylene glycol (3,6,9,12-Tetraoxatetradecane-1,14-diol)

> <TS_CASRN>
4792-15-8

> <CASRN_ChemName_Relationship>
primary

> <TS_Description>
single chemical compound

> <ChemNote>


> <STRUCTURE_Shown>
tested chemical

> <STRUCTURE_Formula>
C10H22O6

> <STRUCTURE_MW>
238.2781

> <STRUCTURE_ChemType>
defined organic

> <STRUCTURE_DefinedOrganicForm>
parent

> <STRUCTURE_IUPAC>
3,6,9,12-tetraoxatetradecane-1,14-diol

> <STRUCTURE_SMILES>
OCCOCCOCCOCCOCCO

> <STRUCTURE_SMILES_Desalt>
OCCOCCOCCOCCOCCO

> <Substance_modify_yyyymmdd>
20080429

$$$$
