479500-35-1
ChemmineR-0915142007XD

 11 10  0  0  0  0  0  0  0  0  2 V2000
    1.1801   -3.9744    0.0000 N    0  3  0  0  0  0  0  0  0  0  0  0
    2.2685   -4.7571    0.0000 C    0  0  0  0  0  0  0  0  0  0  0  0
    0.0978   -4.7571    0.0000 C    0  0  0  0  0  0  0  0  0  0  0  0
    1.8344   -6.0350    0.0000 C    0  0  0  0  0  0  0  0  0  0  0  0
    0.5136   -6.0350    0.0000 C    0  0  0  0  0  0  0  0  0  0  0  0
    1.1801   -2.6476    0.0000 C    0  0  0  0  0  0  0  0  0  0  0  0
    2.3174   -1.9933    0.0000 C    0  0  0  0  0  0  0  0  0  0  0  0
    2.3174   -0.6726    0.0000 C    0  0  0  0  0  0  0  0  0  0  0  0
    3.4669    0.0000    0.0000 C    0  0  0  0  0  0  0  0  0  0  0  0
    0.0000   -3.3874    0.0000 C    0  0  0  0  0  0  0  0  0  0  0  0
    6.1145   -3.0206    0.0000 Cl   0  5  0  0  0  0  0  0  0  0  0  0
  1  2  1  0  0  0  0
  1  3  1  0  0  0  0
  1  6  1  0  0  0  0
  1 10  1  0  0  0  0
  2  4  1  0  0  0  0
  3  5  1  0  0  0  0
  4  5  1  0  0  0  0
  6  7  1  0  0  0  0
  7  8  1  0  0  0  0
  8  9  1  0  0  0  0
M  END
> <ID>
6333

> <Formula>
C9H20ClN

> <FW>
177.7148 (142.2613+35.4535)

> <DSSTox_CID>
11460

> <DSSTox_RID>
78877

> <DSSTox_GSID>
31460

> <DSSTox_FileID_Sort>
3559

> <TS_ChemName>
1-Butyl-1-methylpyrrolidinium chloride

> <TS_ChemName_Synonyms>
1-Butyl-1-methylpyrrolidinium chloride (Ionic liquid)

> <TS_CASRN>
479500-35-1

> <CASRN_ChemName_Relationship>
primary

> <TS_Description>
single chemical compound

> <ChemNote>
ammonium; parent [223437-10-3]

> <STRUCTURE_Shown>
tested chemical

> <STRUCTURE_Formula>
C9H20ClN

> <STRUCTURE_MW>
177.7148

> <STRUCTURE_ChemType>
defined organic

> <STRUCTURE_DefinedOrganicForm>
salt

> <STRUCTURE_IUPAC>
1-butyl-1-methylpyrrolidinium chloride

> <STRUCTURE_SMILES>
[Cl-].CCCC[N+]1(C)CCCC1

> <STRUCTURE_SMILES_Desalt>
CCCC[N+]1(C)CCCC1

> <Substance_modify_yyyymmdd>
20080429

$$$$
