480-22-8
ChemmineR-0915142007XD

 17 19  0  0  0  0  0  0  0  0  1 V2000
    3.4559    0.0000    0.0000 O   0  0  0  0  0  0  0  0  0  0  0  0
    3.4559   -1.3271    0.0000 C   0  0  0  0  0  0  0  0  0  0  0  0
    4.6102   -1.9906    0.0000 C   0  0  0  0  0  0  0  0  0  0  0  0
    5.7576   -1.3271    0.0000 C   0  0  0  0  0  0  0  0  0  0  0  0
    5.7576    0.0000    0.0000 O   0  0  0  0  0  0  0  0  0  0  0  0
    6.9118   -1.9906    0.0000 C   0  0  0  0  0  0  0  0  0  0  0  0
    6.9118   -3.3246    0.0000 C   0  0  0  0  0  0  0  0  0  0  0  0
    5.7576   -3.9881    0.0000 C   0  0  0  0  0  0  0  0  0  0  0  0
    4.6102   -3.3246    0.0000 C   0  0  0  0  0  0  0  0  0  0  0  0
    3.4559   -3.9881    0.0000 C   0  0  0  0  0  0  0  0  0  0  0  0
    2.3016   -3.3246    0.0000 C   0  0  0  0  0  0  0  0  0  0  0  0
    1.1543   -3.9881    0.0000 C   0  0  0  0  0  0  0  0  0  0  0  0
    0.0000   -3.3246    0.0000 C   0  0  0  0  0  0  0  0  0  0  0  0
    0.0000   -1.9906    0.0000 C   0  0  0  0  0  0  0  0  0  0  0  0
    1.1543   -1.3271    0.0000 C   0  0  0  0  0  0  0  0  0  0  0  0
    1.1543    0.0000    0.0000 O   0  0  0  0  0  0  0  0  0  0  0  0
    2.3016   -1.9906    0.0000 C   0  0  0  0  0  0  0  0  0  0  0  0
  1  2  1  0  0  0  0
  2  3  2  0  0  0  0
  2 17  1  0  0  0  0
  3  4  1  0  0  0  0
  3  9  1  0  0  0  0
  4  5  1  0  0  0  0
  4  6  2  0  0  0  0
  6  7  1  0  0  0  0
  7  8  2  0  0  0  0
  8  9  1  0  0  0  0
  9 10  2  0  0  0  0
 10 11  1  0  0  0  0
 11 12  2  0  0  0  0
 11 17  1  0  0  0  0
 12 13  1  0  0  0  0
 13 14  2  0  0  0  0
 14 15  1  0  0  0  0
 15 16  1  0  0  0  0
 15 17  2  0  0  0  0
M  END
> <ID>
4608

> <Formula>
C14H10O3

> <FW>
226.2274

> <DSSTox_CID>
6231

> <DSSTox_RID>
78068

> <DSSTox_GSID>
26231

> <DSSTox_FileID_Sort>
2751

> <TS_ChemName>
1,8,9-Trihydroxyanthracene

> <TS_ChemName_Synonyms>


> <TS_CASRN>
480-22-8

> <CASRN_ChemName_Relationship>
primary

> <TS_Description>
single chemical compound

> <ChemNote>


> <STRUCTURE_Shown>
tested chemical

> <STRUCTURE_Formula>
C14H10O3

> <STRUCTURE_MW>
226.2274

> <STRUCTURE_ChemType>
defined organic

> <STRUCTURE_DefinedOrganicForm>
parent

> <STRUCTURE_IUPAC>
anthracene-1,8,9-triol

> <STRUCTURE_SMILES>
Oc2c3c(cc1cccc(O)c12)cccc3O

> <STRUCTURE_SMILES_Desalt>
Oc2c3c(cc1cccc(O)c12)cccc3O

> <Substance_modify_yyyymmdd>
20080429

$$$$
