480-63-7
ChemmineR-0915142007XD

 12 12  0  0  0  0  0  0  0  0  1 V2000
    4.6234   -1.3317    0.0000 C   0  0  0  0  0  0  0  0  0  0  0  0
    4.6234    0.0000    0.0000 O   0  0  0  0  0  0  0  0  0  0  0  0
    3.4704   -1.9946    0.0000 C   0  0  0  0  0  0  0  0  0  0  0  0
    5.7648   -1.9946    0.0000 O   0  0  0  0  0  0  0  0  0  0  0  0
    2.3117   -1.3317    0.0000 C   0  0  0  0  0  0  0  0  0  0  0  0
    3.4704   -3.3263    0.0000 C   0  0  0  0  0  0  0  0  0  0  0  0
    1.1587   -1.9946    0.0000 C   0  0  0  0  0  0  0  0  0  0  0  0
    2.3117   -3.9835    0.0000 C   0  0  0  0  0  0  0  0  0  0  0  0
    1.1587   -3.3263    0.0000 C   0  0  0  0  0  0  0  0  0  0  0  0
    2.3117    0.0000    0.0000 C   0  0  0  0  0  0  0  0  0  0  0  0
    0.0000   -3.9835    0.0000 C   0  0  0  0  0  0  0  0  0  0  0  0
    4.6234   -3.9835    0.0000 C   0  0  0  0  0  0  0  0  0  0  0  0
  1  2  2  0  0  0  0
  1  3  1  0  0  0  0
  1  4  1  0  0  0  0
  3  5  2  0  0  0  0
  3  6  1  0  0  0  0
  5  7  1  0  0  0  0
  5 10  1  0  0  0  0
  6  8  2  0  0  0  0
  6 12  1  0  0  0  0
  7  9  2  0  0  0  0
  8  9  1  0  0  0  0
  9 11  1  0  0  0  0
M  END
> <ID>
13262

> <Formula>
C10H12O2

> <FW>
164.2011

> <DSSTox_CID>
28175

> <DSSTox_RID>
82735

> <DSSTox_GSID>
48200

> <DSSTox_FileID_Sort>
7412

> <TS_ChemName>
2,4,6-Trimethylbenzoic acid

> <TS_ChemName_Synonyms>


> <TS_CASRN>
480-63-7

> <CASRN_ChemName_Relationship>
primary

> <TS_Description>
single chemical compound

> <ChemNote>


> <STRUCTURE_Shown>
tested chemical

> <STRUCTURE_Formula>
C10H12O2

> <STRUCTURE_MW>
164.2011

> <STRUCTURE_ChemType>
defined organic

> <STRUCTURE_DefinedOrganicForm>
parent

> <STRUCTURE_IUPAC>
2,4,6-trimethylbenzoic acid

> <STRUCTURE_SMILES>
Cc1cc(C)cc(C)c1C(O)=O

> <STRUCTURE_SMILES_Desalt>
Cc1cc(C)cc(C)c1C(O)=O

> <Substance_modify_yyyymmdd>
20110901

$$$$
