4800-94-6
ChemmineR-0915142007XD

 30 30  0  0  1  0  0  0  0  0  2 V2000
    8.2721   -4.7220    0.0000 N    0  0  0  0  0  0  0  0  0  0  0  0
    8.2721   -3.3663    0.0000 C    0  0  0  0  0  0  0  0  0  0  0  0
    6.9394   -4.7220    0.0000 C    0  0  0  0  0  0  0  0  0  0  0  0
    6.9394   -3.3663    0.0000 C    0  0  0  0  0  0  0  0  0  0  0  0
    9.5474   -5.1241    0.0000 C    0  0  0  0  0  0  0  0  0  0  0  0
    9.5474   -2.9642    0.0000 S    0  0  0  0  0  0  0  0  0  0  0  0
   10.3286   -4.0441    0.0000 C    0  0  0  0  0  0  0  0  0  0  0  0
    4.6301   -3.3663    0.0000 C    0  0  0  0  0  0  0  0  0  0  0  0
    5.7905   -2.7229    0.0000 N    0  0  0  0  0  0  0  0  0  0  0  0
    3.4812   -2.7229    0.0000 C    0  0  0  0  0  0  0  0  0  0  0  0
    9.9495   -6.3764    0.0000 C    0  0  0  0  0  0  0  0  0  0  0  0
    3.4812   -1.3902    0.0000 C    0  0  0  0  0  0  0  0  0  0  0  0
    6.0088   -5.6526    0.0000 O    0  0  0  0  0  0  0  0  0  0  0  0
    4.6301   -4.7220    0.0000 O    0  0  0  0  0  0  0  0  0  0  0  0
    2.3093   -3.3663    0.0000 C    0  0  0  0  0  0  0  0  0  0  0  0
   11.2593   -6.6636    0.0000 O    0  0  0  0  0  0  0  0  0  0  0  0
    2.3093   -0.7123    0.0000 O    0  0  0  0  0  0  0  0  0  0  0  0
    9.0648   -7.3760    0.0000 O    0  5  0  0  0  0  0  0  0  0  0  0
    4.6301   -0.7123    0.0000 O    0  5  0  0  0  0  0  0  0  0  0  0
   11.4890   -4.7220    0.0000 C    0  0  0  0  0  0  0  0  0  0  0  0
   11.4890   -3.3663    0.0000 C    0  0  0  0  0  0  0  0  0  0  0  0
    2.3093   -4.7220    0.0000 C    0  0  0  0  0  0  0  0  0  0  0  0
    1.1604   -2.7229    0.0000 C    0  0  0  0  0  0  0  0  0  0  0  0
    0.0000   -3.3663    0.0000 C    0  0  0  0  0  0  0  0  0  0  0  0
    1.1604   -5.3884    0.0000 C    0  0  0  0  0  0  0  0  0  0  0  0
    0.0000   -4.7220    0.0000 C    0  0  0  0  0  0  0  0  0  0  0  0
    8.2721   -2.0336    0.0000 H    0  0  0  0  0  0  0  0  0  0  0  0
    6.9624   -2.2059    0.0000 H    0  0  0  0  0  0  0  0  0  0  0  0
    3.6190    0.0000    0.0000 Na   0  3  0  0  0  0  0  0  0  0  0  0
   10.5814   -8.0423    0.0000 Na   0  3  0  0  0  0  0  0  0  0  0  0
  1  2  1  0  0  0  0
  1  3  1  0  0  0  0
  1  5  1  0  0  0  0
  2  6  1  0  0  0  0
  2  4  1  0  0  0  0
  2 27  1  6  0  0  0
  3  4  1  0  0  0  0
  3 13  2  0  0  0  0
  4  9  1  1  0  0  0
  4 28  1  6  0  0  0
  5  7  1  0  0  0  0
  5 11  1  6  0  0  0
  6  7  1  0  0  0  0
  7 20  1  0  0  0  0
  7 21  1  0  0  0  0
  8  9  1  0  0  0  0
  8 10  1  0  0  0  0
  8 14  2  0  0  0  0
 10 12  1  0  0  0  0
 10 15  1  0  0  0  0
 11 16  2  0  0  0  0
 11 18  1  0  0  0  0
 12 17  2  0  0  0  0
 12 19  1  0  0  0  0
 15 22  2  0  0  0  0
 15 23  1  0  0  0  0
 22 25  1  0  0  0  0
 23 24  2  0  0  0  0
 24 26  1  0  0  0  0
 25 26  2  0  0  0  0
M  END
> <ID>
11221

> <Formula>
C17H16N2Na2O6S

> <FW>
422.3633 (376.3848+22.9892+22.9892)

> <DSSTox_CID>
25820

> <DSSTox_RID>
81153

> <DSSTox_GSID>
45820

> <DSSTox_FileID_Sort>
5834

> <TS_ChemName>
Carbenicillin disodium

> <TS_ChemName_Synonyms>


> <TS_CASRN>
4800-94-6

> <CASRN_ChemName_Relationship>
primary

> <TS_Description>
single chemical compound

> <ChemNote>
stereochem;  parent [4697-36-3 ]

> <STRUCTURE_Shown>
tested chemical

> <STRUCTURE_Formula>
C17H16N2Na2O6S

> <STRUCTURE_MW>
422.3633

> <STRUCTURE_ChemType>
defined organic

> <STRUCTURE_DefinedOrganicForm>
salt

> <STRUCTURE_IUPAC>
disodium (2S,5R,6R)-6-{[carboxylato(phenyl)acetyl]amino}-3,3-dimethyl-7-oxo-4-thia-1-azabicyclo[3.2.0]heptane-2-carboxylate

> <STRUCTURE_SMILES>
[Na+].[Na+].O=C([O-])[C@@H]2N3C(=O)[C@@H](NC(=O)C(c1ccccc1)C([O-])=O)[C@H]3SC2(C)C

> <STRUCTURE_SMILES_Desalt>
OC(=O)[C@@H]2N3C(=O)[C@@H](NC(=O)C(c1ccccc1)C(=O)O)[C@H]3SC2(C)C

> <Substance_modify_yyyymmdd>
20110909

$$$$
