481-49-2
ChemmineR-0915142007XD

 47 54  0  0  1  0  0  0  0  0  1 V2000
    5.9022   -2.4785    0.0000 C   0  0  0  0  0  0  0  0  0  0  0  0
    4.7840   -1.8790    0.0000 C   0  0  0  0  0  0  0  0  0  0  0  0
    6.9973   -1.8790    0.0000 C   0  0  0  0  0  0  0  0  0  0  0  0
    5.9022   -4.2768    0.0000 O   0  0  0  0  0  0  0  0  0  0  0  0
    4.7840   -0.6110    0.0000 C   0  0  0  0  0  0  0  0  0  0  0  0
    3.6889   -2.4785    0.0000 C   0  0  0  0  0  0  0  0  0  0  0  0
    6.9973   -0.6110    0.0000 C   0  0  0  0  0  0  0  0  0  0  0  0
    8.1962   -2.2479    0.0000 O   0  0  0  0  0  0  0  0  0  0  0  0
    6.9973   -5.8676    0.0000 C   0  0  0  0  0  0  0  0  0  0  0  0
    5.9022    0.0000    0.0000 C   0  0  0  0  0  0  0  0  0  0  0  0
    3.6889    0.0000    0.0000 C   0  0  0  0  0  0  0  0  0  0  0  0
    3.6889   -3.7004    0.0000 C   0  0  0  0  0  0  0  0  0  0  0  0
    2.5822   -1.8790    0.0000 N   0  0  0  0  0  0  0  0  0  0  0  0
    8.1962   -0.2190    0.0000 O   0  0  0  0  0  0  0  0  0  0  0  0
    8.9570   -1.2680    0.0000 C   0  0  0  0  0  0  0  0  0  0  0  0
    6.9973   -7.1587    0.0000 C   0  0  0  0  0  0  0  0  0  0  0  0
    8.1155   -5.2105    0.0000 C   0  0  0  0  0  0  0  0  0  0  0  0
    2.5822   -0.6110    0.0000 C   0  0  0  0  0  0  0  0  0  0  0  0
    2.8473   -4.7033    0.0000 C   0  0  0  0  0  0  0  0  0  0  0  0
    1.4525   -2.4785    0.0000 C   0  0  0  0  0  0  0  0  0  0  0  0
    8.1155   -7.7812    0.0000 C   0  0  0  0  0  0  0  0  0  0  0  0
    9.1991   -5.8676    0.0000 C   0  0  0  0  0  0  0  0  0  0  0  0
    8.1155   -3.9655    0.0000 O   0  0  0  0  0  0  0  0  0  0  0  0
    1.5447   -4.7033    0.0000 C   0  0  0  0  0  0  0  0  0  0  0  0
    3.4698   -5.8215    0.0000 C   0  0  0  0  0  0  0  0  0  0  0  0
    8.1155   -9.0492    0.0000 C   0  0  0  0  0  0  0  0  0  0  0  0
    9.1991   -7.1587    0.0000 C   0  0  0  0  0  0  0  0  0  0  0  0
    9.1991   -3.2969    0.0000 C   0  0  0  0  0  0  0  0  0  0  0  0
    0.9337   -5.8215    0.0000 C   0  0  0  0  0  0  0  0  0  0  0  0
    2.8473   -6.9282    0.0000 C   0  0  0  0  0  0  0  0  0  0  0  0
    6.6169  -10.4441    0.0000 C   0  0  0  0  0  0  0  0  0  0  0  0
    9.1991   -9.7294    0.0000 N   0  0  0  0  0  0  0  0  0  0  0  0
   10.3404   -7.7812    0.0000 C   0  0  0  0  0  0  0  0  0  0  0  0
    1.5447   -6.9282    0.0000 C   0  0  0  0  0  0  0  0  0  0  0  0
    4.5073  -10.4441    0.0000 C   0  0  0  0  0  0  0  0  0  0  0  0
   10.3404   -9.0492    0.0000 C   0  0  0  0  0  0  0  0  0  0  0  0
    9.1991  -11.0090    0.0000 C   0  0  0  0  0  0  0  0  0  0  0  0
    1.3026   -8.2538    0.0000 O   0  0  0  0  0  0  0  0  0  0  0  0
    3.8503   -9.3259    0.0000 C   0  0  0  0  0  0  0  0  0  0  0  0
    3.8503  -11.5277    0.0000 C   0  0  0  0  0  0  0  0  0  0  0  0
    2.5822   -9.3259    0.0000 C   0  0  0  0  0  0  0  0  0  0  0  0
    2.5822  -11.5277    0.0000 C   0  0  0  0  0  0  0  0  0  0  0  0
    1.9136  -10.4441    0.0000 C   0  0  0  0  0  0  0  0  0  0  0  0
    0.6225  -10.4441    0.0000 O   0  0  0  0  0  0  0  0  0  0  0  0
    0.0000  -11.5277    0.0000 C   0  0  0  0  0  0  0  0  0  0  0  0
    3.6889   -1.2335    0.0000 H   0  0  0  0  0  0  0  0  0  0  0  0
    8.1155  -10.1559    0.0000 H   0  0  0  0  0  0  0  0  0  0  0  0
  1  2  1  0  0  0  0
  1  3  2  0  0  0  0
  1  4  1  0  0  0  0
  2  5  2  0  0  0  0
  2  6  1  0  0  0  0
  3  7  1  0  0  0  0
  3  8  1  0  0  0  0
  4  9  1  0  0  0  0
  5 10  1  0  0  0  0
  5 11  1  0  0  0  0
  6 12  1  0  0  0  0
  6 13  1  0  0  0  0
  6 46  1  1  0  0  0
  7 14  1  0  0  0  0
  7 10  2  0  0  0  0
  8 15  1  0  0  0  0
  9 16  2  0  0  0  0
  9 17  1  0  0  0  0
 11 18  1  0  0  0  0
 12 19  1  0  0  0  0
 13 20  1  0  0  0  0
 13 18  1  0  0  0  0
 14 15  1  0  0  0  0
 16 21  1  0  0  0  0
 17 22  2  0  0  0  0
 17 23  1  0  0  0  0
 19 24  2  0  0  0  0
 19 25  1  0  0  0  0
 21 26  1  0  0  0  0
 21 27  2  0  0  0  0
 22 27  1  0  0  0  0
 23 28  1  0  0  0  0
 24 29  1  0  0  0  0
 25 30  2  0  0  0  0
 26 31  1  0  0  0  0
 26 32  1  0  0  0  0
 26 47  1  1  0  0  0
 27 33  1  0  0  0  0
 29 34  2  0  0  0  0
 30 34  1  0  0  0  0
 31 35  1  0  0  0  0
 32 36  1  0  0  0  0
 32 37  1  0  0  0  0
 33 36  1  0  0  0  0
 34 38  1  0  0  0  0
 35 39  2  0  0  0  0
 35 40  1  0  0  0  0
 38 41  1  0  0  0  0
 39 41  1  0  0  0  0
 40 42  2  0  0  0  0
 41 43  2  0  0  0  0
 42 43  1  0  0  0  0
 43 44  1  0  0  0  0
 44 45  1  0  0  0  0
M  END
> <ID>
11321

> <Formula>
C37H38N2O6

> <FW>
606.7074

> <DSSTox_CID>
25957

> <DSSTox_RID>
81253

> <DSSTox_GSID>
45957

> <DSSTox_FileID_Sort>
5934

> <TS_ChemName>
Cepharanthine

> <TS_ChemName_Synonyms>


> <TS_CASRN>
481-49-2

> <CASRN_ChemName_Relationship>
primary

> <TS_Description>
single chemical compound

> <ChemNote>
stereochem

> <STRUCTURE_Shown>
tested chemical

> <STRUCTURE_Formula>
C37H38N2O6

> <STRUCTURE_MW>
606.7074

> <STRUCTURE_ChemType>
defined organic

> <STRUCTURE_DefinedOrganicForm>
parent

> <STRUCTURE_IUPAC>
(14S,27R)-22,33-dimethoxy-13,28-dimethyl-2,5,7,20-tetraoxa-13,28-diazaoctacyclo[25.6.2.2~16,19~.1~3,10~.1~21,25~.0~4,8~.0~14,39~.0~31,35~]nonatriaconta-1(33),3,8,10(39),16,18,21(36),22,24,31,34,37-dodecaene

> <STRUCTURE_SMILES>
COc8ccc1cc8Oc7ccc(C[C@H]4c5c(Oc3cc2c(CCN(C)[C@@H]2C1)cc3OC)c6OCOc6cc5CCN4C)cc7

> <STRUCTURE_SMILES_Desalt>
COc8ccc1cc8Oc7ccc(C[C@H]4c5c(Oc3cc2c(CCN(C)[C@@H]2C1)cc3OC)c6OCOc6cc5CCN4C)cc7

> <Substance_modify_yyyymmdd>
20110930

$$$$
