481-72-1
ChemmineR-0915142007XD

 20 22  0  0  0  0  0  0  0  0  1 V2000
    3.4611   -1.3312    0.0000 C   0  0  0  0  0  0  0  0  0  0  0  0
    3.4611   -3.9855    0.0000 C   0  0  0  0  0  0  0  0  0  0  0  0
    2.3074   -3.3320    0.0000 C   0  0  0  0  0  0  0  0  0  0  0  0
    4.6067   -2.0008    0.0000 C   0  0  0  0  0  0  0  0  0  0  0  0
    4.6067   -3.3320    0.0000 C   0  0  0  0  0  0  0  0  0  0  0  0
    2.3074   -2.0008    0.0000 C   0  0  0  0  0  0  0  0  0  0  0  0
    1.1537   -3.9855    0.0000 C   0  0  0  0  0  0  0  0  0  0  0  0
    1.1537   -1.3312    0.0000 C   0  0  0  0  0  0  0  0  0  0  0  0
    5.7604   -3.9855    0.0000 C   0  0  0  0  0  0  0  0  0  0  0  0
    5.7604   -1.3312    0.0000 C   0  0  0  0  0  0  0  0  0  0  0  0
    0.0000   -2.0008    0.0000 C   0  0  0  0  0  0  0  0  0  0  0  0
    6.9141   -3.3320    0.0000 C   0  0  0  0  0  0  0  0  0  0  0  0
    6.9141   -1.9847    0.0000 C   0  0  0  0  0  0  0  0  0  0  0  0
    0.0000   -3.3320    0.0000 C   0  0  0  0  0  0  0  0  0  0  0  0
    3.4611   -5.3167    0.0000 O   0  0  0  0  0  0  0  0  0  0  0  0
    3.4611    0.0000    0.0000 O   0  0  0  0  0  0  0  0  0  0  0  0
    5.7604   -5.3167    0.0000 O   0  0  0  0  0  0  0  0  0  0  0  0
    1.1537   -5.3167    0.0000 O   0  0  0  0  0  0  0  0  0  0  0  0
    8.0678   -1.3312    0.0000 C   0  0  0  0  0  0  0  0  0  0  0  0
    8.0678    0.0000    0.0000 O   0  0  0  0  0  0  0  0  0  0  0  0
  1  4  1  0  0  0  0
  1  6  1  0  0  0  0
  1 16  2  0  0  0  0
  2  3  1  0  0  0  0
  2  5  1  0  0  0  0
  2 15  2  0  0  0  0
  3  6  2  0  0  0  0
  3  7  1  0  0  0  0
  4  5  2  0  0  0  0
  4 10  1  0  0  0  0
  5  9  1  0  0  0  0
  6  8  1  0  0  0  0
  7 14  2  0  0  0  0
  7 18  1  0  0  0  0
  8 11  2  0  0  0  0
  9 12  2  0  0  0  0
  9 17  1  0  0  0  0
 10 13  2  0  0  0  0
 11 14  1  0  0  0  0
 12 13  1  0  0  0  0
 13 19  1  0  0  0  0
 19 20  1  0  0  0  0
M  END
> <ID>
6281

> <Formula>
C15H10O5

> <FW>
270.2369

> <DSSTox_CID>
10695

> <DSSTox_RID>
78855

> <DSSTox_GSID>
30695

> <DSSTox_FileID_Sort>
3537

> <TS_ChemName>
Aloe-emodin

> <TS_ChemName_Synonyms>


> <TS_CASRN>
481-72-1

> <CASRN_ChemName_Relationship>
primary

> <TS_Description>
single chemical compound

> <ChemNote>


> <STRUCTURE_Shown>
tested chemical

> <STRUCTURE_Formula>
C15H10O5

> <STRUCTURE_MW>
270.2369

> <STRUCTURE_ChemType>
defined organic

> <STRUCTURE_DefinedOrganicForm>
parent

> <STRUCTURE_IUPAC>
1,8-dihydroxy-3-(hydroxymethyl)anthracene-9,10-dione

> <STRUCTURE_SMILES>
Oc3cccc2C(=O)c1cc(cc(O)c1C(=O)c23)CO

> <STRUCTURE_SMILES_Desalt>
Oc3cccc2C(=O)c1cc(cc(O)c1C(=O)c23)CO

> <Substance_modify_yyyymmdd>
20080429

$$$$
