481-06-1
ChemmineR-0915142007XD

 20 22  0  0  1  0  0  0  0  0  1 V2000
    4.6201   -2.6079    0.0000 C   0  0  0  0  0  0  0  0  0  0  0  0
    3.4610   -3.2518    0.0000 C   0  0  0  0  0  0  0  0  0  0  0  0
    5.7791   -3.2518    0.0000 C   0  0  0  0  0  0  0  0  0  0  0  0
    4.8937   -1.3039    0.0000 O   0  0  0  0  0  0  0  0  0  0  0  0
    3.4610   -4.5879    0.0000 C   0  0  0  0  0  0  0  0  0  0  0  0
    2.3181   -2.6079    0.0000 C   0  0  0  0  0  0  0  0  0  0  0  0
    5.7791   -4.5879    0.0000 C   0  0  0  0  0  0  0  0  0  0  0  0
    6.7611   -2.3825    0.0000 C   0  0  0  0  0  0  0  0  0  0  0  0
    6.2138   -1.1590    0.0000 C   0  0  0  0  0  0  0  0  0  0  0  0
    4.6201   -5.2640    0.0000 C   0  0  0  0  0  0  0  0  0  0  0  0
    2.3181   -5.2640    0.0000 C   0  0  0  0  0  0  0  0  0  0  0  0
    3.4610   -5.9240    0.0000 C   0  0  0  0  0  0  0  0  0  0  0  0
    1.1590   -3.2518    0.0000 C   0  0  0  0  0  0  0  0  0  0  0  0
    2.3181   -1.2717    0.0000 C   0  0  0  0  0  0  0  0  0  0  0  0
    8.0489   -2.6561    0.0000 C   0  0  0  0  0  0  0  0  0  0  0  0
    6.8899    0.0000    0.0000 O   0  0  0  0  0  0  0  0  0  0  0  0
    1.1590   -4.5879    0.0000 C   0  0  0  0  0  0  0  0  0  0  0  0
    0.0000   -2.6079    0.0000 O   0  0  0  0  0  0  0  0  0  0  0  0
    5.7791   -1.9317    0.0000 H   0  0  0  0  0  0  0  0  0  0  0  0
    4.6201   -3.9279    0.0000 H   0  0  0  0  0  0  0  0  0  0  0  0
  1  2  1  0  0  0  0
  1  3  1  0  0  0  0
  1  4  1  0  0  0  0
  1 20  1  6  0  0  0
  2  5  1  0  0  0  0
  2  6  2  0  0  0  0
  3  7  1  0  0  0  0
  3  8  1  0  0  0  0
  3 19  1  1  0  0  0
  4  9  1  0  0  0  0
  5 10  1  0  0  0  0
  5 11  1  0  0  0  0
  5 12  1  6  0  0  0
  6 13  1  0  0  0  0
  6 14  1  0  0  0  0
  7 10  1  0  0  0  0
  8 15  1  1  0  0  0
  8  9  1  0  0  0  0
  9 16  2  0  0  0  0
 11 17  2  0  0  0  0
 13 18  2  0  0  0  0
 13 17  1  0  0  0  0
M  END
> <ID>
10865

> <Formula>
C15H18O3

> <FW>
246.3016

> <DSSTox_CID>
25312

> <DSSTox_RID>
80795

> <DSSTox_GSID>
45312

> <DSSTox_FileID_Sort>
5476

> <TS_ChemName>
alpha-Santonin

> <TS_ChemName_Synonyms>


> <TS_CASRN>
481-06-1

> <CASRN_ChemName_Relationship>
primary

> <TS_Description>
single chemical compound

> <ChemNote>
stereochem

> <STRUCTURE_Shown>
tested chemical

> <STRUCTURE_Formula>
C15H18O3

> <STRUCTURE_MW>
246.3016

> <STRUCTURE_ChemType>
defined organic

> <STRUCTURE_DefinedOrganicForm>
parent

> <STRUCTURE_IUPAC>
(3S,3aS,5aS,9bS)-3,5a,9-trimethyl-3a,5,5a,9b-tetrahydronaphtho[1,2-b]furan-2,8(3H,4H)-dione

> <STRUCTURE_SMILES>
O=C1C=C[C@]2(C)CC[C@H]3[C@H](C)C(=O)O[C@@H]3C2=C1C

> <STRUCTURE_SMILES_Desalt>
O=C1C=C[C@]2(C)CC[C@H]3[C@H](C)C(=O)O[C@@H]3C2=C1C

> <Substance_modify_yyyymmdd>
20110720

$$$$
