481-40-3
ChemmineR-0915142007XD

 13 14  0  0  0  0  0  0  0  0  1 V2000
    2.3108   -2.0073    0.0000 C   0  0  0  0  0  0  0  0  0  0  0  0
    2.3108   -3.3332    0.0000 C   0  0  0  0  0  0  0  0  0  0  0  0
    1.1554   -1.3311    0.0000 C   0  0  0  0  0  0  0  0  0  0  0  0
    1.1554   -3.9934    0.0000 C   0  0  0  0  0  0  0  0  0  0  0  0
    3.4503   -3.9934    0.0000 C   0  0  0  0  0  0  0  0  0  0  0  0
    3.4503   -1.3311    0.0000 C   0  0  0  0  0  0  0  0  0  0  0  0
    4.6004   -1.9914    0.0000 C   0  0  0  0  0  0  0  0  0  0  0  0
    4.6004   -3.3332    0.0000 C   0  0  0  0  0  0  0  0  0  0  0  0
    0.0000   -3.3332    0.0000 C   0  0  0  0  0  0  0  0  0  0  0  0
    0.0000   -2.0073    0.0000 C   0  0  0  0  0  0  0  0  0  0  0  0
    3.4503    0.0000    0.0000 O   0  0  0  0  0  0  0  0  0  0  0  0
    3.4503   -5.3245    0.0000 O   0  0  0  0  0  0  0  0  0  0  0  0
    1.1554   -5.3245    0.0000 O   0  0  0  0  0  0  0  0  0  0  0  0
  1  2  2  0  0  0  0
  1  3  1  0  0  0  0
  1  6  1  0  0  0  0
  2  4  1  0  0  0  0
  2  5  1  0  0  0  0
  3 10  2  0  0  0  0
  4  9  2  0  0  0  0
  4 13  1  0  0  0  0
  5  8  2  0  0  0  0
  5 12  1  0  0  0  0
  6  7  2  0  0  0  0
  6 11  1  0  0  0  0
  7  8  1  0  0  0  0
  9 10  1  0  0  0  0
M  END
> <ID>
6584

> <Formula>
C10H8O3

> <FW>
176.1687

> <DSSTox_CID>
12759

> <DSSTox_RID>
79037

> <DSSTox_GSID>
32759

> <DSSTox_FileID_Sort>
3719

> <TS_ChemName>
1,4,5-Trihydroxynaphthalene

> <TS_ChemName_Synonyms>


> <TS_CASRN>
481-40-3

> <CASRN_ChemName_Relationship>
primary

> <TS_Description>
single chemical compound

> <ChemNote>


> <STRUCTURE_Shown>
tested chemical

> <STRUCTURE_Formula>
C10H8O3

> <STRUCTURE_MW>
176.1687

> <STRUCTURE_ChemType>
defined organic

> <STRUCTURE_DefinedOrganicForm>
parent

> <STRUCTURE_IUPAC>
naphthalene-1,4,5-triol

> <STRUCTURE_SMILES>
Oc1ccc(O)c2cccc(O)c12

> <STRUCTURE_SMILES_Desalt>
Oc1ccc(O)c2cccc(O)c12

> <Substance_modify_yyyymmdd>
20080429

$$$$
