4812-20-8
ChemmineR-0915142007XD

 11 11  0  0  0  0  0  0  0  0  1 V2000
    1.1520   -1.3305    0.0000 C   0  0  0  0  0  0  0  0  0  0  0  0
    1.1520    0.0000    0.0000 O   0  0  0  0  0  0  0  0  0  0  0  0
    2.3040   -2.0045    0.0000 C   0  0  0  0  0  0  0  0  0  0  0  0
    0.0000   -2.0045    0.0000 C   0  0  0  0  0  0  0  0  0  0  0  0
    0.0000   -3.3292    0.0000 C   0  0  0  0  0  0  0  0  0  0  0  0
    2.3040   -3.3292    0.0000 C   0  0  0  0  0  0  0  0  0  0  0  0
    1.1520   -3.9859    0.0000 C   0  0  0  0  0  0  0  0  0  0  0  0
    3.4560   -1.3305    0.0000 O   0  0  0  0  0  0  0  0  0  0  0  0
    4.6079   -2.0045    0.0000 C   0  0  0  0  0  0  0  0  0  0  0  0
    5.7599   -1.3305    0.0000 C   0  0  0  0  0  0  0  0  0  0  0  0
    4.6079   -3.3292    0.0000 C   0  0  0  0  0  0  0  0  0  0  0  0
  1  2  1  0  0  0  0
  1  3  2  0  0  0  0
  1  4  1  0  0  0  0
  3  6  1  0  0  0  0
  3  8  1  0  0  0  0
  4  5  2  0  0  0  0
  5  7  1  0  0  0  0
  6  7  2  0  0  0  0
  8  9  1  0  0  0  0
  9 10  1  0  0  0  0
  9 11  1  0  0  0  0
M  END
> <ID>
8397

> <Formula>
C9H12O2

> <FW>
152.1904

> <DSSTox_CID>
21431

> <DSSTox_RID>
79731

> <DSSTox_GSID>
41431

> <DSSTox_FileID_Sort>
4413

> <TS_ChemName>
2-Isopropoxyphenol

> <TS_ChemName_Synonyms>


> <TS_CASRN>
4812-20-8

> <CASRN_ChemName_Relationship>
primary

> <TS_Description>
single chemical compound

> <ChemNote>


> <STRUCTURE_Shown>
tested chemical

> <STRUCTURE_Formula>
C9H12O2

> <STRUCTURE_MW>
152.1904

> <STRUCTURE_ChemType>
defined organic

> <STRUCTURE_DefinedOrganicForm>
parent

> <STRUCTURE_IUPAC>
2-(propan-2-yloxy)phenol

> <STRUCTURE_SMILES>
CC(C)Oc1ccccc1O

> <STRUCTURE_SMILES_Desalt>
CC(C)Oc1ccccc1O

> <Substance_modify_yyyymmdd>
20080825

$$$$
