482-44-0
ChemmineR-0915142007XD

 20 22  0  0  0  0  0  0  0  0  1 V2000
    3.4418   -6.0151    0.0000 C   0  0  0  0  0  0  0  0  0  0  0  0
    4.5998   -5.3316    0.0000 C   0  0  0  0  0  0  0  0  0  0  0  0
    5.7176   -6.0151    0.0000 C   0  0  0  0  0  0  0  0  0  0  0  0
    2.2758   -5.3316    0.0000 O   0  0  0  0  0  0  0  0  0  0  0  0
    3.4418   -7.3420    0.0000 C   0  0  0  0  0  0  0  0  0  0  0  0
    5.7176   -7.3420    0.0000 C   0  0  0  0  0  0  0  0  0  0  0  0
    1.1660   -6.0151    0.0000 C   0  0  0  0  0  0  0  0  0  0  0  0
    2.2758   -8.0255    0.0000 C   0  0  0  0  0  0  0  0  0  0  0  0
    4.5998   -8.0255    0.0000 C   0  0  0  0  0  0  0  0  0  0  0  0
    1.1660   -7.3420    0.0000 C   0  0  0  0  0  0  0  0  0  0  0  0
    7.0042   -5.6211    0.0000 O   0  0  0  0  0  0  0  0  0  0  0  0
    7.7682   -6.6585    0.0000 C   0  0  0  0  0  0  0  0  0  0  0  0
    7.0042   -7.7682    0.0000 C   0  0  0  0  0  0  0  0  0  0  0  0
    0.0000   -5.3316    0.0000 O   0  0  0  0  0  0  0  0  0  0  0  0
    6.9238   -1.3188    0.0000 C   0  0  0  0  0  0  0  0  0  0  0  0
    5.7176   -2.0024    0.0000 C   0  0  0  0  0  0  0  0  0  0  0  0
    4.5998   -4.0128    0.0000 O   0  0  0  0  0  0  0  0  0  0  0  0
    5.7176   -3.3292    0.0000 C   0  0  0  0  0  0  0  0  0  0  0  0
    6.9238    0.0000    0.0000 C   0  0  0  0  0  0  0  0  0  0  0  0
    8.0416   -2.0024    0.0000 C   0  0  0  0  0  0  0  0  0  0  0  0
  1  2  2  0  0  0  0
  1  4  1  0  0  0  0
  1  5  1  0  0  0  0
  2  3  1  0  0  0  0
  2 17  1  0  0  0  0
  3 11  1  0  0  0  0
  3  6  2  0  0  0  0
  4  7  1  0  0  0  0
  5  8  1  0  0  0  0
  5  9  2  0  0  0  0
  6  9  1  0  0  0  0
  6 13  1  0  0  0  0
  7 14  2  0  0  0  0
  7 10  1  0  0  0  0
  8 10  2  0  0  0  0
 11 12  1  0  0  0  0
 12 13  2  0  0  0  0
 15 16  2  0  0  0  0
 15 19  1  0  0  0  0
 15 20  1  0  0  0  0
 16 18  1  0  0  0  0
 17 18  1  0  0  0  0
M  END
> <ID>
13728

> <Formula>
C16H14O4

> <FW>
270.28

> <DSSTox_CID>
28663

> <DSSTox_RID>
82933

> <DSSTox_GSID>
48737

> <DSSTox_FileID_Sort>
7610

> <TS_ChemName>
Imperatorin

> <TS_ChemName_Synonyms>


> <TS_CASRN>
482-44-0

> <CASRN_ChemName_Relationship>
primary

> <TS_Description>
single chemical compound

> <ChemNote>


> <STRUCTURE_Shown>
tested chemical

> <STRUCTURE_Formula>
C16H14O4

> <STRUCTURE_MW>
270.28

> <STRUCTURE_ChemType>
defined organic

> <STRUCTURE_DefinedOrganicForm>
parent

> <STRUCTURE_IUPAC>
9-[(3-methylbut-2-en-1-yl)oxy]-7H-furo[3,2-g]chromen-7-one

> <STRUCTURE_SMILES>
C/C(C)=C\COc1c3occc3cc2C=CC(=O)Oc12

> <STRUCTURE_SMILES_Desalt>
C/C(C)=C\COc1c3occc3cc2C=CC(=O)Oc12

> <Substance_modify_yyyymmdd>
20100107

$$$$
