482-89-3
ChemmineR-0915142007XD

 20 23  0  0  0  0  0  0  0  0  1 V2000
    3.9941   -4.6765    0.0000 O   0  0  0  0  0  0  0  0  0  0  0  0
    3.5726   -3.4120    0.0000 C   0  0  0  0  0  0  0  0  0  0  0  0
    4.3654   -2.3382    0.0000 C   0  0  0  0  0  0  0  0  0  0  0  0
    3.5726   -1.2644    0.0000 N   0  0  0  0  0  0  0  0  0  0  0  0
    2.3081   -1.6659    0.0000 C   0  0  0  0  0  0  0  0  0  0  0  0
    2.3081   -2.9905    0.0000 C   0  0  0  0  0  0  0  0  0  0  0  0
    1.1541   -3.6629    0.0000 C   0  0  0  0  0  0  0  0  0  0  0  0
    0.0000   -2.9905    0.0000 C   0  0  0  0  0  0  0  0  0  0  0  0
    0.0000   -1.6659    0.0000 C   0  0  0  0  0  0  0  0  0  0  0  0
    1.1541   -1.0035    0.0000 C   0  0  0  0  0  0  0  0  0  0  0  0
    5.6800   -2.3382    0.0000 C   0  0  0  0  0  0  0  0  0  0  0  0
    6.4627   -3.4120    0.0000 N   0  0  0  0  0  0  0  0  0  0  0  0
    7.7272   -2.9905    0.0000 C   0  0  0  0  0  0  0  0  0  0  0  0
    7.7272   -1.6659    0.0000 C   0  0  0  0  0  0  0  0  0  0  0  0
    8.8812   -1.0035    0.0000 C   0  0  0  0  0  0  0  0  0  0  0  0
   10.0353   -1.6659    0.0000 C   0  0  0  0  0  0  0  0  0  0  0  0
   10.0353   -2.9905    0.0000 C   0  0  0  0  0  0  0  0  0  0  0  0
    8.8812   -3.6629    0.0000 C   0  0  0  0  0  0  0  0  0  0  0  0
    6.4627   -1.2644    0.0000 C   0  0  0  0  0  0  0  0  0  0  0  0
    6.0413    0.0000    0.0000 O   0  0  0  0  0  0  0  0  0  0  0  0
  1  2  2  0  0  0  0
  2  3  1  0  0  0  0
  2  6  1  0  0  0  0
  3  4  1  0  0  0  0
  3 11  2  0  0  0  0
  4  5  1  0  0  0  0
  5  6  2  0  0  0  0
  5 10  1  0  0  0  0
  6  7  1  0  0  0  0
  7  8  2  0  0  0  0
  8  9  1  0  0  0  0
  9 10  2  0  0  0  0
 11 12  1  0  0  0  0
 11 19  1  0  0  0  0
 12 13  1  0  0  0  0
 13 14  2  0  0  0  0
 13 18  1  0  0  0  0
 14 15  1  0  0  0  0
 14 19  1  0  0  0  0
 15 16  2  0  0  0  0
 16 17  1  0  0  0  0
 17 18  2  0  0  0  0
 19 20  2  0  0  0  0
M  END
> <ID>
4632

> <Formula>
C16H10N2O2

> <FW>
262.2628

> <DSSTox_CID>
6279

> <DSSTox_RID>
78086

> <DSSTox_GSID>
26279

> <DSSTox_FileID_Sort>
2769

> <TS_ChemName>
Indigo

> <TS_ChemName_Synonyms>
C.I Vat Blue 1 (Indigo) (C.I. 73000) (3H-Indol-3-one, 2-(1,3-dihydro-3-oxo-2H-indol-2-ylidene)-1,2-dihydro-)

> <TS_CASRN>
482-89-3

> <CASRN_ChemName_Relationship>
primary

> <TS_Description>
single chemical compound

> <ChemNote>
C.I. 73000

> <STRUCTURE_Shown>
tested chemical

> <STRUCTURE_Formula>
C16H10N2O2

> <STRUCTURE_MW>
262.2628

> <STRUCTURE_ChemType>
defined organic

> <STRUCTURE_DefinedOrganicForm>
parent

> <STRUCTURE_IUPAC>
(2E)-2-(3-oxo-1,3-dihydro-2H-indol-2-ylidene)-1,2-dihydro-3H-indol-3-one

> <STRUCTURE_SMILES>
O=C3c4ccccc4N/C3=C2/Nc1ccccc1C2=O

> <STRUCTURE_SMILES_Desalt>
O=C3c4ccccc4N/C3=C2/Nc1ccccc1C2=O

> <Substance_modify_yyyymmdd>
20080429

$$$$
