4822-44-0
ChemmineR-0915142007XD

 11 11  0  0  0  0  0  0  0  0  1 V2000
    2.3082   -1.3335    0.0000 C   0  0  0  0  0  0  0  0  0  0  0  0
    2.3082    0.0000    0.0000 O   0  0  0  0  0  0  0  0  0  0  0  0
    3.4623   -1.9853    0.0000 N   0  0  0  0  0  0  0  0  0  0  0  0
    1.1541   -1.9853    0.0000 C   0  0  0  0  0  0  0  0  0  0  0  0
    0.0000   -1.3335    0.0000 S   0  0  0  0  0  0  0  0  0  0  0  0
    4.6165   -3.9945    0.0000 C   0  0  0  0  0  0  0  0  0  0  0  0
    4.6165   -5.3221    0.0000 C   0  0  0  0  0  0  0  0  0  0  0  0
    3.4623   -3.3188    0.0000 C   0  0  0  0  0  0  0  0  0  0  0  0
    3.4623   -5.9799    0.0000 C   0  0  0  0  0  0  0  0  0  0  0  0
    2.3082   -3.9945    0.0000 C   0  0  0  0  0  0  0  0  0  0  0  0
    2.3082   -5.3221    0.0000 C   0  0  0  0  0  0  0  0  0  0  0  0
  1  2  2  0  0  0  0
  1  3  1  0  0  0  0
  1  4  1  0  0  0  0
  3  8  1  0  0  0  0
  4  5  1  0  0  0  0
  6  7  1  0  0  0  0
  6  8  2  0  0  0  0
  7  9  2  0  0  0  0
  8 10  1  0  0  0  0
  9 11  1  0  0  0  0
 10 11  2  0  0  0  0
M  END
> <ID>
13667

> <Formula>
C8H9NOS

> <FW>
167.2282

> <DSSTox_CID>
28598

> <DSSTox_RID>
82869

> <DSSTox_GSID>
48672

> <DSSTox_FileID_Sort>
7546

> <TS_ChemName>
Thioglycolic acid anilide

> <TS_ChemName_Synonyms>


> <TS_CASRN>
4822-44-0

> <CASRN_ChemName_Relationship>
primary

> <TS_Description>
single chemical compound

> <ChemNote>


> <STRUCTURE_Shown>
tested chemical

> <STRUCTURE_Formula>
C8H9NOS

> <STRUCTURE_MW>
167.2282

> <STRUCTURE_ChemType>
defined organic

> <STRUCTURE_DefinedOrganicForm>
parent

> <STRUCTURE_IUPAC>
N-phenyl-2-sulfanylacetamide

> <STRUCTURE_SMILES>
O=C(Nc1ccccc1)CS

> <STRUCTURE_SMILES_Desalt>
O=C(Nc1ccccc1)CS

> <Substance_modify_yyyymmdd>
20111204

$$$$
