4824-78-6
ChemmineR-0915142007XD

 18 18  0  0  0  0  0  0  0  0  1 V2000
    4.6084   -3.3234    0.0000 P    0  0  0  0  0  0  0  0  0  0  0  0
    3.4503   -5.3143    0.0000 C    0  0  0  0  0  0  0  0  0  0  0  0
    2.3082   -4.6560    0.0000 C    0  0  0  0  0  0  0  0  0  0  0  0
    4.6084   -4.6560    0.0000 O    0  0  0  0  0  0  0  0  0  0  0  0
    2.2923   -7.3052    0.0000 C    0  0  0  0  0  0  0  0  0  0  0  0
    3.4503   -6.6310    0.0000 C    0  0  0  0  0  0  0  0  0  0  0  0
    1.1580   -5.3143    0.0000 C    0  0  0  0  0  0  0  0  0  0  0  0
    1.1580   -6.6469    0.0000 C    0  0  0  0  0  0  0  0  0  0  0  0
    3.2758   -3.3234    0.0000 S    0  0  0  0  0  0  0  0  0  0  0  0
    5.9409   -3.3234    0.0000 O    0  0  0  0  0  0  0  0  0  0  0  0
    4.6084   -1.9909    0.0000 O    0  0  0  0  0  0  0  0  0  0  0  0
    4.6084   -7.3052    0.0000 Cl   0  0  0  0  0  0  0  0  0  0  0  0
    0.0000   -7.3052    0.0000 Br   0  0  0  0  0  0  0  0  0  0  0  0
    0.0000   -4.6560    0.0000 Cl   0  0  0  0  0  0  0  0  0  0  0  0
    6.5993   -4.4815    0.0000 C    0  0  0  0  0  0  0  0  0  0  0  0
    5.7664   -1.3325    0.0000 C    0  0  0  0  0  0  0  0  0  0  0  0
    7.9318   -4.4815    0.0000 C    0  0  0  0  0  0  0  0  0  0  0  0
    5.7664    0.0000    0.0000 C    0  0  0  0  0  0  0  0  0  0  0  0
  1  4  1  0  0  0  0
  1  9  2  0  0  0  0
  1 10  1  0  0  0  0
  1 11  1  0  0  0  0
  2  4  1  0  0  0  0
  2  3  1  0  0  0  0
  2  6  2  0  0  0  0
  3  7  2  0  0  0  0
  5  6  1  0  0  0  0
  5  8  2  0  0  0  0
  6 12  1  0  0  0  0
  7 14  1  0  0  0  0
  7  8  1  0  0  0  0
  8 13  1  0  0  0  0
 10 15  1  0  0  0  0
 11 16  1  0  0  0  0
 15 17  1  0  0  0  0
 16 18  1  0  0  0  0
M  END
> <ID>
8640

> <Formula>
C10H12BrCl2O3PS

> <FW>
394.0492

> <DSSTox_CID>
21684

> <DSSTox_RID>
79818

> <DSSTox_GSID>
41684

> <DSSTox_FileID_Sort>
4500

> <TS_ChemName>
Bromophos-ethyl

> <TS_ChemName_Synonyms>


> <TS_CASRN>
4824-78-6

> <CASRN_ChemName_Relationship>
primary

> <TS_Description>
single chemical compound

> <ChemNote>


> <STRUCTURE_Shown>
tested chemical

> <STRUCTURE_Formula>
C10H12BrCl2O3PS

> <STRUCTURE_MW>
394.0492

> <STRUCTURE_ChemType>
defined organic

> <STRUCTURE_DefinedOrganicForm>
parent

> <STRUCTURE_IUPAC>
O-(4-bromo-2,5-dichlorophenyl) O,O-diethyl phosphorothioate

> <STRUCTURE_SMILES>
Clc1cc(OP(=S)(OCC)OCC)c(Cl)cc1Br

> <STRUCTURE_SMILES_Desalt>
Clc1cc(OP(=S)(OCC)OCC)c(Cl)cc1Br

> <Substance_modify_yyyymmdd>
20080825

$$$$
