483-18-1
ChemmineR-0915142007XD

 37 41  0  0  1  0  0  0  0  0  1 V2000
    4.8331   -2.0058    0.0000 C   0  0  0  0  0  0  0  0  0  0  0  0
    4.8331   -3.3394    0.0000 C   0  0  0  0  0  0  0  0  0  0  0  0
    3.6808   -1.3336    0.0000 C   0  0  0  0  0  0  0  0  0  0  0  0
    3.6808   -4.0009    0.0000 C   0  0  0  0  0  0  0  0  0  0  0  0
    2.5179   -2.0058    0.0000 C   0  0  0  0  0  0  0  0  0  0  0  0
    2.5179   -3.3394    0.0000 C   0  0  0  0  0  0  0  0  0  0  0  0
    5.9960   -1.3336    0.0000 C   0  0  0  0  0  0  0  0  0  0  0  0
    7.1483   -2.0058    0.0000 C   0  0  0  0  0  0  0  0  0  0  0  0
    5.8360   -3.9049    0.0000 C   0  0  0  0  0  0  0  0  0  0  0  0
    7.1483   -3.3394    0.0000 N   0  0  0  0  0  0  0  0  0  0  0  0
    1.3656   -1.3336    0.0000 O   0  0  0  0  0  0  0  0  0  0  0  0
    1.3656    0.0000    0.0000 C   0  0  0  0  0  0  0  0  0  0  0  0
    1.3656   -4.0009    0.0000 O   0  0  0  0  0  0  0  0  0  0  0  0
    0.2134   -3.3288    0.0000 C   0  0  0  0  0  0  0  0  0  0  0  0
    4.7691   -4.9825    0.0000 H   0  0  0  0  0  0  0  0  0  0  0  0
    6.9136   -4.7371    0.0000 C   0  0  0  0  0  0  0  0  0  0  0  0
    6.9242   -6.0067    0.0000 C   0  0  0  0  0  0  0  0  0  0  0  0
    8.0872   -6.6682    0.0000 C   0  0  0  0  0  0  0  0  0  0  0  0
    5.7720   -6.6682    0.0000 C   0  0  0  0  0  0  0  0  0  0  0  0
    8.0872   -8.0018    0.0000 C   0  0  0  0  0  0  0  0  0  0  0  0
    5.7720   -8.0018    0.0000 C   0  0  0  0  0  0  0  0  0  0  0  0
    6.9242   -8.6740    0.0000 N   0  0  0  0  0  0  0  0  0  0  0  0
    4.6090   -8.6740    0.0000 C   0  0  0  0  0  0  0  0  0  0  0  0
    4.6090  -10.0076    0.0000 C   0  0  0  0  0  0  0  0  0  0  0  0
    6.9242  -10.0076    0.0000 C   0  0  0  0  0  0  0  0  0  0  0  0
    5.7720  -10.6691    0.0000 C   0  0  0  0  0  0  0  0  0  0  0  0
    3.4568   -8.0018    0.0000 C   0  0  0  0  0  0  0  0  0  0  0  0
    2.2939   -8.6740    0.0000 C   0  0  0  0  0  0  0  0  0  0  0  0
    3.4568  -10.6691    0.0000 C   0  0  0  0  0  0  0  0  0  0  0  0
    2.2939  -10.0076    0.0000 C   0  0  0  0  0  0  0  0  0  0  0  0
    1.1523   -8.0018    0.0000 O   0  0  0  0  0  0  0  0  0  0  0  0
    1.1523   -6.6682    0.0000 C   0  0  0  0  0  0  0  0  0  0  0  0
    1.1523  -10.6691    0.0000 O   0  0  0  0  0  0  0  0  0  0  0  0
    0.0000  -10.0076    0.0000 C   0  0  0  0  0  0  0  0  0  0  0  0
    9.2394   -6.0067    0.0000 C   0  0  0  0  0  0  0  0  0  0  0  0
   10.3917   -6.6682    0.0000 C   0  0  0  0  0  0  0  0  0  0  0  0
    5.8147   -9.1221    0.0000 H   0  0  0  0  0  0  0  0  0  0  0  0
  1  3  2  0  0  0  0
  1  7  1  0  0  0  0
  1  2  1  0  0  0  0
  2  4  2  0  0  0  0
  2  9  1  0  0  0  0
  3  5  1  0  0  0  0
  4  6  1  0  0  0  0
  5  6  2  0  0  0  0
  5 11  1  0  0  0  0
  6 13  1  0  0  0  0
  7  8  1  0  0  0  0
  8 10  1  0  0  0  0
  9 10  1  0  0  0  0
  9 15  1  1  0  0  0
  9 16  1  0  0  0  0
 11 12  1  0  0  0  0
 13 14  1  0  0  0  0
 17 16  1  6  0  0  0
 17 18  1  0  0  0  0
 17 19  1  0  0  0  0
 18 20  1  0  0  0  0
 18 35  1  1  0  0  0
 19 21  1  0  0  0  0
 20 22  1  0  0  0  0
 21 23  1  0  0  0  0
 21 22  1  0  0  0  0
 21 37  1  1  0  0  0
 22 25  1  0  0  0  0
 23 27  1  0  0  0  0
 23 24  2  0  0  0  0
 24 26  1  0  0  0  0
 24 29  1  0  0  0  0
 25 26  1  0  0  0  0
 27 28  2  0  0  0  0
 28 30  1  0  0  0  0
 28 31  1  0  0  0  0
 29 30  2  0  0  0  0
 30 33  1  0  0  0  0
 31 32  1  0  0  0  0
 33 34  1  0  0  0  0
 35 36  1  0  0  0  0
M  END
> <ID>
2682

> <Formula>
C29H40N2O4

> <FW>
480.6389

> <DSSTox_CID>
2980

> <DSSTox_RID>
76816

> <DSSTox_GSID>
22980

> <DSSTox_FileID_Sort>
1500

> <TS_ChemName>
Emetine

> <TS_ChemName_Synonyms>


> <TS_CASRN>
483-18-1

> <CASRN_ChemName_Relationship>
primary

> <TS_Description>
single chemical compound

> <ChemNote>
stereochem

> <STRUCTURE_Shown>
tested chemical

> <STRUCTURE_Formula>
C29H40N2O4

> <STRUCTURE_MW>
480.6389

> <STRUCTURE_ChemType>
defined organic

> <STRUCTURE_DefinedOrganicForm>
parent

> <STRUCTURE_IUPAC>
(1'beta)-6',7',10,11-tetramethoxyemetan

> <STRUCTURE_SMILES>
COc4cc5CCN[C@H](C[C@H]1C[C@H]2c3cc(OC)c(OC)cc3CCN2C[C@@H]1CC)c5cc4OC

> <STRUCTURE_SMILES_Desalt>
COc4cc5CCN[C@H](C[C@H]1C[C@H]2c3cc(OC)c(OC)cc3CCN2C[C@@H]1CC)c5cc4OC

> <Substance_modify_yyyymmdd>
20080429

$$$$
