483-63-6
ChemmineR-0915142007XD

 15 15  0  0  0  0  0  0  0  0  1 V2000
    4.6266   -2.6888    0.0000 N   0  0  0  0  0  0  0  0  0  0  0  0
    3.4639   -2.0267    0.0000 C   0  0  0  0  0  0  0  0  0  0  0  0
    5.7651   -2.0267    0.0000 C   0  0  0  0  0  0  0  0  0  0  0  0
    2.3093   -2.6888    0.0000 C   0  0  0  0  0  0  0  0  0  0  0  0
    3.4639   -0.6944    0.0000 O   0  0  0  0  0  0  0  0  0  0  0  0
    5.7651   -0.6782    0.0000 C   0  0  0  0  0  0  0  0  0  0  0  0
    1.1546   -2.0267    0.0000 C   0  0  0  0  0  0  0  0  0  0  0  0
    4.6266   -4.0049    0.0000 C   0  0  0  0  0  0  0  0  0  0  0  0
    6.9359   -2.6565    0.0000 C   0  0  0  0  0  0  0  0  0  0  0  0
    4.6105    0.0000    0.0000 C   0  0  0  0  0  0  0  0  0  0  0  0
    6.9359    0.0000    0.0000 C   0  0  0  0  0  0  0  0  0  0  0  0
    0.0000   -2.6888    0.0000 C   0  0  0  0  0  0  0  0  0  0  0  0
    5.7651   -4.6831    0.0000 C   0  0  0  0  0  0  0  0  0  0  0  0
    8.0744   -1.9944    0.0000 C   0  0  0  0  0  0  0  0  0  0  0  0
    8.0744   -0.6782    0.0000 C   0  0  0  0  0  0  0  0  0  0  0  0
  1  2  1  0  0  0  0
  1  3  1  0  0  0  0
  1  8  1  0  0  0  0
  2  4  1  0  0  0  0
  2  5  2  0  0  0  0
  3  6  1  0  0  0  0
  3  9  2  0  0  0  0
  4  7  2  3  0  0  0
  6 10  1  0  0  0  0
  6 11  2  0  0  0  0
  7 12  1  0  0  0  0
  8 13  1  0  0  0  0
  9 14  1  0  0  0  0
 11 15  1  0  0  0  0
 14 15  2  0  0  0  0
M  END
> <ID>
7865

> <Formula>
C13H17NO

> <FW>
203.2802

> <DSSTox_CID>
20664

> <DSSTox_RID>
79528

> <DSSTox_GSID>
40664

> <DSSTox_FileID_Sort>
4210

> <TS_ChemName>
Crotamiton

> <TS_ChemName_Synonyms>
N-Ethyl-N-(2-methylphenyl)but-2-enamide (Crotamiton)

> <TS_CASRN>
483-63-6

> <CASRN_ChemName_Relationship>
primary

> <TS_Description>
mixture of Z,E isomers

> <ChemNote>
mixture of Z,E- isomers

> <STRUCTURE_Shown>
representative isomer in mixture

> <STRUCTURE_Formula>
C13H17NO

> <STRUCTURE_MW>
203.2802

> <STRUCTURE_ChemType>
defined organic

> <STRUCTURE_DefinedOrganicForm>
parent

> <STRUCTURE_IUPAC>
N-ethyl-N-(2-methylphenyl)but-2-enamide

> <STRUCTURE_SMILES>
CCN(C(=O)C=CC)c1ccccc1C

> <STRUCTURE_SMILES_Desalt>
CCN(C(=O)C=CC)c1ccccc1C

> <Substance_modify_yyyymmdd>
20110720

$$$$
