483-20-5
ChemmineR-0915142007XD

 28 31  0  0  0  0  0  0  0  0  1 V2000
    6.7278   -2.4678    0.0000 C   0  0  0  0  0  0  0  0  0  0  0  0
    8.0352   -2.4678    0.0000 C   0  0  0  0  0  0  0  0  0  0  0  0
    1.2192   -1.1458    0.0000 S   0  0  0  0  0  0  0  0  0  0  0  0
   13.4997   -4.0249    0.0000 S   0  0  0  0  0  0  0  0  0  0  0  0
    5.9493   -3.5549    0.0000 N   0  0  0  0  0  0  0  0  0  0  0  0
    8.8725   -1.4249    0.0000 N   0  0  0  0  0  0  0  0  0  0  0  0
    5.9493   -1.4102    0.0000 C   0  0  0  0  0  0  0  0  0  0  0  0
    8.7696   -3.5842    0.0000 C   0  0  0  0  0  0  0  0  0  0  0  0
   10.1064   -3.2023    0.0000 C   0  0  0  0  0  0  0  0  0  0  0  0
    4.6860   -1.8068    0.0000 C   0  0  0  0  0  0  0  0  0  0  0  0
    4.6860   -3.1436    0.0000 C   0  0  0  0  0  0  0  0  0  0  0  0
   10.1064   -1.8803    0.0000 C   0  0  0  0  0  0  0  0  0  0  0  0
    2.3797   -1.8068    0.0000 C   0  0  0  0  0  0  0  0  0  0  0  0
   12.3686   -3.3198    0.0000 C   0  0  0  0  0  0  0  0  0  0  0  0
   11.1934   -3.9368    0.0000 C   0  0  0  0  0  0  0  0  0  0  0  0
    3.5255   -1.1458    0.0000 C   0  0  0  0  0  0  0  0  0  0  0  0
    1.8949    0.0000    0.0000 O   0  0  0  0  0  0  0  0  0  0  0  0
   12.7799   -5.1413    0.0000 O   0  0  0  0  0  0  0  0  0  0  0  0
   14.1607   -2.9379    0.0000 O   0  0  0  0  0  0  0  0  0  0  0  0
    0.6170   -2.2622    0.0000 O   0  0  0  0  0  0  0  0  0  0  0  0
    0.0000   -0.4848    0.0000 O   0  0  0  0  0  0  0  0  0  0  0  0
   14.6895   -4.7300    0.0000 O   0  0  0  0  0  0  0  0  0  0  0  0
    6.3753   -0.1322    0.0000 O   0  0  0  0  0  0  0  0  0  0  0  0
    8.3143   -4.8329    0.0000 O   0  0  0  0  0  0  0  0  0  0  0  0
   11.2962   -1.2633    0.0000 C   0  0  0  0  0  0  0  0  0  0  0  0
    3.5255   -3.8046    0.0000 C   0  0  0  0  0  0  0  0  0  0  0  0
    2.3797   -3.1436    0.0000 C   0  0  0  0  0  0  0  0  0  0  0  0
   12.3686   -1.9684    0.0000 C   0  0  0  0  0  0  0  0  0  0  0  0
  1  2  2  0  0  0  0
  1  5  1  0  0  0  0
  1  7  1  0  0  0  0
  2  6  1  0  0  0  0
  2  8  1  0  0  0  0
  3 13  1  0  0  0  0
  3 17  1  0  0  0  0
  3 20  2  0  0  0  0
  3 21  2  0  0  0  0
  4 14  1  0  0  0  0
  4 18  1  0  0  0  0
  4 19  2  0  0  0  0
  4 22  2  0  0  0  0
  5 11  1  0  0  0  0
  6 12  1  0  0  0  0
  7 10  1  0  0  0  0
  7 23  2  0  0  0  0
  8  9  1  0  0  0  0
  8 24  2  0  0  0  0
  9 15  1  0  0  0  0
  9 12  2  0  0  0  0
 10 16  1  0  0  0  0
 10 11  2  0  0  0  0
 11 26  1  0  0  0  0
 12 25  1  0  0  0  0
 13 16  2  0  0  0  0
 13 27  1  0  0  0  0
 14 15  2  0  0  0  0
 14 28  1  0  0  0  0
 25 28  2  0  0  0  0
 26 27  2  0  0  0  0
M  END
> <ID>
9960

> <Formula>
C16H10N2O8S2

> <FW>
422.3892

> <DSSTox_CID>
24288

> <DSSTox_RID>
80141

> <DSSTox_GSID>
44288

> <DSSTox_FileID_Sort>
4823

> <TS_ChemName>
Indigocarmine

> <TS_ChemName_Synonyms>
Indigotindisulfonic acid

> <TS_CASRN>
483-20-5

> <CASRN_ChemName_Relationship>
primary

> <TS_Description>
single chemical compound

> <ChemNote>


> <STRUCTURE_Shown>
tested chemical

> <STRUCTURE_Formula>
C16H10N2O8S2

> <STRUCTURE_MW>
422.3892

> <STRUCTURE_ChemType>
defined organic

> <STRUCTURE_DefinedOrganicForm>
parent

> <STRUCTURE_IUPAC>
(2E)-3-oxo-2-(3-oxo-5-sulfo-1,3-dihydro-2H-indol-2-ylidene)-2,3-dihydro-1H-indole-5-sulfonic acid

> <STRUCTURE_SMILES>
O=S(=O)(O)c1cc2C(=O)C(\Nc2cc1)=C4/Nc3ccc(cc3C4=O)S(=O)(=O)O

> <STRUCTURE_SMILES_Desalt>
O=S(=O)(O)c1cc2C(=O)C(\Nc2cc1)=C4/Nc3ccc(cc3C4=O)S(=O)(=O)O

> <Substance_modify_yyyymmdd>
20090302

$$$$
