484-17-3
ChemmineR-0915142007XD

 15 17  0  0  0  0  0  0  0  0  1 V2000
    2.3057   -2.6581    0.0000 C   0  0  0  0  0  0  0  0  0  0  0  0
    2.3057   -3.9902    0.0000 C   0  0  0  0  0  0  0  0  0  0  0  0
    1.1529   -1.9832    0.0000 C   0  0  0  0  0  0  0  0  0  0  0  0
    1.1529   -4.6413    0.0000 C   0  0  0  0  0  0  0  0  0  0  0  0
    0.0000   -2.6581    0.0000 C   0  0  0  0  0  0  0  0  0  0  0  0
    0.0000   -3.9902    0.0000 C   0  0  0  0  0  0  0  0  0  0  0  0
    3.4586   -1.9832    0.0000 C   0  0  0  0  0  0  0  0  0  0  0  0
    4.6114   -2.6581    0.0000 C   0  0  0  0  0  0  0  0  0  0  0  0
    3.4586   -4.6413    0.0000 C   0  0  0  0  0  0  0  0  0  0  0  0
    4.6114   -3.9902    0.0000 C   0  0  0  0  0  0  0  0  0  0  0  0
    3.4586   -0.6571    0.0000 C   0  0  0  0  0  0  0  0  0  0  0  0
    4.6114    0.0000    0.0000 C   0  0  0  0  0  0  0  0  0  0  0  0
    5.7643   -1.9832    0.0000 C   0  0  0  0  0  0  0  0  0  0  0  0
    5.7643   -0.6571    0.0000 C   0  0  0  0  0  0  0  0  0  0  0  0
    3.4586   -5.9734    0.0000 O   0  0  0  0  0  0  0  0  0  0  0  0
  1  3  2  0  0  0  0
  1  7  1  0  0  0  0
  1  2  1  0  0  0  0
  2  4  2  0  0  0  0
  2  9  1  0  0  0  0
  3  5  1  0  0  0  0
  4  6  1  0  0  0  0
  5  6  2  0  0  0  0
  7 11  1  0  0  0  0
  7  8  2  0  0  0  0
  8 10  1  0  0  0  0
  8 13  1  0  0  0  0
  9 10  2  0  0  0  0
  9 15  1  0  0  0  0
 11 12  2  0  0  0  0
 12 14  1  0  0  0  0
 13 14  2  0  0  0  0
M  END
> <ID>
12714

> <Formula>
C14H10O

> <FW>
194.2286

> <DSSTox_CID>
27592

> <DSSTox_RID>
82439

> <DSSTox_GSID>
47592

> <DSSTox_FileID_Sort>
7120

> <TS_ChemName>
9-Phenanthrol

> <TS_ChemName_Synonyms>


> <TS_CASRN>
484-17-3

> <CASRN_ChemName_Relationship>
primary

> <TS_Description>
single chemical compound

> <ChemNote>


> <STRUCTURE_Shown>
tested chemical

> <STRUCTURE_Formula>
C14H10O

> <STRUCTURE_MW>
194.2286

> <STRUCTURE_ChemType>
defined organic

> <STRUCTURE_DefinedOrganicForm>
parent

> <STRUCTURE_IUPAC>
phenanthren-9-ol

> <STRUCTURE_SMILES>
Oc2cc3ccccc3c1ccccc12

> <STRUCTURE_SMILES_Desalt>
Oc2cc3ccccc3c1ccccc12

> <Substance_modify_yyyymmdd>
20101001

$$$$
