484-20-8
ChemmineR-0915142007XD

 16 18  0  0  0  0  0  0  0  0  1 V2000
    4.6060   -0.6636    0.0000 O   0  0  0  0  0  0  0  0  0  0  0  0
    5.7614    0.0000    0.0000 C   0  0  0  0  0  0  0  0  0  0  0  0
    4.6060   -1.9907    0.0000 C   0  0  0  0  0  0  0  0  0  0  0  0
    5.7614   -2.6543    0.0000 C   0  0  0  0  0  0  0  0  0  0  0  0
    7.0261   -2.2483    0.0000 C   0  0  0  0  0  0  0  0  0  0  0  0
    7.8068   -3.3257    0.0000 C   0  0  0  0  0  0  0  0  0  0  0  0
    7.0261   -4.3952    0.0000 O   0  0  0  0  0  0  0  0  0  0  0  0
    5.7614   -3.9893    0.0000 C   0  0  0  0  0  0  0  0  0  0  0  0
    4.6060   -4.6528    0.0000 C   0  0  0  0  0  0  0  0  0  0  0  0
    3.4584   -3.9893    0.0000 C   0  0  0  0  0  0  0  0  0  0  0  0
    2.3030   -4.6528    0.0000 O   0  0  0  0  0  0  0  0  0  0  0  0
    1.1554   -3.9893    0.0000 C   0  0  0  0  0  0  0  0  0  0  0  0
    0.0000   -4.6528    0.0000 O   0  0  0  0  0  0  0  0  0  0  0  0
    1.1554   -2.6543    0.0000 C   0  0  0  0  0  0  0  0  0  0  0  0
    2.3030   -1.9907    0.0000 C   0  0  0  0  0  0  0  0  0  0  0  0
    3.4584   -2.6543    0.0000 C   0  0  0  0  0  0  0  0  0  0  0  0
  1  2  1  0  0  0  0
  1  3  1  0  0  0  0
  3  4  2  0  0  0  0
  3 16  1  0  0  0  0
  4  5  1  0  0  0  0
  4  8  1  0  0  0  0
  5  6  2  0  0  0  0
  6  7  1  0  0  0  0
  7  8  1  0  0  0  0
  8  9  2  0  0  0  0
  9 10  1  0  0  0  0
 10 11  1  0  0  0  0
 10 16  2  0  0  0  0
 11 12  1  0  0  0  0
 12 13  2  0  0  0  0
 12 14  1  0  0  0  0
 14 15  2  0  0  0  0
 15 16  1  0  0  0  0
M  END
> <ID>
4266

> <Formula>
C12H8O4

> <FW>
216.1895

> <DSSTox_CID>
5560

> <DSSTox_RID>
77830

> <DSSTox_GSID>
25560

> <DSSTox_FileID_Sort>
2513

> <TS_ChemName>
5-Methoxypsoralen

> <TS_ChemName_Synonyms>


> <TS_CASRN>
484-20-8

> <CASRN_ChemName_Relationship>
primary

> <TS_Description>
single chemical compound

> <ChemNote>


> <STRUCTURE_Shown>
tested chemical

> <STRUCTURE_Formula>
C12H8O4

> <STRUCTURE_MW>
216.1895

> <STRUCTURE_ChemType>
defined organic

> <STRUCTURE_DefinedOrganicForm>
parent

> <STRUCTURE_IUPAC>
4-methoxy-7H-furo[3,2-g]chromen-7-one

> <STRUCTURE_SMILES>
COc1c3ccoc3cc2OC(=O)C=Cc12

> <STRUCTURE_SMILES_Desalt>
COc1c3ccoc3cc2OC(=O)C=Cc12

> <Substance_modify_yyyymmdd>
20080429

$$$$
