4845-50-5
ChemmineR-0915142007XD

  8  8  0  0  0  0  0  0  0  0  1 V2000
    3.4590   -1.9868    0.0000 O   0  0  0  0  0  0  0  0  0  0  0  0
    2.3060   -1.3285    0.0000 C   0  0  0  0  0  0  0  0  0  0  0  0
    1.1530   -1.9868    0.0000 C   0  0  0  0  0  0  0  0  0  0  0  0
    1.1530   -3.3154    0.0000 O   0  0  0  0  0  0  0  0  0  0  0  0
    2.3060   -3.9896    0.0000 C   0  0  0  0  0  0  0  0  0  0  0  0
    3.4590   -3.3154    0.0000 C   0  0  0  0  0  0  0  0  0  0  0  0
    2.3060    0.0000    0.0000 O   0  0  0  0  0  0  0  0  0  0  0  0
    0.0000   -1.3285    0.0000 O   0  0  0  0  0  0  0  0  0  0  0  0
  1  2  1  0  0  0  0
  1  6  1  0  0  0  0
  2  3  1  0  0  0  0
  2  7  1  0  0  0  0
  3  4  1  0  0  0  0
  3  8  1  0  0  0  0
  4  5  1  0  0  0  0
  5  6  1  0  0  0  0
M  END
> <ID>
7512

> <Formula>
C4H8O4

> <FW>
120.1039

> <DSSTox_CID>
18824

> <DSSTox_RID>
79404

> <DSSTox_GSID>
38824

> <DSSTox_FileID_Sort>
4086

> <TS_ChemName>
1,4-Dioxane-2,3-diol

> <TS_ChemName_Synonyms>


> <TS_CASRN>
4845-50-5

> <CASRN_ChemName_Relationship>
primary

> <TS_Description>
single chemical compound

> <ChemNote>


> <STRUCTURE_Shown>
tested chemical

> <STRUCTURE_Formula>
C4H8O4

> <STRUCTURE_MW>
120.1039

> <STRUCTURE_ChemType>
defined organic

> <STRUCTURE_DefinedOrganicForm>
parent

> <STRUCTURE_IUPAC>
1,4-dioxane-2,3-diol

> <STRUCTURE_SMILES>
OC1OCCOC1O

> <STRUCTURE_SMILES_Desalt>
OC1OCCOC1O

> <Substance_modify_yyyymmdd>
20080429

$$$$
