4849-32-5
ChemmineR-0915142007XD

 20 20  0  0  0  0  0  0  0  0  1 V2000
    3.4457   -2.0775    0.0000 C   0  0  0  0  0  0  0  0  0  0  0  0
    3.4457   -0.7221    0.0000 O   0  0  0  0  0  0  0  0  0  0  0  0
    4.6364   -2.7109    0.0000 O   0  0  0  0  0  0  0  0  0  0  0  0
    2.3309   -2.7363    0.0000 N   0  0  0  0  0  0  0  0  0  0  0  0
    1.1781   -2.1155    0.0000 C   0  0  0  0  0  0  0  0  0  0  0  0
    0.5321   -3.2937    0.0000 C   0  0  0  0  0  0  0  0  0  0  0  0
    1.8368   -0.9374    0.0000 C   0  0  0  0  0  0  0  0  0  0  0  0
    0.0000   -1.4695    0.0000 C   0  0  0  0  0  0  0  0  0  0  0  0
    5.7639   -1.9889    0.0000 C   0  0  0  0  0  0  0  0  0  0  0  0
    6.9167   -2.6349    0.0000 C   0  0  0  0  0  0  0  0  0  0  0  0
    5.7512   -0.6714    0.0000 C   0  0  0  0  0  0  0  0  0  0  0  0
    8.0441   -1.9509    0.0000 C   0  0  0  0  0  0  0  0  0  0  0  0
    6.9040    0.0000    0.0000 C   0  0  0  0  0  0  0  0  0  0  0  0
    8.0441   -0.6334    0.0000 C   0  0  0  0  0  0  0  0  0  0  0  0
    9.2096   -2.5842    0.0000 N   0  0  0  0  0  0  0  0  0  0  0  0
   10.3750   -1.9129    0.0000 C   0  0  0  0  0  0  0  0  0  0  0  0
   10.3750   -0.5701    0.0000 O   0  0  0  0  0  0  0  0  0  0  0  0
   11.5405   -2.5462    0.0000 N   0  0  0  0  0  0  0  0  0  0  0  0
   11.5531   -3.8890    0.0000 C   0  0  0  0  0  0  0  0  0  0  0  0
   12.6679   -1.8622    0.0000 C   0  0  0  0  0  0  0  0  0  0  0  0
  1  2  2  0  0  0  0
  1  3  1  0  0  0  0
  1  4  1  0  0  0  0
  3  9  1  0  0  0  0
  4  5  1  0  0  0  0
  5  6  1  0  0  0  0
  5  7  1  0  0  0  0
  5  8  1  0  0  0  0
  9 10  2  0  0  0  0
  9 11  1  0  0  0  0
 10 12  1  0  0  0  0
 11 13  2  0  0  0  0
 12 14  2  0  0  0  0
 12 15  1  0  0  0  0
 13 14  1  0  0  0  0
 15 16  1  0  0  0  0
 16 17  2  0  0  0  0
 16 18  1  0  0  0  0
 18 19  1  0  0  0  0
 18 20  1  0  0  0  0
M  END
> <ID>
9016

> <Formula>
C14H21N3O3

> <FW>
279.3348

> <DSSTox_CID>
22084

> <DSSTox_RID>
79920

> <DSSTox_GSID>
42084

> <DSSTox_FileID_Sort>
4602

> <TS_ChemName>
Karbutilate

> <TS_ChemName_Synonyms>


> <TS_CASRN>
4849-32-5

> <CASRN_ChemName_Relationship>
primary

> <TS_Description>
single chemical compound

> <ChemNote>


> <STRUCTURE_Shown>
tested chemical

> <STRUCTURE_Formula>
C14H21N3O3

> <STRUCTURE_MW>
279.3348

> <STRUCTURE_ChemType>
defined organic

> <STRUCTURE_DefinedOrganicForm>
parent

> <STRUCTURE_IUPAC>
3-[(dimethylcarbamoyl)amino]phenyl tert-butylcarbamate

> <STRUCTURE_SMILES>
O=C(Oc1cccc(c1)NC(=O)N(C)C)NC(C)(C)C

> <STRUCTURE_SMILES_Desalt>
O=C(Oc1cccc(c1)NC(=O)N(C)C)NC(C)(C)C

> <Substance_modify_yyyymmdd>
20080825

$$$$
