485-34-7
ChemmineR-0915142007XD

 22 24  0  0  0  0  0  0  0  0  1 V2000
    4.5897   -1.9919    0.0000 C   0  0  0  0  0  0  0  0  0  0  0  0
    4.5897   -4.6723    0.0000 N   0  0  0  0  0  0  0  0  0  0  0  0
    3.4239   -2.6620    0.0000 C   0  0  0  0  0  0  0  0  0  0  0  0
    5.7371   -4.0022    0.0000 C   0  0  0  0  0  0  0  0  0  0  0  0
    5.7371   -2.6620    0.0000 C   0  0  0  0  0  0  0  0  0  0  0  0
    3.4239   -4.0022    0.0000 C   0  0  0  0  0  0  0  0  0  0  0  0
    4.5897   -0.6701    0.0000 C   0  0  0  0  0  0  0  0  0  0  0  0
    2.2765   -1.9919    0.0000 C   0  0  0  0  0  0  0  0  0  0  0  0
    5.7371    0.0000    0.0000 O   0  0  0  0  0  0  0  0  0  0  0  0
    6.8845   -4.6723    0.0000 C   0  0  0  0  0  0  0  0  0  0  0  0
    2.2765   -4.6723    0.0000 C   0  0  0  0  0  0  0  0  0  0  0  0
    1.1291   -2.6620    0.0000 C   0  0  0  0  0  0  0  0  0  0  0  0
    3.4239    0.0000    0.0000 O   0  0  0  0  0  0  0  0  0  0  0  0
    1.1291   -4.0022    0.0000 C   0  0  0  0  0  0  0  0  0  0  0  0
    6.8845   -5.9941    0.0000 C   0  0  0  0  0  0  0  0  0  0  0  0
    8.0136   -4.0022    0.0000 C   0  0  0  0  0  0  0  0  0  0  0  0
    2.2765   -0.6885    0.0000 C   0  0  0  0  0  0  0  0  0  0  0  0
    0.0000   -1.9919    0.0000 C   0  0  0  0  0  0  0  0  0  0  0  0
    1.1474   -0.0367    0.0000 C   0  0  0  0  0  0  0  0  0  0  0  0
    9.1794   -4.6723    0.0000 C   0  0  0  0  0  0  0  0  0  0  0  0
    8.0136   -6.6642    0.0000 C   0  0  0  0  0  0  0  0  0  0  0  0
    9.1794   -5.9941    0.0000 C   0  0  0  0  0  0  0  0  0  0  0  0
  1  3  1  0  0  0  0
  1  5  2  0  0  0  0
  1  7  1  0  0  0  0
  2  4  2  0  0  0  0
  2  6  1  0  0  0  0
  3  6  2  0  0  0  0
  3  8  1  0  0  0  0
  4  5  1  0  0  0  0
  4 10  1  0  0  0  0
  6 11  1  0  0  0  0
  7  9  2  0  0  0  0
  7 13  1  0  0  0  0
  8 12  2  0  0  0  0
 10 15  1  0  0  0  0
 10 16  2  0  0  0  0
 11 14  2  0  0  0  0
 12 14  1  0  0  0  0
 12 18  1  0  0  0  0
 13 17  1  0  0  0  0
 15 21  2  0  0  0  0
 16 20  1  0  0  0  0
 17 19  1  0  0  0  0
 20 22  2  0  0  0  0
 21 22  1  0  0  0  0
M  END
> <ID>
11544

> <Formula>
C19H17NO2

> <FW>
291.3438

> <DSSTox_CID>
26250

> <DSSTox_RID>
81477

> <DSSTox_GSID>
46250

> <DSSTox_FileID_Sort>
6158

> <TS_ChemName>
Neocinchophen

> <TS_ChemName_Synonyms>


> <TS_CASRN>
485-34-7

> <CASRN_ChemName_Relationship>
primary

> <TS_Description>
single chemical compound

> <ChemNote>


> <STRUCTURE_Shown>
tested chemical

> <STRUCTURE_Formula>
C19H17NO2

> <STRUCTURE_MW>
291.3438

> <STRUCTURE_ChemType>
defined organic

> <STRUCTURE_DefinedOrganicForm>
parent

> <STRUCTURE_IUPAC>
ethyl 6-methyl-2-phenylquinoline-4-carboxylate

> <STRUCTURE_SMILES>
O=C(OCC)c1cc(nc2ccc(C)cc12)c3ccccc3

> <STRUCTURE_SMILES_Desalt>
O=C(OCC)c1cc(nc2ccc(C)cc12)c3ccccc3

> <Substance_modify_yyyymmdd>
20110817

$$$$
