485-89-2
ChemmineR-0915142007XD

 20 22  0  0  0  0  0  0  0  0  1 V2000
    5.7563    0.0000    0.0000 O   0  0  0  0  0  0  0  0  0  0  0  0
    4.6034   -0.6691    0.0000 C   0  0  0  0  0  0  0  0  0  0  0  0
    3.4586    0.0000    0.0000 O   0  0  0  0  0  0  0  0  0  0  0  0
    4.6034   -1.9994    0.0000 C   0  0  0  0  0  0  0  0  0  0  0  0
    3.4586   -2.6605    0.0000 C   0  0  0  0  0  0  0  0  0  0  0  0
    2.3057   -1.9994    0.0000 O   0  0  0  0  0  0  0  0  0  0  0  0
    3.4586   -3.9907    0.0000 C   0  0  0  0  0  0  0  0  0  0  0  0
    4.6034   -4.6598    0.0000 N   0  0  0  0  0  0  0  0  0  0  0  0
    5.7563   -3.9907    0.0000 C   0  0  0  0  0  0  0  0  0  0  0  0
    5.7563   -2.6605    0.0000 C   0  0  0  0  0  0  0  0  0  0  0  0
    6.9091   -1.9994    0.0000 C   0  0  0  0  0  0  0  0  0  0  0  0
    8.0620   -2.6605    0.0000 C   0  0  0  0  0  0  0  0  0  0  0  0
    8.0620   -3.9907    0.0000 C   0  0  0  0  0  0  0  0  0  0  0  0
    6.9091   -4.6598    0.0000 C   0  0  0  0  0  0  0  0  0  0  0  0
    2.3057   -4.6598    0.0000 C   0  0  0  0  0  0  0  0  0  0  0  0
    1.1529   -3.9907    0.0000 C   0  0  0  0  0  0  0  0  0  0  0  0
    0.0000   -4.6598    0.0000 C   0  0  0  0  0  0  0  0  0  0  0  0
    0.0000   -5.9901    0.0000 C   0  0  0  0  0  0  0  0  0  0  0  0
    1.1529   -6.6511    0.0000 C   0  0  0  0  0  0  0  0  0  0  0  0
    2.3057   -5.9901    0.0000 C   0  0  0  0  0  0  0  0  0  0  0  0
  1  2  1  0  0  0  0
  2  3  2  0  0  0  0
  2  4  1  0  0  0  0
  4  5  2  0  0  0  0
  4 10  1  0  0  0  0
  5  6  1  0  0  0  0
  5  7  1  0  0  0  0
  7  8  2  0  0  0  0
  7 15  1  0  0  0  0
  8  9  1  0  0  0  0
  9 10  2  0  0  0  0
  9 14  1  0  0  0  0
 10 11  1  0  0  0  0
 11 12  2  0  0  0  0
 12 13  1  0  0  0  0
 13 14  2  0  0  0  0
 15 16  2  0  0  0  0
 15 20  1  0  0  0  0
 16 17  1  0  0  0  0
 17 18  2  0  0  0  0
 18 19  1  0  0  0  0
 19 20  2  0  0  0  0
M  END
> <ID>
16150

> <Formula>
C16H11NO3

> <FW>
265.2634

> <DSSTox_CID>
31539

> <DSSTox_RID>
97424

> <DSSTox_GSID>
57750

> <DSSTox_FileID_Sort>
8491

> <TS_ChemName>
Oxycinchophen

> <TS_ChemName_Synonyms>


> <TS_CASRN>
485-89-2

> <CASRN_ChemName_Relationship>
primary

> <TS_Description>
single chemical compound

> <ChemNote>


> <STRUCTURE_Shown>
tested chemical

> <STRUCTURE_Formula>
C16H11NO3

> <STRUCTURE_MW>
265.2634

> <STRUCTURE_ChemType>
defined organic

> <STRUCTURE_DefinedOrganicForm>
parent

> <STRUCTURE_IUPAC>
3-hydroxy-2-phenylquinoline-4-carboxylic acid

> <STRUCTURE_SMILES>
O=C(O)c1c3ccccc3nc(c1O)c2ccccc2

> <STRUCTURE_SMILES_Desalt>
O=C(O)c1c3ccccc3nc(c1O)c2ccccc2

> <Substance_modify_yyyymmdd>
20131121

$$$$
