485-31-4
ChemmineR-0915142007XD

 23 23  0  0  0  0  0  0  0  0  2 V2000
    4.5044   -1.9273    0.0000 C   0  0  0  0  0  0  0  0  0  0  0  0
    4.5044   -3.2269    0.0000 C   0  0  0  0  0  0  0  0  0  0  0  0
    5.6167   -1.2996    0.0000 N   0  3  0  0  0  0  0  0  0  0  0  0
    1.1344   -1.2996    0.0000 N   0  3  0  0  0  0  0  0  0  0  0  0
    3.3700   -1.2996    0.0000 C   0  0  0  0  0  0  0  0  0  0  0  0
    2.2577   -1.9493    0.0000 C   0  0  0  0  0  0  0  0  0  0  0  0
    3.3700   -3.8766    0.0000 C   0  0  0  0  0  0  0  0  0  0  0  0
    2.2577   -3.2489    0.0000 C   0  0  0  0  0  0  0  0  0  0  0  0
    7.6542   -3.3370    0.0000 C   0  0  0  0  0  0  0  0  0  0  0  0
    6.5418   -3.9868    0.0000 O   0  0  0  0  0  0  0  0  0  0  0  0
    8.7665   -3.9868    0.0000 C   0  0  0  0  0  0  0  0  0  0  0  0
    6.7291   -1.9273    0.0000 O   0  5  0  0  0  0  0  0  0  0  0  0
    0.0000   -1.9493    0.0000 O   0  5  0  0  0  0  0  0  0  0  0  0
    5.6167    0.0000    0.0000 O   0  0  0  0  0  0  0  0  0  0  0  0
    1.1344   -0.0220    0.0000 O   0  0  0  0  0  0  0  0  0  0  0  0
    7.6542   -2.0595    0.0000 O   0  0  0  0  0  0  0  0  0  0  0  0
    9.9009   -3.3370    0.0000 C   0  0  0  0  0  0  0  0  0  0  0  0
    3.3700   -5.1542    0.0000 C   0  0  0  0  0  0  0  0  0  0  0  0
    9.9009   -2.0595    0.0000 C   0  0  0  0  0  0  0  0  0  0  0  0
   11.0132   -4.0088    0.0000 C   0  0  0  0  0  0  0  0  0  0  0  0
    2.2577   -5.8039    0.0000 C   0  0  0  0  0  0  0  0  0  0  0  0
    4.5044   -5.8260    0.0000 C   0  0  0  0  0  0  0  0  0  0  0  0
    1.1454   -5.1542    0.0000 C   0  0  0  0  0  0  0  0  0  0  0  0
  1  2  2  0  0  0  0
  1  3  1  0  0  0  0
  1  5  1  0  0  0  0
  2  7  1  0  0  0  0
  2 10  1  0  0  0  0
  3 12  1  0  0  0  0
  3 14  2  0  0  0  0
  4  6  1  0  0  0  0
  4 13  1  0  0  0  0
  4 15  2  0  0  0  0
  5  6  2  0  0  0  0
  6  8  1  0  0  0  0
  7 18  1  0  0  0  0
  7  8  2  0  0  0  0
  9 10  1  0  0  0  0
  9 11  1  0  0  0  0
  9 16  2  0  0  0  0
 11 17  2  0  0  0  0
 17 19  1  0  0  0  0
 17 20  1  0  0  0  0
 18 21  1  0  0  0  0
 18 22  1  0  0  0  0
 21 23  1  0  0  0  0
M  END
> <ID>
7648

> <Formula>
C15H18N2O6

> <FW>
322.3132

> <DSSTox_CID>
20269

> <DSSTox_RID>
79462

> <DSSTox_GSID>
40269

> <DSSTox_FileID_Sort>
4144

> <TS_ChemName>
Binapacryl

> <TS_ChemName_Synonyms>


> <TS_CASRN>
485-31-4

> <CASRN_ChemName_Relationship>
primary

> <TS_Description>
single chemical compound

> <ChemNote>


> <STRUCTURE_Shown>
tested chemical

> <STRUCTURE_Formula>
C15H18N2O6

> <STRUCTURE_MW>
322.3132

> <STRUCTURE_ChemType>
defined organic

> <STRUCTURE_DefinedOrganicForm>
parent

> <STRUCTURE_IUPAC>
2-(butan-2-yl)-4,6-dinitrophenyl 3-methylbut-2-enoate

> <STRUCTURE_SMILES>
O=C(Oc1c(cc(cc1[N+]([O-])=O)[N+]([O-])=O)C(C)CC)\C=C(/C)C

> <STRUCTURE_SMILES_Desalt>
O=C(Oc1c(cc(cc1[N+]([O-])=O)[N+]([O-])=O)C(C)CC)\C=C(/C)C

> <Substance_modify_yyyymmdd>
20080429

$$$$
