485-47-2
ChemmineR-0915142007XD

 13 14  0  0  0  0  0  0  0  0  1 V2000
    0.0000   -2.7933    0.0000 O   0  0  0  0  0  0  0  0  0  0  0  0
    1.3021   -2.5177    0.0000 C   0  0  0  0  0  0  0  0  0  0  0  0
    2.2908   -3.4092    0.0000 C   0  0  0  0  0  0  0  0  0  0  0  0
    3.4416   -2.7392    0.0000 C   0  0  0  0  0  0  0  0  0  0  0  0
    3.1661   -1.4426    0.0000 C   0  0  0  0  0  0  0  0  0  0  0  0
    4.0575   -0.4538    0.0000 O   0  0  0  0  0  0  0  0  0  0  0  0
    4.5924   -3.4092    0.0000 C   0  0  0  0  0  0  0  0  0  0  0  0
    4.5924   -4.7383    0.0000 C   0  0  0  0  0  0  0  0  0  0  0  0
    3.4416   -5.4029    0.0000 C   0  0  0  0  0  0  0  0  0  0  0  0
    2.2908   -4.7383    0.0000 C   0  0  0  0  0  0  0  0  0  0  0  0
    1.8424   -1.3021    0.0000 C   0  0  0  0  0  0  0  0  0  0  0  0
    0.5781   -0.8915    0.0000 O   0  0  0  0  0  0  0  0  0  0  0  0
    2.1179    0.0000    0.0000 O   0  0  0  0  0  0  0  0  0  0  0  0
  1  2  2  0  0  0  0
  2  3  1  0  0  0  0
  2 11  1  0  0  0  0
  3  4  2  0  0  0  0
  3 10  1  0  0  0  0
  4  5  1  0  0  0  0
  4  7  1  0  0  0  0
  5  6  2  0  0  0  0
  5 11  1  0  0  0  0
  7  8  2  0  0  0  0
  8  9  1  0  0  0  0
  9 10  2  0  0  0  0
 11 12  1  0  0  0  0
 11 13  1  0  0  0  0
M  END
> <ID>
4365

> <Formula>
C9H6O4

> <FW>
178.1415

> <DSSTox_CID>
5716

> <DSSTox_RID>
77890

> <DSSTox_GSID>
25716

> <DSSTox_FileID_Sort>
2573

> <TS_ChemName>
Ninhydrin

> <TS_ChemName_Synonyms>


> <TS_CASRN>
485-47-2

> <CASRN_ChemName_Relationship>
primary

> <TS_Description>
single chemical compound

> <ChemNote>


> <STRUCTURE_Shown>
tested chemical

> <STRUCTURE_Formula>
C9H6O4

> <STRUCTURE_MW>
178.1415

> <STRUCTURE_ChemType>
defined organic

> <STRUCTURE_DefinedOrganicForm>
parent

> <STRUCTURE_IUPAC>
2,2-dihydroxy-1H-indene-1,3(2H)-dione

> <STRUCTURE_SMILES>
O=C2c1ccccc1C(=O)C2(O)O

> <STRUCTURE_SMILES_Desalt>
O=C2c1ccccc1C(=O)C2(O)O

> <Substance_modify_yyyymmdd>
20080429

$$$$
