486-79-3
ChemmineR-0915142007XD

 17 17  0  0  0  0  0  0  0  0  1 V2000
    1.1514   -2.0149    0.0000 C   0  0  0  0  0  0  0  0  0  0  0  0
    2.3028   -2.6911    0.0000 C   0  0  0  0  0  0  0  0  0  0  0  0
    1.1514   -0.7029    0.0000 C   0  0  0  0  0  0  0  0  0  0  0  0
    2.3028   -4.0165    0.0000 C   0  0  0  0  0  0  0  0  0  0  0  0
    3.4408   -2.0149    0.0000 O   0  0  0  0  0  0  0  0  0  0  0  0
    3.4408   -4.6926    0.0000 O   0  0  0  0  0  0  0  0  0  0  0  0
    4.5654   -2.6777    0.0000 C   0  0  0  0  0  0  0  0  0  0  0  0
    3.4408   -5.9913    0.0000 C   0  0  0  0  0  0  0  0  0  0  0  0
    0.0335   -0.0335    0.0000 O   0  0  0  0  0  0  0  0  0  0  0  0
    5.7034   -2.0149    0.0000 O   0  0  0  0  0  0  0  0  0  0  0  0
    4.5654   -6.6473    0.0000 O   0  0  0  0  0  0  0  0  0  0  0  0
    2.2760    0.0000    0.0000 O   0  0  0  0  0  0  0  0  0  0  0  0
    0.0000   -2.6911    0.0000 C   0  0  0  0  0  0  0  0  0  0  0  0
    1.1514   -4.6926    0.0000 C   0  0  0  0  0  0  0  0  0  0  0  0
    0.0000   -4.0165    0.0000 C   0  0  0  0  0  0  0  0  0  0  0  0
    2.2292   -6.6942    0.0000 C   0  0  0  0  0  0  0  0  0  0  0  0
    4.5788   -4.0834    0.0000 C   0  0  0  0  0  0  0  0  0  0  0  0
  1  2  1  0  0  0  0
  1  3  1  0  0  0  0
  1 13  2  0  0  0  0
  2  4  2  0  0  0  0
  2  5  1  0  0  0  0
  3  9  2  0  0  0  0
  3 12  1  0  0  0  0
  4  6  1  0  0  0  0
  4 14  1  0  0  0  0
  5  7  1  0  0  0  0
  6  8  1  0  0  0  0
  7 10  2  0  0  0  0
  7 17  1  0  0  0  0
  8 11  2  0  0  0  0
  8 16  1  0  0  0  0
 13 15  1  0  0  0  0
 14 15  2  0  0  0  0
M  END
> <ID>
11335

> <Formula>
C11H10O6

> <FW>
238.1935

> <DSSTox_CID>
25976

> <DSSTox_RID>
81267

> <DSSTox_GSID>
45976

> <DSSTox_FileID_Sort>
5948

> <TS_ChemName>
Dipyrocetyl

> <TS_ChemName_Synonyms>


> <TS_CASRN>
486-79-3

> <CASRN_ChemName_Relationship>
primary

> <TS_Description>
single chemical compound

> <ChemNote>


> <STRUCTURE_Shown>
tested chemical

> <STRUCTURE_Formula>
C11H10O6

> <STRUCTURE_MW>
238.1935

> <STRUCTURE_ChemType>
defined organic

> <STRUCTURE_DefinedOrganicForm>
parent

> <STRUCTURE_IUPAC>
2,3-bis(acetyloxy)benzoic acid

> <STRUCTURE_SMILES>
O=C(C)Oc1cccc(c1OC(C)=O)C(=O)O

> <STRUCTURE_SMILES_Desalt>
O=C(C)Oc1cccc(c1OC(C)=O)C(=O)O

> <Substance_modify_yyyymmdd>
20110825

$$$$
