486-12-4
ChemmineR-0915142007XD

 21 23  0  0  0  0  0  0  0  0  1 V2000
    1.1349   -2.6572    0.0000 N   0  0  0  0  0  0  0  0  0  0  0  0
    0.0000   -1.9816    0.0000 C   0  0  0  0  0  0  0  0  0  0  0  0
    2.2879   -1.9816    0.0000 C   0  0  0  0  0  0  0  0  0  0  0  0
    2.2879   -0.6575    0.0000 C   0  0  0  0  0  0  0  0  0  0  0  0
    0.0000   -0.6575    0.0000 C   0  0  0  0  0  0  0  0  0  0  0  0
    1.1349    0.0000    0.0000 C   0  0  0  0  0  0  0  0  0  0  0  0
    3.4498   -2.6572    0.0000 C   0  0  0  0  0  0  0  0  0  0  0  0
    4.6027   -1.9816    0.0000 C   0  0  0  0  0  0  0  0  0  0  0  0
    5.7557   -2.6572    0.0000 C   0  0  0  0  0  0  0  0  0  0  0  0
    3.4498   -3.9722    0.0000 C   0  0  0  0  0  0  0  0  0  0  0  0
    4.6027   -4.6478    0.0000 C   0  0  0  0  0  0  0  0  0  0  0  0
    2.2879   -4.6478    0.0000 C   0  0  0  0  0  0  0  0  0  0  0  0
    4.6027   -5.9718    0.0000 C   0  0  0  0  0  0  0  0  0  0  0  0
    2.2879   -5.9718    0.0000 C   0  0  0  0  0  0  0  0  0  0  0  0
    3.4498   -6.6294    0.0000 C   0  0  0  0  0  0  0  0  0  0  0  0
    3.4498   -7.9624    0.0000 C   0  0  0  0  0  0  0  0  0  0  0  0
    6.9086   -1.9816    0.0000 N   0  0  0  0  0  0  0  0  0  0  0  0
    7.0347   -0.6665    0.0000 C   0  0  0  0  0  0  0  0  0  0  0  0
    8.1246   -2.5310    0.0000 C   0  0  0  0  0  0  0  0  0  0  0  0
    8.3317   -0.3783    0.0000 C   0  0  0  0  0  0  0  0  0  0  0  0
    9.0073   -1.5312    0.0000 C   0  0  0  0  0  0  0  0  0  0  0  0
  1  2  2  0  0  0  0
  1  3  1  0  0  0  0
  2  5  1  0  0  0  0
  3  4  2  0  0  0  0
  3  7  1  0  0  0  0
  4  6  1  0  0  0  0
  5  6  2  0  0  0  0
  7  8  2  0  0  0  0
  7 10  1  0  0  0  0
  8  9  1  0  0  0  0
  9 17  1  0  0  0  0
 10 11  2  0  0  0  0
 10 12  1  0  0  0  0
 11 13  1  0  0  0  0
 12 14  2  0  0  0  0
 13 15  2  0  0  0  0
 14 15  1  0  0  0  0
 15 16  1  0  0  0  0
 17 18  1  0  0  0  0
 17 19  1  0  0  0  0
 18 20  1  0  0  0  0
 19 21  1  0  0  0  0
 20 21  1  0  0  0  0
M  END
> <ID>
3322

> <Formula>
C19H22N2

> <FW>
278.3914

> <DSSTox_CID>
3718

> <DSSTox_RID>
77161

> <DSSTox_GSID>
23718

> <DSSTox_FileID_Sort>
1844

> <TS_ChemName>
Triprolidine

> <TS_ChemName_Synonyms>


> <TS_CASRN>
486-12-4

> <CASRN_ChemName_Relationship>
primary

> <TS_Description>
single chemical compound

> <ChemNote>
stereochem

> <STRUCTURE_Shown>
tested chemical

> <STRUCTURE_Formula>
C19H22N2

> <STRUCTURE_MW>
278.3914

> <STRUCTURE_ChemType>
defined organic

> <STRUCTURE_DefinedOrganicForm>
parent

> <STRUCTURE_IUPAC>
2-[(1E)-1-(4-methylphenyl)-3-(pyrrolidin-1-yl)prop-1-en-1-yl]pyridine

> <STRUCTURE_SMILES>
Cc1ccc(cc1)C(=C\CN2CCCC2)/c3ccccn3

> <STRUCTURE_SMILES_Desalt>
Cc1ccc(cc1)C(=C\CN2CCCC2)/c3ccccn3

> <Substance_modify_yyyymmdd>
20080429

$$$$
