486-56-6
ChemmineR-0915142007XD

 13 14  0  0  1  0  0  0  0  0  1 V2000
    4.7477   -1.2684    0.0000 N   0  0  0  0  0  0  0  0  0  0  0  0
    3.9753   -2.3243    0.0000 C   0  0  0  0  0  0  0  0  0  0  0  0
    6.0303   -1.6794    0.0000 C   0  0  0  0  0  0  0  0  0  0  0  0
    4.7477   -3.4155    0.0000 C   0  0  0  0  0  0  0  0  0  0  0  0
    2.6644   -2.3243    0.0000 C   0  0  0  0  0  0  0  0  0  0  0  0
    6.0303   -2.9974    0.0000 C   0  0  0  0  0  0  0  0  0  0  0  0
    7.0861   -0.8929    0.0000 O   0  0  0  0  0  0  0  0  0  0  0  0
    0.6590   -1.1834    0.0000 N   0  0  0  0  0  0  0  0  0  0  0  0
    4.3296    0.0000    0.0000 C   0  0  0  0  0  0  0  0  0  0  0  0
    1.9912   -1.1834    0.0000 C   0  0  0  0  0  0  0  0  0  0  0  0
    1.9912   -3.4935    0.0000 C   0  0  0  0  0  0  0  0  0  0  0  0
    0.0000   -2.3243    0.0000 C   0  0  0  0  0  0  0  0  0  0  0  0
    0.6590   -3.4935    0.0000 C   0  0  0  0  0  0  0  0  0  0  0  0
  1  2  1  0  0  0  0
  1  3  1  0  0  0  0
  1  9  1  0  0  0  0
  2  4  1  0  0  0  0
  2  5  1  1  0  0  0
  3  6  1  0  0  0  0
  3  7  2  0  0  0  0
  4  6  1  0  0  0  0
  5 10  2  0  0  0  0
  5 11  1  0  0  0  0
  8 10  1  0  0  0  0
  8 12  2  0  0  0  0
 11 13  2  0  0  0  0
 12 13  1  0  0  0  0
M  END
> <ID>
12698

> <Formula>
C10H12N2O

> <FW>
176.2151

> <DSSTox_CID>
27576

> <DSSTox_RID>
82428

> <DSSTox_GSID>
47576

> <DSSTox_FileID_Sort>
7109

> <TS_ChemName>
Cotinine

> <TS_ChemName_Synonyms>
(-)-Cotinine

> <TS_CASRN>
486-56-6

> <CASRN_ChemName_Relationship>
primary

> <TS_Description>
single chemical compound

> <ChemNote>
stereochem; rotation (-)

> <STRUCTURE_Shown>
tested chemical

> <STRUCTURE_Formula>
C10H12N2O

> <STRUCTURE_MW>
176.2151

> <STRUCTURE_ChemType>
defined organic

> <STRUCTURE_DefinedOrganicForm>
parent

> <STRUCTURE_IUPAC>
(5S)-1-methyl-5-(pyridin-3-yl)pyrrolidin-2-one

> <STRUCTURE_SMILES>
CN2C(=O)CC[C@H]2c1cnccc1

> <STRUCTURE_SMILES_Desalt>
CN2C(=O)CC[C@H]2c1cnccc1

> <Substance_modify_yyyymmdd>
20100930

$$$$
