486-25-9
ChemmineR-0915142007XD

 14 16  0  0  0  0  0  0  0  0  1 V2000
    0.3976   -0.2738    0.0000 C   0  0  0  0  0  0  0  0  0  0  0  0
    6.1205   -0.2738    0.0000 C   0  0  0  0  0  0  0  0  0  0  0  0
    0.0000   -1.5383    0.0000 C   0  0  0  0  0  0  0  0  0  0  0  0
    6.5181   -1.5383    0.0000 C   0  0  0  0  0  0  0  0  0  0  0  0
    1.6947    0.0000    0.0000 C   0  0  0  0  0  0  0  0  0  0  0  0
    4.8234    0.0000    0.0000 C   0  0  0  0  0  0  0  0  0  0  0  0
    0.8799   -2.5290    0.0000 C   0  0  0  0  0  0  0  0  0  0  0  0
    5.6381   -2.5290    0.0000 C   0  0  0  0  0  0  0  0  0  0  0  0
    2.5942   -0.9973    0.0000 C   0  0  0  0  0  0  0  0  0  0  0  0
    3.9239   -0.9973    0.0000 C   0  0  0  0  0  0  0  0  0  0  0  0
    2.1770   -2.2618    0.0000 C   0  0  0  0  0  0  0  0  0  0  0  0
    4.3410   -2.2618    0.0000 C   0  0  0  0  0  0  0  0  0  0  0  0
    3.2656   -3.0439    0.0000 C   0  0  0  0  0  0  0  0  0  0  0  0
    3.2656   -4.3736    0.0000 O   0  0  0  0  0  0  0  0  0  0  0  0
  1  3  2  0  0  0  0
  1  5  1  0  0  0  0
  2  4  2  0  0  0  0
  2  6  1  0  0  0  0
  3  7  1  0  0  0  0
  4  8  1  0  0  0  0
  5  9  2  0  0  0  0
  6 10  2  0  0  0  0
  7 11  2  0  0  0  0
  8 12  2  0  0  0  0
  9 10  1  0  0  0  0
  9 11  1  0  0  0  0
 10 12  1  0  0  0  0
 11 13  1  0  0  0  0
 12 13  1  0  0  0  0
 13 14  2  0  0  0  0
M  END
> <ID>
14171

> <Formula>
C13H8O

> <FW>
180.202

> <DSSTox_CID>
29263

> <DSSTox_RID>
83382

> <DSSTox_GSID>
49307

> <DSSTox_FileID_Sort>
8057

> <TS_ChemName>
9-Fluorenone

> <TS_ChemName_Synonyms>


> <TS_CASRN>
486-25-9

> <CASRN_ChemName_Relationship>
primary

> <TS_Description>
single chemical compound

> <ChemNote>


> <STRUCTURE_Shown>
tested chemical

> <STRUCTURE_Formula>
C13H8O

> <STRUCTURE_MW>
180.202

> <STRUCTURE_ChemType>
defined organic

> <STRUCTURE_DefinedOrganicForm>
parent

> <STRUCTURE_IUPAC>
9H-fluoren-9-one

> <STRUCTURE_SMILES>
O=C3c1ccccc1c2ccccc23

> <STRUCTURE_SMILES_Desalt>
O=C3c1ccccc1c2ccccc23

> <Substance_modify_yyyymmdd>
20111204

$$$$
