4860-03-1
ChemmineR-0915142007XD

 17 16  0  0  0  0  0  0  0  0  1 V2000
    1.2043    0.0000    0.0000 C    0  0  0  0  0  0  0  0  0  0  0  0
    2.3897   -0.6210    0.0000 C    0  0  0  0  0  0  0  0  0  0  0  0
    3.5187    0.0000    0.0000 C    0  0  0  0  0  0  0  0  0  0  0  0
    4.7042   -0.6210    0.0000 C    0  0  0  0  0  0  0  0  0  0  0  0
    5.9085    0.0000    0.0000 C    0  0  0  0  0  0  0  0  0  0  0  0
    7.0939   -0.6210    0.0000 C    0  0  0  0  0  0  0  0  0  0  0  0
    8.2230    0.0000    0.0000 C    0  0  0  0  0  0  0  0  0  0  0  0
    9.4084   -0.6210    0.0000 C    0  0  0  0  0  0  0  0  0  0  0  0
   10.5939    0.0000    0.0000 C    0  0  0  0  0  0  0  0  0  0  0  0
   11.7982   -0.6210    0.0000 C    0  0  0  0  0  0  0  0  0  0  0  0
   12.9836    0.0000    0.0000 C    0  0  0  0  0  0  0  0  0  0  0  0
   14.1126   -0.6210    0.0000 C    0  0  0  0  0  0  0  0  0  0  0  0
   15.2981    0.0000    0.0000 C    0  0  0  0  0  0  0  0  0  0  0  0
   16.5024   -0.6210    0.0000 C    0  0  0  0  0  0  0  0  0  0  0  0
   17.6126    0.0000    0.0000 C    0  0  0  0  0  0  0  0  0  0  0  0
   18.8168   -0.6210    0.0000 C    0  0  0  0  0  0  0  0  0  0  0  0
    0.0000   -0.6210    0.0000 Cl   0  0  0  0  0  0  0  0  0  0  0  0
  1  2  1  0  0  0  0
  1 17  1  0  0  0  0
  2  3  1  0  0  0  0
  3  4  1  0  0  0  0
  4  5  1  0  0  0  0
  5  6  1  0  0  0  0
  6  7  1  0  0  0  0
  7  8  1  0  0  0  0
  8  9  1  0  0  0  0
  9 10  1  0  0  0  0
 10 11  1  0  0  0  0
 11 12  1  0  0  0  0
 12 13  1  0  0  0  0
 13 14  1  0  0  0  0
 14 15  1  0  0  0  0
 15 16  1  0  0  0  0
M  END
> <ID>
5264

> <Formula>
C16H33Cl

> <FW>
260.8862

> <DSSTox_CID>
7580

> <DSSTox_RID>
78511

> <DSSTox_GSID>
27580

> <DSSTox_FileID_Sort>
3194

> <TS_ChemName>
Hexadecane, 1-chloro-

> <TS_ChemName_Synonyms>


> <TS_CASRN>
4860-03-1

> <CASRN_ChemName_Relationship>
primary

> <TS_Description>
single chemical compound

> <ChemNote>


> <STRUCTURE_Shown>
tested chemical

> <STRUCTURE_Formula>
C16H33Cl

> <STRUCTURE_MW>
260.8862

> <STRUCTURE_ChemType>
defined organic

> <STRUCTURE_DefinedOrganicForm>
parent

> <STRUCTURE_IUPAC>
1-chlorohexadecane

> <STRUCTURE_SMILES>
CCCCCCCCCCCCCCCCCl

> <STRUCTURE_SMILES_Desalt>
CCCCCCCCCCCCCCCCCl

> <Substance_modify_yyyymmdd>
20080429

$$$$
