487-79-6
ChemmineR-0915142007XD

 15 15  0  0  1  0  0  0  0  0  1 V2000
    3.3674   -2.9979    0.0000 C   0  0  0  0  0  0  0  0  0  0  0  0
    2.6890   -0.9751    0.0000 N   0  0  0  0  0  0  0  0  0  0  0  0
    3.7731   -1.7261    0.0000 C   0  0  0  0  0  0  0  0  0  0  0  0
    2.0410   -2.9979    0.0000 C   0  0  0  0  0  0  0  0  0  0  0  0
    5.0510   -1.3021    0.0000 C   0  0  0  0  0  0  0  0  0  0  0  0
    1.6352   -1.7261    0.0000 C   0  0  0  0  0  0  0  0  0  0  0  0
    1.2476   -4.0941    0.0000 C   0  0  0  0  0  0  0  0  0  0  0  0
    4.0214   -4.1789    0.0000 C   0  0  0  0  0  0  0  0  0  0  0  0
    5.3720   -4.1668    0.0000 C   0  0  0  0  0  0  0  0  0  0  0  0
    5.3115    0.0000    0.0000 O   0  0  0  0  0  0  0  0  0  0  0  0
    6.0322   -5.3599    0.0000 O   0  0  0  0  0  0  0  0  0  0  0  0
    0.0000   -4.0941    0.0000 C   0  0  0  0  0  0  0  0  0  0  0  0
    6.0503   -2.1742    0.0000 O   0  0  0  0  0  0  0  0  0  0  0  0
    6.0564   -3.0161    0.0000 O   0  0  0  0  0  0  0  0  0  0  0  0
    1.7987   -5.3115    0.0000 C   0  0  0  0  0  0  0  0  0  0  0  0
  1  3  1  0  0  0  0
  1  4  1  0  0  0  0
  1  8  1  1  0  0  0
  2  3  1  0  0  0  0
  2  6  1  0  0  0  0
  3  5  1  6  0  0  0
  4  6  1  0  0  0  0
  4  7  1  1  0  0  0
  5 10  2  0  0  0  0
  5 13  1  0  0  0  0
  7 12  2  0  0  0  0
  7 15  1  0  0  0  0
  8  9  1  0  0  0  0
  9 11  2  0  0  0  0
  9 14  1  0  0  0  0
M  END
> <ID>
7785

> <Formula>
C10H15NO4

> <FW>
213.2304

> <DSSTox_CID>
20526

> <DSSTox_RID>
79503

> <DSSTox_GSID>
40526

> <DSSTox_FileID_Sort>
4185

> <TS_ChemName>
Kainic acid

> <TS_ChemName_Synonyms>


> <TS_CASRN>
487-79-6

> <CASRN_ChemName_Relationship>
primary

> <TS_Description>
single chemical compound

> <ChemNote>
stereochem

> <STRUCTURE_Shown>
tested chemical

> <STRUCTURE_Formula>
C10H15NO4

> <STRUCTURE_MW>
213.2304

> <STRUCTURE_ChemType>
defined organic

> <STRUCTURE_DefinedOrganicForm>
parent

> <STRUCTURE_IUPAC>
(3S,4S)-3-(carboxymethyl)-4-prop-1-en-2-yl-L-proline

> <STRUCTURE_SMILES>
CC(=C)[C@H]1CN[C@@H]([C@H]1CC(=O)O)C(=O)O

> <STRUCTURE_SMILES_Desalt>
CC(=C)[C@H]1CN[C@@H]([C@H]1CC(=O)O)C(=O)O

> <Substance_modify_yyyymmdd>
20080429

$$$$
