487-06-9
ChemmineR-0915142007XD

 15 16  0  0  0  0  0  0  0  0  1 V2000
    4.6165   -0.6572    0.0000 C   0  0  0  0  0  0  0  0  0  0  0  0
    4.6165   -1.9959    0.0000 C   0  0  0  0  0  0  0  0  0  0  0  0
    5.7605    0.0000    0.0000 O   0  0  0  0  0  0  0  0  0  0  0  0
    5.7605   -2.6368    0.0000 C   0  0  0  0  0  0  0  0  0  0  0  0
    3.4482   -2.6368    0.0000 C   0  0  0  0  0  0  0  0  0  0  0  0
    6.9207   -0.6572    0.0000 C   0  0  0  0  0  0  0  0  0  0  0  0
    3.4482    0.0000    0.0000 C   0  0  0  0  0  0  0  0  0  0  0  0
    6.9207   -1.9797    0.0000 C   0  0  0  0  0  0  0  0  0  0  0  0
    2.2880   -1.9797    0.0000 C   0  0  0  0  0  0  0  0  0  0  0  0
    2.2880   -0.6572    0.0000 C   0  0  0  0  0  0  0  0  0  0  0  0
    8.1134   -0.0162    0.0000 O   0  0  0  0  0  0  0  0  0  0  0  0
    3.4482   -3.9918    0.0000 O   0  0  0  0  0  0  0  0  0  0  0  0
    1.1440   -0.0162    0.0000 O   0  0  0  0  0  0  0  0  0  0  0  0
    2.3042   -4.6327    0.0000 C   0  0  0  0  0  0  0  0  0  0  0  0
    0.0000   -0.6896    0.0000 C   0  0  0  0  0  0  0  0  0  0  0  0
  1  2  2  0  0  0  0
  1  3  1  0  0  0  0
  1  7  1  0  0  0  0
  2  4  1  0  0  0  0
  2  5  1  0  0  0  0
  3  6  1  0  0  0  0
  4  8  2  0  0  0  0
  5 12  1  0  0  0  0
  5  9  2  0  0  0  0
  6  8  1  0  0  0  0
  6 11  2  0  0  0  0
  7 10  2  0  0  0  0
  9 10  1  0  0  0  0
 10 13  1  0  0  0  0
 12 14  1  0  0  0  0
 13 15  1  0  0  0  0
M  END
> <ID>
8387

> <Formula>
C11H10O4

> <FW>
206.1947

> <DSSTox_CID>
21421

> <DSSTox_RID>
79725

> <DSSTox_GSID>
41421

> <DSSTox_FileID_Sort>
4407

> <TS_ChemName>
5,7-Dimethoxy-2H-chromen-2-one

> <TS_ChemName_Synonyms>
5,7-Dimethoxy-2H-chromen-2-one (2H-1-Benzopyran-2-one, 5,7-dimethoxy-) (5,7-Dimethoxycoumarin)

> <TS_CASRN>
487-06-9

> <CASRN_ChemName_Relationship>
primary

> <TS_Description>
single chemical compound

> <ChemNote>


> <STRUCTURE_Shown>
tested chemical

> <STRUCTURE_Formula>
C11H10O4

> <STRUCTURE_MW>
206.1947

> <STRUCTURE_ChemType>
defined organic

> <STRUCTURE_DefinedOrganicForm>
parent

> <STRUCTURE_IUPAC>
5,7-dimethoxy-2H-chromen-2-one

> <STRUCTURE_SMILES>
COc2cc(cc1OC(=O)C=Cc12)OC

> <STRUCTURE_SMILES_Desalt>
COc2cc(cc1OC(=O)C=Cc12)OC

> <Substance_modify_yyyymmdd>
20080825

$$$$
