487-93-4
ChemmineR-0915142007XD

 15 16  0  0  0  0  0  0  0  0  1 V2000
    4.6883   -0.2433    0.0000 N   0  0  0  0  0  0  0  0  0  0  0  0
    3.4391   -1.9872    0.0000 C   0  0  0  0  0  0  0  0  0  0  0  0
    4.6883   -2.4090    0.0000 C   0  0  0  0  0  0  0  0  0  0  0  0
    5.4750   -1.3383    0.0000 C   0  0  0  0  0  0  0  0  0  0  0  0
    3.4391   -0.6651    0.0000 C   0  0  0  0  0  0  0  0  0  0  0  0
    2.2792   -2.6686    0.0000 C   0  0  0  0  0  0  0  0  0  0  0  0
    5.1019   -3.6663    0.0000 C   0  0  0  0  0  0  0  0  0  0  0  0
    2.2792    0.0000    0.0000 C   0  0  0  0  0  0  0  0  0  0  0  0
    1.1275   -1.9872    0.0000 C   0  0  0  0  0  0  0  0  0  0  0  0
    6.8215   -5.1993    0.0000 N   0  0  0  0  0  0  0  0  0  0  0  0
    6.4159   -3.9420    0.0000 C   0  0  0  0  0  0  0  0  0  0  0  0
    1.1275   -0.6651    0.0000 C   0  0  0  0  0  0  0  0  0  0  0  0
    0.0000   -2.6686    0.0000 O   0  0  0  0  0  0  0  0  0  0  0  0
    5.9293   -6.2051    0.0000 C   0  0  0  0  0  0  0  0  0  0  0  0
    8.1112   -5.4913    0.0000 C   0  0  0  0  0  0  0  0  0  0  0  0
  1  4  1  0  0  0  0
  1  5  1  0  0  0  0
  2  5  2  0  0  0  0
  2  6  1  0  0  0  0
  2  3  1  0  0  0  0
  3  4  2  0  0  0  0
  3  7  1  0  0  0  0
  5  8  1  0  0  0  0
  6  9  2  0  0  0  0
  7 11  1  0  0  0  0
  8 12  2  0  0  0  0
  9 12  1  0  0  0  0
  9 13  1  0  0  0  0
 10 11  1  0  0  0  0
 10 14  1  0  0  0  0
 10 15  1  0  0  0  0
M  END
> <ID>
13883

> <Formula>
C12H16N2O

> <FW>
204.2682

> <DSSTox_CID>
28820

> <DSSTox_RID>
83089

> <DSSTox_GSID>
48894

> <DSSTox_FileID_Sort>
7766

> <TS_ChemName>
Bufotenine

> <TS_ChemName_Synonyms>


> <TS_CASRN>
487-93-4

> <CASRN_ChemName_Relationship>
primary

> <TS_Description>
single chemical compound

> <ChemNote>


> <STRUCTURE_Shown>
tested chemical

> <STRUCTURE_Formula>
C12H16N2O

> <STRUCTURE_MW>
204.2682

> <STRUCTURE_ChemType>
defined organic

> <STRUCTURE_DefinedOrganicForm>
parent

> <STRUCTURE_IUPAC>
3-[2-(dimethylamino)ethyl]-1H-indol-5-ol

> <STRUCTURE_SMILES>
CN(C)CCc2cnc1ccc(O)cc12

> <STRUCTURE_SMILES_Desalt>
CN(C)CCc2cnc1ccc(O)cc12

> <Substance_modify_yyyymmdd>
20111204

$$$$
