488-82-4
ChemmineR-0915142007XD

 10  9  0  0  1  0  0  0  0  0  1 V2000
    0.0000   -1.9869    0.0000 O   0  0  0  0  0  0  0  0  0  0  0  0
    1.1561   -1.3292    0.0000 C   0  0  0  0  0  0  0  0  0  0  0  0
    2.3122   -1.9869    0.0000 C   0  0  0  0  0  0  0  0  0  0  0  0
    3.4684   -1.3292    0.0000 C   0  0  0  0  0  0  0  0  0  0  0  0
    2.3122   -3.3230    0.0000 O   0  0  0  0  0  0  0  0  0  0  0  0
    4.6245   -1.9869    0.0000 C   0  0  0  0  0  0  0  0  0  0  0  0
    3.4684    0.0000    0.0000 O   0  0  0  0  0  0  0  0  0  0  0  0
    4.6245   -3.3230    0.0000 O   0  0  0  0  0  0  0  0  0  0  0  0
    5.7668   -1.3292    0.0000 C   0  0  0  0  0  0  0  0  0  0  0  0
    6.9229   -1.9869    0.0000 O   0  0  0  0  0  0  0  0  0  0  0  0
  1  2  1  0  0  0  0
  2  3  1  0  0  0  0
  3  4  1  0  0  0  0
  3  5  1  6  0  0  0
  4  6  1  0  0  0  0
  4  7  1  1  0  0  0
  6  8  1  1  0  0  0
  6  9  1  0  0  0  0
  9 10  1  0  0  0  0
M  END
> <ID>
11337

> <Formula>
C5H12O5

> <FW>
152.1458

> <DSSTox_CID>
25979

> <DSSTox_RID>
81269

> <DSSTox_GSID>
45979

> <DSSTox_FileID_Sort>
5950

> <TS_ChemName>
D-Arabinitol

> <TS_ChemName_Synonyms>


> <TS_CASRN>
488-82-4

> <CASRN_ChemName_Relationship>
primary

> <TS_Description>
single chemical compound

> <ChemNote>
stereochem

> <STRUCTURE_Shown>
tested chemical

> <STRUCTURE_Formula>
C5H12O5

> <STRUCTURE_MW>
152.1458

> <STRUCTURE_ChemType>
defined organic

> <STRUCTURE_DefinedOrganicForm>
parent

> <STRUCTURE_IUPAC>
D-arabinitol

> <STRUCTURE_SMILES>
O[C@H](CO)[C@H](O)[C@H](O)CO

> <STRUCTURE_SMILES_Desalt>
O[C@H](CO)[C@H](O)[C@H](O)CO

> <Substance_modify_yyyymmdd>
20110825

$$$$
