4880-88-0
ChemmineR-0915142007XD

 23 27  0  0  1  0  0  0  0  0  1 V2000
    3.3182   -2.5704    0.0000 N   0  0  0  0  0  0  0  0  0  0  0  0
    4.4398   -1.9317    0.0000 C   0  0  0  0  0  0  0  0  0  0  0  0
    4.4398   -0.6231    0.0000 C   0  0  0  0  0  0  0  0  0  0  0  0
    3.3182   -3.8479    0.0000 C   0  0  0  0  0  0  0  0  0  0  0  0
    2.2433   -1.9317    0.0000 C   0  0  0  0  0  0  0  0  0  0  0  0
    5.5459   -2.5704    0.0000 C   0  0  0  0  0  0  0  0  0  0  0  0
    5.5459   -3.8479    0.0000 C   0  0  0  0  0  0  0  0  0  0  0  0
    2.2433   -0.6231    0.0000 C   0  0  0  0  0  0  0  0  0  0  0  0
    6.6831   -1.9317    0.0000 N   0  0  0  0  0  0  0  0  0  0  0  0
    4.4398   -4.5022    0.0000 C   0  0  0  0  0  0  0  0  0  0  0  0
    5.5459    0.0000    0.0000 C   0  0  0  0  0  0  0  0  0  0  0  0
    2.1966   -4.5489    0.0000 O   0  0  0  0  0  0  0  0  0  0  0  0
    6.6831   -0.6231    0.0000 C   0  0  0  0  0  0  0  0  0  0  0  0
    6.6831   -4.5022    0.0000 C   0  0  0  0  0  0  0  0  0  0  0  0
    5.5926   -5.3278    0.0000 C   0  0  0  0  0  0  0  0  0  0  0  0
    1.1061   -2.5704    0.0000 C   0  0  0  0  0  0  0  0  0  0  0  0
    7.7892   -2.5704    0.0000 C   0  0  0  0  0  0  0  0  0  0  0  0
    1.1061    0.0000    0.0000 C   0  0  0  0  0  0  0  0  0  0  0  0
    7.7892   -3.8479    0.0000 C   0  0  0  0  0  0  0  0  0  0  0  0
    6.6987   -6.0444    0.0000 C   0  0  0  0  0  0  0  0  0  0  0  0
    0.0000   -1.9317    0.0000 C   0  0  0  0  0  0  0  0  0  0  0  0
    0.0000   -0.6231    0.0000 C   0  0  0  0  0  0  0  0  0  0  0  0
    5.5615   -1.3397    0.0000 H   0  0  0  0  0  0  0  0  0  0  0  0
  1  2  1  0  0  0  0
  1  4  1  0  0  0  0
  1  5  1  0  0  0  0
  2  3  2  0  0  0  0
  2  6  1  0  0  0  0
  3 11  1  0  0  0  0
  3  8  1  0  0  0  0
  4 10  1  0  0  0  0
  4 12  2  0  0  0  0
  5  8  2  0  0  0  0
  5 16  1  0  0  0  0
  6  9  1  0  0  0  0
  6 23  1  6  0  0  0
  6  7  1  0  0  0  0
  7 10  1  0  0  0  0
  7 14  1  0  0  0  0
  7 15  1  6  0  0  0
  8 18  1  0  0  0  0
  9 13  1  0  0  0  0
  9 17  1  0  0  0  0
 11 13  1  0  0  0  0
 14 19  1  0  0  0  0
 15 20  1  0  0  0  0
 16 21  2  0  0  0  0
 17 19  1  0  0  0  0
 18 22  2  0  0  0  0
 21 22  1  0  0  0  0
M  END
> <ID>
10753

> <Formula>
C19H22N2O

> <FW>
294.3908

> <DSSTox_CID>
25119

> <DSSTox_RID>
80685

> <DSSTox_GSID>
45119

> <DSSTox_FileID_Sort>
5367

> <TS_ChemName>
(-)-Eburnamonine

> <TS_ChemName_Synonyms>


> <TS_CASRN>
4880-88-0

> <CASRN_ChemName_Relationship>
primary

> <TS_Description>
single chemical compound

> <ChemNote>
stereochem

> <STRUCTURE_Shown>
tested chemical

> <STRUCTURE_Formula>
C19H22N2O

> <STRUCTURE_MW>
294.3908

> <STRUCTURE_ChemType>
defined organic

> <STRUCTURE_DefinedOrganicForm>
parent

> <STRUCTURE_IUPAC>
(3alpha,16alpha)-14,15-dihydroeburnamenin-14-one

> <STRUCTURE_SMILES>
O=C1C[C@@]5(CCCN4CCc3c(n1c2ccccc23)[C@@H]45)CC

> <STRUCTURE_SMILES_Desalt>
O=C1C[C@@]5(CCCN4CCc3c(n1c2ccccc23)[C@@H]45)CC

> <Substance_modify_yyyymmdd>
20100107

$$$$
