489-01-0
ChemmineR-0915142007XD

 17 17  0  0  0  0  0  0  0  0  1 V2000
    3.4142   -1.3030    0.0000 C   0  0  0  0  0  0  0  0  0  0  0  0
    3.4142    0.0000    0.0000 O   0  0  0  0  0  0  0  0  0  0  0  0
    4.5429   -1.9928    0.0000 C   0  0  0  0  0  0  0  0  0  0  0  0
    2.2506   -1.9928    0.0000 C   0  0  0  0  0  0  0  0  0  0  0  0
    2.2506   -3.3027    0.0000 C   0  0  0  0  0  0  0  0  0  0  0  0
    4.5429   -3.3027    0.0000 C   0  0  0  0  0  0  0  0  0  0  0  0
    3.4142   -3.9437    0.0000 C   0  0  0  0  0  0  0  0  0  0  0  0
    5.8529   -1.2403    0.0000 C   0  0  0  0  0  0  0  0  0  0  0  0
    6.4939   -2.4039    0.0000 C   0  0  0  0  0  0  0  0  0  0  0  0
    6.9677   -0.5783    0.0000 C   0  0  0  0  0  0  0  0  0  0  0  0
    5.2397   -0.0279    0.0000 C   0  0  0  0  0  0  0  0  0  0  0  0
    1.1148   -1.3378    0.0000 C   0  0  0  0  0  0  0  0  0  0  0  0
    1.7768   -0.1742    0.0000 C   0  0  0  0  0  0  0  0  0  0  0  0
    0.0000   -0.6759    0.0000 C   0  0  0  0  0  0  0  0  0  0  0  0
    0.4738   -2.4666    0.0000 C   0  0  0  0  0  0  0  0  0  0  0  0
    3.4142   -5.2815    0.0000 O   0  0  0  0  0  0  0  0  0  0  0  0
    4.5429   -5.9434    0.0000 C   0  0  0  0  0  0  0  0  0  0  0  0
  1  2  1  0  0  0  0
  1  3  2  0  0  0  0
  1  4  1  0  0  0  0
  3  6  1  0  0  0  0
  3  8  1  0  0  0  0
  4  5  2  0  0  0  0
  4 12  1  0  0  0  0
  5  7  1  0  0  0  0
  6  7  2  0  0  0  0
  7 16  1  0  0  0  0
  8  9  1  0  0  0  0
  8 10  1  0  0  0  0
  8 11  1  0  0  0  0
 12 13  1  0  0  0  0
 12 14  1  0  0  0  0
 12 15  1  0  0  0  0
 16 17  1  0  0  0  0
M  END
> <ID>
8345

> <Formula>
C15H24O2

> <FW>
236.3499

> <DSSTox_CID>
21379

> <DSSTox_RID>
79709

> <DSSTox_GSID>
41379

> <DSSTox_FileID_Sort>
4391

> <TS_ChemName>
2,6-Di-tert-butyl-4-methoxyphenol

> <TS_ChemName_Synonyms>


> <TS_CASRN>
489-01-0

> <CASRN_ChemName_Relationship>
primary

> <TS_Description>
single chemical compound

> <ChemNote>


> <STRUCTURE_Shown>
tested chemical

> <STRUCTURE_Formula>
C15H24O2

> <STRUCTURE_MW>
236.3499

> <STRUCTURE_ChemType>
defined organic

> <STRUCTURE_DefinedOrganicForm>
parent

> <STRUCTURE_IUPAC>
2,6-di-tert-butyl-4-methoxyphenol

> <STRUCTURE_SMILES>
CC(C)(C)c1cc(cc(c1O)C(C)(C)C)OC

> <STRUCTURE_SMILES_Desalt>
CC(C)(C)c1cc(cc(c1O)C(C)(C)C)OC

> <Substance_modify_yyyymmdd>
20080825

$$$$
