489-84-9
ChemmineR-0915142007XD

 15 16  0  0  0  0  0  0  0  0  1 V2000
    4.4785   -2.7966    0.0000 C   0  0  0  0  0  0  0  0  0  0  0  0
    4.4785   -4.1265    0.0000 C   0  0  0  0  0  0  0  0  0  0  0  0
    3.4355   -1.9752    0.0000 C   0  0  0  0  0  0  0  0  0  0  0  0
    2.1513   -2.2686    0.0000 C   0  0  0  0  0  0  0  0  0  0  0  0
    5.7497   -4.5437    0.0000 C   0  0  0  0  0  0  0  0  0  0  0  0
    5.7497   -2.3925    0.0000 C   0  0  0  0  0  0  0  0  0  0  0  0
    3.4355   -4.9609    0.0000 C   0  0  0  0  0  0  0  0  0  0  0  0
    6.5190   -3.4876    0.0000 C   0  0  0  0  0  0  0  0  0  0  0  0
    1.5711   -3.4550    0.0000 C   0  0  0  0  0  0  0  0  0  0  0  0
    2.1513   -4.6741    0.0000 C   0  0  0  0  0  0  0  0  0  0  0  0
    1.3168   -1.2256    0.0000 C   0  0  0  0  0  0  0  0  0  0  0  0
    6.1669   -1.1082    0.0000 C   0  0  0  0  0  0  0  0  0  0  0  0
    3.6962   -6.2647    0.0000 C   0  0  0  0  0  0  0  0  0  0  0  0
    0.0000   -1.4016    0.0000 C   0  0  0  0  0  0  0  0  0  0  0  0
    1.8123    0.0000    0.0000 C   0  0  0  0  0  0  0  0  0  0  0  0
  1  2  1  0  0  0  0
  1  3  1  0  0  0  0
  1  6  2  0  0  0  0
  2  5  1  0  0  0  0
  2  7  2  0  0  0  0
  3  4  2  0  0  0  0
  4  9  1  0  0  0  0
  4 11  1  0  0  0  0
  5  8  2  0  0  0  0
  6  8  1  0  0  0  0
  6 12  1  0  0  0  0
  7 10  1  0  0  0  0
  7 13  1  0  0  0  0
  9 10  2  0  0  0  0
 11 14  1  0  0  0  0
 11 15  1  0  0  0  0
M  END
> <ID>
11347

> <Formula>
C15H18

> <FW>
198.3034

> <DSSTox_CID>
25996

> <DSSTox_RID>
81279

> <DSSTox_GSID>
45996

> <DSSTox_FileID_Sort>
5960

> <TS_ChemName>
Guaiazulene

> <TS_ChemName_Synonyms>


> <TS_CASRN>
489-84-9

> <CASRN_ChemName_Relationship>
primary

> <TS_Description>
single chemical compound

> <ChemNote>


> <STRUCTURE_Shown>
tested chemical

> <STRUCTURE_Formula>
C15H18

> <STRUCTURE_MW>
198.3034

> <STRUCTURE_ChemType>
defined organic

> <STRUCTURE_DefinedOrganicForm>
parent

> <STRUCTURE_IUPAC>
1,4-dimethyl-7-(propan-2-yl)azulene

> <STRUCTURE_SMILES>
CC(C)c1ccc(C)c2ccc(C)c2c1

> <STRUCTURE_SMILES_Desalt>
CC(C)c1ccc(C)c2ccc(C)c2c1

> <Substance_modify_yyyymmdd>
20110824

$$$$
