4891-15-0
ChemmineR-0915142007XD

 36 39  0  0  1  0  0  0  0  0  1 V2000
   12.9232   -1.9780    0.0000 O    0  0  0  0  0  0  0  0  0  0  0  0
   13.1869   -0.0396    0.0000 O    0  0  0  0  0  0  0  0  0  0  0  0
   10.9847    0.0000    0.0000 O    0  0  0  0  0  0  0  0  0  0  0  0
   11.9210   -1.1736    0.0000 P    0  0  0  0  0  0  0  0  0  0  0  0
    9.0594   -3.9956    0.0000 C    0  0  0  0  0  0  0  0  0  0  0  0
    9.0594   -5.3011    0.0000 C    0  0  0  0  0  0  0  0  0  0  0  0
    7.9253   -5.9473    0.0000 C    0  0  0  0  0  0  0  0  0  0  0  0
    1.2000   -7.2528    0.0000 C    0  0  0  0  0  0  0  0  0  0  0  0
    6.7781   -5.3011    0.0000 C    0  0  0  0  0  0  0  0  0  0  0  0
    5.7099   -5.9473    0.0000 C    0  0  0  0  0  0  0  0  0  0  0  0
    5.7099   -7.2528    0.0000 C    0  0  0  0  0  0  0  0  0  0  0  0
    7.9253   -3.3495    0.0000 C    0  0  0  0  0  0  0  0  0  0  0  0
    6.7781   -3.9956    0.0000 C    0  0  0  0  0  0  0  0  0  0  0  0
    2.2813   -7.8990    0.0000 O    0  0  0  0  0  0  0  0  0  0  0  0
    7.9253   -7.2528    0.0000 C    0  0  0  0  0  0  0  0  0  0  0  0
   10.3122   -5.6704    0.0000 C    0  0  0  0  0  0  0  0  0  0  0  0
    4.5759   -5.3011    0.0000 C    0  0  0  0  0  0  0  0  0  0  0  0
    1.2000   -5.9473    0.0000 N    0  0  0  0  0  0  0  0  0  0  0  0
   10.3122   -3.5605    0.0000 C    0  0  0  0  0  0  0  0  0  0  0  0
    0.0000   -7.9517    0.0000 O    0  0  0  0  0  0  0  0  0  0  0  0
    4.5759   -7.8990    0.0000 C    0  0  0  0  0  0  0  0  0  0  0  0
    3.4154   -7.2528    0.0000 C    0  0  0  0  0  0  0  0  0  0  0  0
    6.7781   -7.8990    0.0000 C    0  0  0  0  0  0  0  0  0  0  0  0
   11.0638   -4.6418    0.0000 C    0  0  0  0  0  0  0  0  0  0  0  0
    3.4154   -5.9473    0.0000 C    0  0  0  0  0  0  0  0  0  0  0  0
    9.0594   -2.6374    0.0000 C    0  0  0  0  0  0  0  0  0  0  0  0
   10.7473   -2.3209    0.0000 O    0  0  0  0  0  0  0  0  0  0  0  0
    1.2000   -3.3495    0.0000 Cl   0  0  0  0  0  0  0  0  0  0  0  0
    3.4154   -3.2835    0.0000 Cl   0  0  0  0  0  0  0  0  0  0  0  0
    2.2813   -5.3011    0.0000 C    0  0  0  0  0  0  0  0  0  0  0  0
    0.0659   -5.3011    0.0000 C    0  0  0  0  0  0  0  0  0  0  0  0
    2.2813   -3.9956    0.0000 C    0  0  0  0  0  0  0  0  0  0  0  0
    0.0659   -3.9956    0.0000 C    0  0  0  0  0  0  0  0  0  0  0  0
    6.7781   -6.6066    0.0000 H    0  0  0  0  0  0  0  0  0  0  0  0
    7.9253   -4.6418    0.0000 H    0  0  0  0  0  0  0  0  0  0  0  0
    9.0594   -6.6066    0.0000 H    0  0  0  0  0  0  0  0  0  0  0  0
  1  4  1  0  0  0  0
  2  4  1  0  0  0  0
  3  4  2  0  0  0  0
  4 27  1  0  0  0  0
  5  6  1  0  0  0  0
  5 12  1  0  0  0  0
  5 19  1  0  0  0  0
  5 26  1  1  0  0  0
  6  7  1  0  0  0  0
  6 16  1  0  0  0  0
  6 36  1  6  0  0  0
  7 15  1  0  0  0  0
  7  9  1  0  0  0  0
  7 35  1  1  0  0  0
  8 14  1  0  0  0  0
  8 18  1  0  0  0  0
  8 20  2  0  0  0  0
  9 13  1  0  0  0  0
  9 10  1  0  0  0  0
  9 34  1  6  0  0  0
 10 11  2  0  0  0  0
 10 17  1  0  0  0  0
 11 21  1  0  0  0  0
 11 23  1  0  0  0  0
 12 13  1  0  0  0  0
 14 22  1  0  0  0  0
 15 23  1  0  0  0  0
 16 24  1  0  0  0  0
 17 25  2  0  0  0  0
 18 30  1  0  0  0  0
 18 31  1  0  0  0  0
 19 24  1  0  0  0  0
 19 27  1  1  0  0  0
 21 22  2  0  0  0  0
 22 25  1  0  0  0  0
 28 33  1  0  0  0  0
 29 32  1  0  0  0  0
 30 32  1  0  0  0  0
 31 33  1  0  0  0  0
M  END
> <ID>
13662

> <Formula>
C23H32Cl2NO6P

> <FW>
520.383

> <DSSTox_CID>
28593

> <DSSTox_RID>
82864

> <DSSTox_GSID>
48667

> <DSSTox_FileID_Sort>
7541

> <TS_ChemName>
Estramustine phosphate

> <TS_ChemName_Synonyms>


> <TS_CASRN>
4891-15-0

> <CASRN_ChemName_Relationship>
primary

> <TS_Description>
single chemical compound

> <ChemNote>
absolute stereochem

> <STRUCTURE_Shown>
tested chemical

> <STRUCTURE_Formula>
C23H32Cl2NO6P

> <STRUCTURE_MW>
520.383

> <STRUCTURE_ChemType>
defined organic

> <STRUCTURE_DefinedOrganicForm>
parent

> <STRUCTURE_IUPAC>
(17beta)-17-(phosphonooxy)estra-1,3,5(10)-trien-3-yl bis(2-chloroethyl)carbamate

> <STRUCTURE_SMILES>
ClCCN(CCCl)C(=O)Oc3cc4CC[C@@H]1[C@H](CC[C@]2(C)[C@H](CC[C@@H]12)OP(=O)(O)O)c4cc3

> <STRUCTURE_SMILES_Desalt>
ClCCN(CCCl)C(=O)Oc3cc4CC[C@@H]1[C@H](CC[C@]2(C)[C@H](CC[C@@H]12)OP(=O)(O)O)c4cc3

> <Substance_modify_yyyymmdd>
20111204

$$$$
