490-55-1
ChemmineR-0915142007XD

 13 14  0  0  0  0  0  0  0  0  1 V2000
    5.2641   -3.7918    0.0000 N   0  0  0  0  0  0  0  0  0  0  0  0
    3.9377   -3.7918    0.0000 C   0  0  0  0  0  0  0  0  0  0  0  0
    5.6669   -2.5626    0.0000 C   0  0  0  0  0  0  0  0  0  0  0  0
    3.5210   -2.5279    0.0000 C   0  0  0  0  0  0  0  0  0  0  0  0
    4.5905   -1.7570    0.0000 S   0  0  0  0  0  0  0  0  0  0  0  0
    2.3056   -2.0001    0.0000 C   0  0  0  0  0  0  0  0  0  0  0  0
    3.1529   -4.8960    0.0000 N   0  0  0  0  0  0  0  0  0  0  0  0
    6.9447   -2.1598    0.0000 N   0  0  0  0  0  0  0  0  0  0  0  0
    2.3056   -0.6736    0.0000 C   0  0  0  0  0  0  0  0  0  0  0  0
    1.1528   -2.6737    0.0000 C   0  0  0  0  0  0  0  0  0  0  0  0
    0.0000   -2.0001    0.0000 C   0  0  0  0  0  0  0  0  0  0  0  0
    1.1528    0.0000    0.0000 C   0  0  0  0  0  0  0  0  0  0  0  0
    0.0000   -0.6875    0.0000 C   0  0  0  0  0  0  0  0  0  0  0  0
  1  2  1  0  0  0  0
  1  3  2  0  0  0  0
  2  4  2  0  0  0  0
  2  7  1  0  0  0  0
  3  5  1  0  0  0  0
  3  8  1  0  0  0  0
  4  6  1  0  0  0  0
  4  5  1  0  0  0  0
  6  9  2  0  0  0  0
  6 10  1  0  0  0  0
  9 12  1  0  0  0  0
 10 11  2  0  0  0  0
 11 13  1  0  0  0  0
 12 13  2  0  0  0  0
M  END
> <ID>
11635

> <Formula>
C9H9N3S

> <FW>
191.2529

> <DSSTox_CID>
26388

> <DSSTox_RID>
81568

> <DSSTox_GSID>
46388

> <DSSTox_FileID_Sort>
6249

> <TS_ChemName>
Amiphenazole

> <TS_ChemName_Synonyms>


> <TS_CASRN>
490-55-1

> <CASRN_ChemName_Relationship>
primary

> <TS_Description>
single chemical compound

> <ChemNote>


> <STRUCTURE_Shown>
tested chemical

> <STRUCTURE_Formula>
C9H9N3S

> <STRUCTURE_MW>
191.2529

> <STRUCTURE_ChemType>
defined organic

> <STRUCTURE_DefinedOrganicForm>
parent

> <STRUCTURE_IUPAC>
5-phenyl-1,3-thiazole-2,4-diamine

> <STRUCTURE_SMILES>
Nc2nc(N)sc2c1ccccc1

> <STRUCTURE_SMILES_Desalt>
Nc2nc(N)sc2c1ccccc1

> <Substance_modify_yyyymmdd>
20110814

$$$$
