490-46-0
ChemmineR-0915142007XD

 21 23  0  0  1  0  0  0  0  0  1 V2000
    3.4613   -3.9898    0.0000 C   0  0  0  0  0  0  0  0  0  0  0  0
    3.4613   -5.3163    0.0000 C   0  0  0  0  0  0  0  0  0  0  0  0
    2.3110   -3.3162    0.0000 C   0  0  0  0  0  0  0  0  0  0  0  0
    2.3110   -5.9795    0.0000 C   0  0  0  0  0  0  0  0  0  0  0  0
    1.1503   -3.9898    0.0000 C   0  0  0  0  0  0  0  0  0  0  0  0
    1.1503   -5.3163    0.0000 C   0  0  0  0  0  0  0  0  0  0  0  0
    4.6116   -3.3162    0.0000 O   0  0  0  0  0  0  0  0  0  0  0  0
    5.7619   -3.9898    0.0000 C   0  0  0  0  0  0  0  0  0  0  0  0
    4.6116   -5.9795    0.0000 C   0  0  0  0  0  0  0  0  0  0  0  0
    5.7619   -5.3163    0.0000 C   0  0  0  0  0  0  0  0  0  0  0  0
    6.9225   -3.3162    0.0000 C   0  0  0  0  0  0  0  0  0  0  0  0
    6.9225   -1.9897    0.0000 C   0  0  0  0  0  0  0  0  0  0  0  0
    8.0521   -3.9898    0.0000 C   0  0  0  0  0  0  0  0  0  0  0  0
    8.0521   -1.3265    0.0000 C   0  0  0  0  0  0  0  0  0  0  0  0
    9.2128   -3.3162    0.0000 C   0  0  0  0  0  0  0  0  0  0  0  0
    9.2128   -1.9897    0.0000 C   0  0  0  0  0  0  0  0  0  0  0  0
    0.0000   -3.3162    0.0000 O   0  0  0  0  0  0  0  0  0  0  0  0
    2.3110   -7.3060    0.0000 O   0  0  0  0  0  0  0  0  0  0  0  0
    6.9225   -5.9795    0.0000 O   0  0  0  0  0  0  0  0  0  0  0  0
   10.3631   -1.3265    0.0000 O   0  0  0  0  0  0  0  0  0  0  0  0
    8.0521    0.0000    0.0000 O   0  0  0  0  0  0  0  0  0  0  0  0
  1  3  2  0  0  0  0
  1  7  1  0  0  0  0
  1  2  1  0  0  0  0
  2  4  2  0  0  0  0
  2  9  1  0  0  0  0
  3  5  1  0  0  0  0
  4  6  1  0  0  0  0
  4 18  1  0  0  0  0
  5  6  2  0  0  0  0
  5 17  1  0  0  0  0
  7  8  1  0  0  0  0
  8 10  1  0  0  0  0
  8 11  1  6  0  0  0
  9 10  1  0  0  0  0
 10 19  1  6  0  0  0
 11 12  1  0  0  0  0
 11 13  2  0  0  0  0
 12 14  2  0  0  0  0
 13 15  1  0  0  0  0
 14 16  1  0  0  0  0
 14 21  1  0  0  0  0
 15 16  2  0  0  0  0
 16 20  1  0  0  0  0
M  END
> <ID>
10762

> <Formula>
C15H14O6

> <FW>
290.2681

> <DSSTox_CID>
25133

> <DSSTox_RID>
80694

> <DSSTox_GSID>
45133

> <DSSTox_FileID_Sort>
8305

> <TS_ChemName>
(-)-Epicatechin

> <TS_ChemName_Synonyms>


> <TS_CASRN>
490-46-0

> <CASRN_ChemName_Relationship>
primary

> <TS_Description>
single chemical compound

> <ChemNote>
stereochem

> <STRUCTURE_Shown>
tested chemical

> <STRUCTURE_Formula>
C15H14O6

> <STRUCTURE_MW>
290.2681

> <STRUCTURE_ChemType>
defined organic

> <STRUCTURE_DefinedOrganicForm>
parent

> <STRUCTURE_IUPAC>
(2R,3R)-2-(3,4-dihydroxyphenyl)-3,4-dihydro-2H-chromene-3,5,7-triol

> <STRUCTURE_SMILES>
Oc1ccc(cc1O)[C@H]2Oc3cc(O)cc(O)c3C[C@H]2O

> <STRUCTURE_SMILES_Desalt>
Oc1ccc(cc1O)[C@H]2Oc3cc(O)cc(O)c3C[C@H]2O

> <Substance_modify_yyyymmdd>
20120927

$$$$
