4904-61-4
ChemmineR-0915142007XD

 12 12  0  0  0  0  0  0  0  0  1 V2000
    3.5069   -0.6762    0.0000 C   0  0  0  0  0  0  0  0  0  0  0  0
    3.5069   -1.9493    0.0000 C   0  0  0  0  0  0  0  0  0  0  0  0
    4.6122   -2.6302    0.0000 C   0  0  0  0  0  0  0  0  0  0  0  0
    4.6122   -3.9873    0.0000 C   0  0  0  0  0  0  0  0  0  0  0  0
    3.5069   -4.6635    0.0000 C   0  0  0  0  0  0  0  0  0  0  0  0
    2.3131   -3.9873    0.0000 C   0  0  0  0  0  0  0  0  0  0  0  0
    1.1239   -4.6635    0.0000 C   0  0  0  0  0  0  0  0  0  0  0  0
    0.0000   -3.9873    0.0000 C   0  0  0  0  0  0  0  0  0  0  0  0
    0.0000   -2.6302    0.0000 C   0  0  0  0  0  0  0  0  0  0  0  0
    1.1239   -1.9493    0.0000 C   0  0  0  0  0  0  0  0  0  0  0  0
    1.1239   -0.6762    0.0000 C   0  0  0  0  0  0  0  0  0  0  0  0
    2.3131    0.0000    0.0000 C   0  0  0  0  0  0  0  0  0  0  0  0
  1  2  2  0  0  0  0
  1 12  1  0  0  0  0
  2  3  1  0  0  0  0
  3  4  1  0  0  0  0
  4  5  1  0  0  0  0
  5  6  2  0  0  0  0
  6  7  1  0  0  0  0
  7  8  1  0  0  0  0
  8  9  1  0  0  0  0
  9 10  2  0  0  0  0
 10 11  1  0  0  0  0
 11 12  1  0  0  0  0
M  END
> <ID>
5265

> <Formula>
C12H18

> <FW>
162.2713

> <DSSTox_CID>
7581

> <DSSTox_RID>
78512

> <DSSTox_GSID>
27581

> <DSSTox_FileID_Sort>
3195

> <TS_ChemName>
1,5,9-Cyclododecatriene

> <TS_ChemName_Synonyms>


> <TS_CASRN>
4904-61-4

> <CASRN_ChemName_Relationship>
primary

> <TS_Description>
mixture or formulation

> <ChemNote>
mixture of Z,E isomers; structure shown (1E,5E,9E)-; stereochem

> <STRUCTURE_Shown>
representative isomer in mixture

> <STRUCTURE_Formula>
C12H18

> <STRUCTURE_MW>
162.2713

> <STRUCTURE_ChemType>
defined organic

> <STRUCTURE_DefinedOrganicForm>
parent

> <STRUCTURE_IUPAC>
(1E,5E,9E)-cyclododeca-1,5,9-triene

> <STRUCTURE_SMILES>
C1C=CCCC=CCCC=CC1

> <STRUCTURE_SMILES_Desalt>
C1C=CCCC=CCCC=CC1

> <Substance_modify_yyyymmdd>
20080429

$$$$
