491-07-6
ChemmineR-0915142007XD

 11 11  0  0  1  0  0  0  0  0  1 V2000
    2.2867   -3.3305    0.0000 C   0  0  0  0  0  0  0  0  0  0  0  0
    1.1705   -4.0304    0.0000 C   0  0  0  0  0  0  0  0  0  0  0  0
    0.0181   -3.3305    0.0000 C   0  0  0  0  0  0  0  0  0  0  0  0
    0.0181   -2.0333    0.0000 C   0  0  0  0  0  0  0  0  0  0  0  0
    1.1705   -1.3274    0.0000 C   0  0  0  0  0  0  0  0  0  0  0  0
    2.2867   -2.0333    0.0000 C   0  0  0  0  0  0  0  0  0  0  0  0
    3.4753   -3.9821    0.0000 O   0  0  0  0  0  0  0  0  0  0  0  0
    1.1705    0.0000    0.0000 C   0  0  0  0  0  0  0  0  0  0  0  0
    1.1705   -5.3638    0.0000 C   0  0  0  0  0  0  0  0  0  0  0  0
    2.3229   -6.0335    0.0000 C   0  0  0  0  0  0  0  0  0  0  0  0
    0.0000   -6.0335    0.0000 C   0  0  0  0  0  0  0  0  0  0  0  0
  1  2  1  0  0  0  0
  1  6  1  0  0  0  0
  1  7  2  0  0  0  0
  2  3  1  0  0  0  0
  2  9  1  1  0  0  0
  3  4  1  0  0  0  0
  4  5  1  0  0  0  0
  5  6  1  0  0  0  0
  5  8  1  1  0  0  0
  9 10  1  0  0  0  0
  9 11  1  0  0  0  0
M  END
> <ID>
10132

> <Formula>
C10H18O

> <FW>
154.2493

> <DSSTox_CID>
24475

> <DSSTox_RID>
80257

> <DSSTox_GSID>
44475

> <DSSTox_FileID_Sort>
4939

> <TS_ChemName>
(2R,5R)-5-Methyl-2-(propan-2-yl)cyclohexanone

> <TS_ChemName_Synonyms>
Cyclohexanone, 5-methyl-2-(1-methylethyl)-, (2R,5R)-rel-

> <TS_CASRN>
491-07-6

> <CASRN_ChemName_Relationship>
primary

> <TS_Description>
single chemical compound

> <ChemNote>
relative stereochem; structure shown (2R,2R)-; stereochem

> <STRUCTURE_Shown>
tested chemical

> <STRUCTURE_Formula>
C10H18O

> <STRUCTURE_MW>
154.2493

> <STRUCTURE_ChemType>
defined organic

> <STRUCTURE_DefinedOrganicForm>
parent

> <STRUCTURE_IUPAC>
(2R,5R)-5-methyl-2-(propan-2-yl)cyclohexanone

> <STRUCTURE_SMILES>
CC(C)[C@H]1CC[C@@H](C)CC1=O

> <STRUCTURE_SMILES_Desalt>
CC(C)[C@H]1CC[C@@H](C)CC1=O

> <Substance_modify_yyyymmdd>
20091116

$$$$
