491-35-0
ChemmineR-0915142007XD

 11 12  0  0  0  0  0  0  0  0  1 V2000
    2.3016   -2.0024    0.0000 C   0  0  0  0  0  0  0  0  0  0  0  0
    1.1600    0.0000    0.0000 N   0  0  0  0  0  0  0  0  0  0  0  0
    2.3016   -0.6813    0.0000 C   0  0  0  0  0  0  0  0  0  0  0  0
    1.1600   -2.6653    0.0000 C   0  0  0  0  0  0  0  0  0  0  0  0
    0.0000   -0.6813    0.0000 C   0  0  0  0  0  0  0  0  0  0  0  0
    0.0000   -2.0024    0.0000 C   0  0  0  0  0  0  0  0  0  0  0  0
    3.4432   -2.6653    0.0000 C   0  0  0  0  0  0  0  0  0  0  0  0
    1.1600   -4.0002    0.0000 C   0  0  0  0  0  0  0  0  0  0  0  0
    3.4432    0.0000    0.0000 C   0  0  0  0  0  0  0  0  0  0  0  0
    4.6032   -2.0024    0.0000 C   0  0  0  0  0  0  0  0  0  0  0  0
    4.6032   -0.6813    0.0000 C   0  0  0  0  0  0  0  0  0  0  0  0
  1  3  2  0  0  0  0
  1  4  1  0  0  0  0
  1  7  1  0  0  0  0
  2  3  1  0  0  0  0
  2  5  2  0  0  0  0
  3  9  1  0  0  0  0
  4  6  2  0  0  0  0
  4  8  1  0  0  0  0
  5  6  1  0  0  0  0
  7 10  2  0  0  0  0
  9 11  2  0  0  0  0
 10 11  1  0  0  0  0
M  END
> <ID>
12221

> <Formula>
C10H9N

> <FW>
143.1852

> <DSSTox_CID>
27067

> <DSSTox_RID>
82083

> <DSSTox_GSID>
47067

> <DSSTox_FileID_Sort>
6764

> <TS_ChemName>
Lepidine

> <TS_ChemName_Synonyms>


> <TS_CASRN>
491-35-0

> <CASRN_ChemName_Relationship>
primary

> <TS_Description>
single chemical compound

> <ChemNote>


> <STRUCTURE_Shown>
tested chemical

> <STRUCTURE_Formula>
C10H9N

> <STRUCTURE_MW>
143.1852

> <STRUCTURE_ChemType>
defined organic

> <STRUCTURE_DefinedOrganicForm>
parent

> <STRUCTURE_IUPAC>
4-methylquinoline

> <STRUCTURE_SMILES>
Cc1ccnc2ccccc12

> <STRUCTURE_SMILES_Desalt>
Cc1ccnc2ccccc12

> <Substance_modify_yyyymmdd>
20100429

$$$$
