491-36-1
ChemmineR-0915142007XD

 11 12  0  0  0  0  0  0  0  0  1 V2000
    2.2871   -2.0173    0.0000 C   0  0  0  0  0  0  0  0  0  0  0  0
    3.4307   -2.6851    0.0000 C   0  0  0  0  0  0  0  0  0  0  0  0
    4.5743   -2.0173    0.0000 N   0  0  0  0  0  0  0  0  0  0  0  0
    3.4307    0.0000    0.0000 N   0  0  0  0  0  0  0  0  0  0  0  0
    4.5743   -0.6678    0.0000 C   0  0  0  0  0  0  0  0  0  0  0  0
    2.2871   -0.6678    0.0000 C   0  0  0  0  0  0  0  0  0  0  0  0
    3.4307   -4.0025    0.0000 O   0  0  0  0  0  0  0  0  0  0  0  0
    1.1436   -2.6851    0.0000 C   0  0  0  0  0  0  0  0  0  0  0  0
    1.1436    0.0000    0.0000 C   0  0  0  0  0  0  0  0  0  0  0  0
    0.0000   -2.0173    0.0000 C   0  0  0  0  0  0  0  0  0  0  0  0
    0.0000   -0.6678    0.0000 C   0  0  0  0  0  0  0  0  0  0  0  0
  1  2  1  0  0  0  0
  1  6  2  0  0  0  0
  1  8  1  0  0  0  0
  2  3  1  0  0  0  0
  2  7  2  0  0  0  0
  3  5  1  0  0  0  0
  4  6  1  0  0  0  0
  4  5  2  0  0  0  0
  6  9  1  0  0  0  0
  8 10  2  0  0  0  0
  9 11  2  0  0  0  0
 10 11  1  0  0  0  0
M  END
> <ID>
14276

> <Formula>
C8H6N2O

> <FW>
146.146

> <DSSTox_CID>
29372

> <DSSTox_RID>
83487

> <DSSTox_GSID>
49412

> <DSSTox_FileID_Sort>
8162

> <TS_ChemName>
4-Hydroxyquinazoline

> <TS_ChemName_Synonyms>


> <TS_CASRN>
491-36-1

> <CASRN_ChemName_Relationship>
primary

> <TS_Description>
single chemical compound

> <ChemNote>


> <STRUCTURE_Shown>
tested chemical

> <STRUCTURE_Formula>
C8H6N2O

> <STRUCTURE_MW>
146.146

> <STRUCTURE_ChemType>
defined organic

> <STRUCTURE_DefinedOrganicForm>
parent

> <STRUCTURE_IUPAC>
quinazolin-4(3H)-one

> <STRUCTURE_SMILES>
O=C2NC=Nc1ccccc12

> <STRUCTURE_SMILES_Desalt>
O=C2NC=Nc1ccccc12

> <Substance_modify_yyyymmdd>
20111204

$$$$
