4910-46-7
ChemmineR-0915142007XD

 21 20  0  0  1  0  0  0  0  0  1 V2000
    1.1531   -1.3376    0.0000 C   0  0  0  0  0  0  0  0  0  0  0  0
    1.1531   -5.3229    0.0000 C   0  0  0  0  0  0  0  0  0  0  0  0
    1.1531    0.0000    0.0000 O   0  0  0  0  0  0  0  0  0  0  0  0
    2.3155   -1.9926    0.0000 C   0  0  0  0  0  0  0  0  0  0  0  0
    2.3155   -5.9779    0.0000 O   0  0  0  0  0  0  0  0  0  0  0  0
    2.3155   -3.3118    0.0000 C   0  0  0  0  0  0  0  0  0  0  0  0
    1.1531   -3.9852    0.0000 C   0  0  0  0  0  0  0  0  0  0  0  0
    0.0000   -1.9926    0.0000 O   0  0  0  0  0  0  0  0  0  0  0  0
    3.4686   -1.3376    0.0000 N   0  0  0  0  0  0  0  0  0  0  0  0
    0.0000   -5.9779    0.0000 O   0  0  0  0  0  0  0  0  0  0  0  0
    8.0720   -1.3376    0.0000 C   0  0  0  0  0  0  0  0  0  0  0  0
    4.6126   -1.9926    0.0000 C   0  0  0  0  0  0  0  0  0  0  0  0
    8.0720    0.0000    0.0000 O   0  0  0  0  0  0  0  0  0  0  0  0
    5.7565   -1.3376    0.0000 C   0  0  0  0  0  0  0  0  0  0  0  0
    6.9096   -1.9926    0.0000 C   0  0  0  0  0  0  0  0  0  0  0  0
    9.2251   -1.9926    0.0000 O   0  0  0  0  0  0  0  0  0  0  0  0
    6.9096   -3.3118    0.0000 N   0  0  0  0  0  0  0  0  0  0  0  0
    4.6126   -3.3118    0.0000 O   0  0  0  0  0  0  0  0  0  0  0  0
    8.0720   -3.9852    0.0000 C   0  0  0  0  0  0  0  0  0  0  0  0
    9.2251   -3.3118    0.0000 O   0  0  0  0  0  0  0  0  0  0  0  0
    8.0720   -5.3229    0.0000 C   0  0  0  0  0  0  0  0  0  0  0  0
  1  3  2  0  0  0  0
  1  4  1  0  0  0  0
  1  8  1  0  0  0  0
  2  7  1  0  0  0  0
  2  5  2  0  0  0  0
  2 10  1  0  0  0  0
  4  6  1  0  0  0  0
  4  9  1  1  0  0  0
  6  7  1  0  0  0  0
  9 12  1  0  0  0  0
 11 16  1  0  0  0  0
 11 15  1  0  0  0  0
 11 13  2  0  0  0  0
 12 14  1  0  0  0  0
 12 18  2  0  0  0  0
 14 15  1  0  0  0  0
 15 17  1  1  0  0  0
 17 19  1  0  0  0  0
 19 20  2  0  0  0  0
 19 21  1  0  0  0  0
M  END
> <ID>
10914

> <Formula>
C11H16N2O8

> <FW>
304.2533

> <DSSTox_CID>
25385

> <DSSTox_RID>
80843

> <DSSTox_GSID>
45385

> <DSSTox_FileID_Sort>
5524

> <TS_ChemName>
N-Acetyl-L-aspartyl-L-glutamic acid

> <TS_ChemName_Synonyms>


> <TS_CASRN>
4910-46-7

> <CASRN_ChemName_Relationship>
primary

> <TS_Description>
single chemical compound

> <ChemNote>
stereochem

> <STRUCTURE_Shown>
tested chemical

> <STRUCTURE_Formula>
C11H16N2O8

> <STRUCTURE_MW>
304.2533

> <STRUCTURE_ChemType>
defined organic

> <STRUCTURE_DefinedOrganicForm>
parent

> <STRUCTURE_IUPAC>
N-acetyl-L-beta-aspartyl-L-glutamic acid

> <STRUCTURE_SMILES>
O=C(N[C@@H](CCC(=O)O)C(=O)O)C[C@H](NC(C)=O)C(=O)O

> <STRUCTURE_SMILES_Desalt>
O=C(N[C@@H](CCC(=O)O)C(=O)O)C[C@H](NC(C)=O)C(=O)O

> <Substance_modify_yyyymmdd>
20110729

$$$$
