492-94-4
ChemmineR-0915142007XD

 14 15  0  0  0  0  0  0  0  0  1 V2000
    3.2509   -3.5897    0.0000 C   0  0  0  0  0  0  0  0  0  0  0  0
    3.2509   -2.2672    0.0000 C   0  0  0  0  0  0  0  0  0  0  0  0
    2.0913   -4.2477    0.0000 C   0  0  0  0  0  0  0  0  0  0  0  0
    4.4106   -1.6092    0.0000 C   0  0  0  0  0  0  0  0  0  0  0  0
    0.8860   -3.7200    0.0000 O   0  0  0  0  0  0  0  0  0  0  0  0
    4.5344   -0.2736    0.0000 O   0  0  0  0  0  0  0  0  0  0  0  0
    4.3910   -4.2477    0.0000 O   0  0  0  0  0  0  0  0  0  0  0  0
    2.1043   -1.5961    0.0000 O   0  0  0  0  0  0  0  0  0  0  0  0
    5.6158   -2.1434    0.0000 C   0  0  0  0  0  0  0  0  0  0  0  0
    1.9610   -5.5833    0.0000 C   0  0  0  0  0  0  0  0  0  0  0  0
    5.8569    0.0000    0.0000 C   0  0  0  0  0  0  0  0  0  0  0  0
    0.0000   -4.6972    0.0000 C   0  0  0  0  0  0  0  0  0  0  0  0
    0.6580   -5.8569    0.0000 C   0  0  0  0  0  0  0  0  0  0  0  0
    6.5149   -1.1466    0.0000 C   0  0  0  0  0  0  0  0  0  0  0  0
  1  2  1  0  0  0  0
  1  3  1  0  0  0  0
  1  7  2  0  0  0  0
  2  4  1  0  0  0  0
  2  8  2  0  0  0  0
  3  5  1  0  0  0  0
  3 10  2  0  0  0  0
  4  6  1  0  0  0  0
  4  9  2  0  0  0  0
  5 12  1  0  0  0  0
  6 11  1  0  0  0  0
  9 14  1  0  0  0  0
 10 13  1  0  0  0  0
 11 14  2  0  0  0  0
 12 13  2  0  0  0  0
M  END
> <ID>
14277

> <Formula>
C10H6O4

> <FW>
190.1522

> <DSSTox_CID>
29373

> <DSSTox_RID>
83488

> <DSSTox_GSID>
49413

> <DSSTox_FileID_Sort>
8163

> <TS_ChemName>
Ethanedione,di-2-furanyl-

> <TS_ChemName_Synonyms>


> <TS_CASRN>
492-94-4

> <CASRN_ChemName_Relationship>
primary

> <TS_Description>
single chemical compound

> <ChemNote>


> <STRUCTURE_Shown>
tested chemical

> <STRUCTURE_Formula>
C10H6O4

> <STRUCTURE_MW>
190.1522

> <STRUCTURE_ChemType>
defined organic

> <STRUCTURE_DefinedOrganicForm>
parent

> <STRUCTURE_IUPAC>
1,2-di(furan-2-yl)ethane-1,2-dione

> <STRUCTURE_SMILES>
O=C(C(=O)c1ccco1)c2ccco2

> <STRUCTURE_SMILES_Desalt>
O=C(C(=O)c1ccco1)c2ccco2

> <Substance_modify_yyyymmdd>
20111204

$$$$
