493-52-7
ChemmineR-0915142007XD

 20 21  0  0  0  0  0  0  0  0  1 V2000
    1.1698   -2.6605    0.0000 C   0  0  0  0  0  0  0  0  0  0  0  0
    3.4784   -2.6709    0.0000 N   0  0  0  0  0  0  0  0  0  0  0  0
    1.1698   -3.9856    0.0000 C   0  0  0  0  0  0  0  0  0  0  0  0
    4.6171   -1.9980    0.0000 N   0  0  0  0  0  0  0  0  0  0  0  0
    2.3293   -1.9773    0.0000 C   0  0  0  0  0  0  0  0  0  0  0  0
    8.0747   -3.9856    0.0000 C   0  0  0  0  0  0  0  0  0  0  0  0
    9.2135   -4.6585    0.0000 N   0  0  0  0  0  0  0  0  0  0  0  0
    2.3085   -4.6585    0.0000 O   0  0  0  0  0  0  0  0  0  0  0  0
    5.7973   -2.6709    0.0000 C   0  0  0  0  0  0  0  0  0  0  0  0
    6.9153   -4.6585    0.0000 C   0  0  0  0  0  0  0  0  0  0  0  0
    8.0747   -2.6398    0.0000 C   0  0  0  0  0  0  0  0  0  0  0  0
    0.0518   -4.6896    0.0000 O   0  0  0  0  0  0  0  0  0  0  0  0
    6.9153   -1.9669    0.0000 C   0  0  0  0  0  0  0  0  0  0  0  0
    5.7973   -3.9856    0.0000 C   0  0  0  0  0  0  0  0  0  0  0  0
    0.0000   -1.9773    0.0000 C   0  0  0  0  0  0  0  0  0  0  0  0
    9.2135   -5.9836    0.0000 C   0  0  0  0  0  0  0  0  0  0  0  0
   10.3522   -4.0063    0.0000 C   0  0  0  0  0  0  0  0  0  0  0  0
    2.3293   -0.6625    0.0000 C   0  0  0  0  0  0  0  0  0  0  0  0
    0.0000   -0.6625    0.0000 C   0  0  0  0  0  0  0  0  0  0  0  0
    1.1698    0.0000    0.0000 C   0  0  0  0  0  0  0  0  0  0  0  0
  1  3  1  0  0  0  0
  1  5  2  0  0  0  0
  1 15  1  0  0  0  0
  2  5  1  0  0  0  0
  2  4  2  0  0  0  0
  3  8  2  0  0  0  0
  3 12  1  0  0  0  0
  4  9  1  0  0  0  0
  5 18  1  0  0  0  0
  6 10  1  0  0  0  0
  6  7  1  0  0  0  0
  6 11  2  0  0  0  0
  7 16  1  0  0  0  0
  7 17  1  0  0  0  0
  9 13  2  0  0  0  0
  9 14  1  0  0  0  0
 10 14  2  0  0  0  0
 11 13  1  0  0  0  0
 15 19  2  0  0  0  0
 18 20  2  0  0  0  0
 19 20  1  0  0  0  0
M  END
> <ID>
9084

> <Formula>
C15H15N3O2

> <FW>
269.2985

> <DSSTox_CID>
22154

> <DSSTox_RID>
79939

> <DSSTox_GSID>
42154

> <DSSTox_FileID_Sort>
4621

> <TS_ChemName>
Methyl red

> <TS_ChemName_Synonyms>


> <TS_CASRN>
493-52-7

> <CASRN_ChemName_Relationship>
primary

> <TS_Description>
single chemical compound

> <ChemNote>
C.I. 13020

> <STRUCTURE_Shown>
tested chemical

> <STRUCTURE_Formula>
C15H15N3O2

> <STRUCTURE_MW>
269.2985

> <STRUCTURE_ChemType>
defined organic

> <STRUCTURE_DefinedOrganicForm>
parent

> <STRUCTURE_IUPAC>
2-{(E)-[4-(dimethylamino)phenyl]diazenyl}benzoic acid

> <STRUCTURE_SMILES>
CN(C)c2ccc(/N=N/c1ccccc1C(=O)O)cc2

> <STRUCTURE_SMILES_Desalt>
CN(C)c2ccc(/N=N/c1ccccc1C(=O)O)cc2

> <Substance_modify_yyyymmdd>
20080825

$$$$
