494-90-6
ChemmineR-0915142007XD

 11 12  0  0  0  0  0  0  0  0  1 V2000
    5.9072   -2.2211    0.0000 C   0  0  0  0  0  0  0  0  0  0  0  0
    4.6254   -1.8726    0.0000 C   0  0  0  0  0  0  0  0  0  0  0  0
    4.2768   -0.5907    0.0000 C   0  0  0  0  0  0  0  0  0  0  0  0
    2.9950   -0.2481    0.0000 C   0  0  0  0  0  0  0  0  0  0  0  0
    2.0557   -1.1874    0.0000 C   0  0  0  0  0  0  0  0  0  0  0  0
    2.3983   -2.4692    0.0000 C   0  0  0  0  0  0  0  0  0  0  0  0
    3.6802   -2.8178    0.0000 C   0  0  0  0  0  0  0  0  0  0  0  0
    1.2819   -3.1958    0.0000 O   0  0  0  0  0  0  0  0  0  0  0  0
    0.2481   -2.3570    0.0000 C   0  0  0  0  0  0  0  0  0  0  0  0
    0.7266   -1.1165    0.0000 C   0  0  0  0  0  0  0  0  0  0  0  0
    0.0000    0.0000    0.0000 C   0  0  0  0  0  0  0  0  0  0  0  0
  1  2  1  0  0  0  0
  2  3  1  0  0  0  0
  2  7  1  0  0  0  0
  3  4  1  0  0  0  0
  4  5  1  0  0  0  0
  5  6  2  0  0  0  0
  5 10  1  0  0  0  0
  6  7  1  0  0  0  0
  6  8  1  0  0  0  0
  8  9  1  0  0  0  0
  9 10  2  0  0  0  0
 10 11  1  0  0  0  0
M  END
> <ID>
4249

> <Formula>
C10H14O

> <FW>
150.2176

> <DSSTox_CID>
5534

> <DSSTox_RID>
77820

> <DSSTox_GSID>
25534

> <DSSTox_FileID_Sort>
2503

> <TS_ChemName>
Menthofuran

> <TS_ChemName_Synonyms>


> <TS_CASRN>
494-90-6

> <CASRN_ChemName_Relationship>
primary

> <TS_Description>
single chemical compound

> <ChemNote>


> <STRUCTURE_Shown>
tested chemical

> <STRUCTURE_Formula>
C10H14O

> <STRUCTURE_MW>
150.2176

> <STRUCTURE_ChemType>
defined organic

> <STRUCTURE_DefinedOrganicForm>
parent

> <STRUCTURE_IUPAC>
3,6-dimethyl-4,5,6,7-tetrahydro-1-benzofuran

> <STRUCTURE_SMILES>
CC1Cc2occ(C)c2CC1

> <STRUCTURE_SMILES_Desalt>
CC1Cc2occ(C)c2CC1

> <Substance_modify_yyyymmdd>
20080429

$$$$
