494-52-0
ChemmineR-0915142007XD

 12 13  0  0  1  0  0  0  0  0  1 V2000
    1.1360   -2.0081    0.0000 N   0  0  0  0  0  0  0  0  0  0  0  0
    3.4310   -2.0081    0.0000 C   0  0  0  0  0  0  0  0  0  0  0  0
    2.2778   -2.6794    0.0000 C   0  0  0  0  0  0  0  0  0  0  0  0
    5.7374   -2.0081    0.0000 N   0  0  0  0  0  0  0  0  0  0  0  0
    4.5842   -2.6794    0.0000 C   0  0  0  0  0  0  0  0  0  0  0  0
    0.0000   -2.6794    0.0000 C   0  0  0  0  0  0  0  0  0  0  0  0
    3.4310   -0.6770    0.0000 C   0  0  0  0  0  0  0  0  0  0  0  0
    5.7374   -0.6770    0.0000 C   0  0  0  0  0  0  0  0  0  0  0  0
    2.2778   -4.0105    0.0000 C   0  0  0  0  0  0  0  0  0  0  0  0
    4.5842    0.0000    0.0000 C   0  0  0  0  0  0  0  0  0  0  0  0
    0.0000   -4.0105    0.0000 C   0  0  0  0  0  0  0  0  0  0  0  0
    1.1360   -4.6818    0.0000 C   0  0  0  0  0  0  0  0  0  0  0  0
  1  3  1  0  0  0  0
  1  6  1  0  0  0  0
  3  2  1  6  0  0  0
  2  5  1  0  0  0  0
  2  7  2  0  0  0  0
  3  9  1  0  0  0  0
  4  5  2  0  0  0  0
  4  8  1  0  0  0  0
  6 11  1  0  0  0  0
  7 10  1  0  0  0  0
  8 10  2  0  0  0  0
  9 12  1  0  0  0  0
 11 12  1  0  0  0  0
M  END
> <ID>
8567

> <Formula>
C10H14N2

> <FW>
162.2316

> <DSSTox_CID>
21607

> <DSSTox_RID>
79783

> <DSSTox_GSID>
41607

> <DSSTox_FileID_Sort>
4465

> <TS_ChemName>
L-3-(2'-Piperidyl)pyridine

> <TS_ChemName_Synonyms>
L-3-(2'-Piperidyl)pyridine (Anabasine)

> <TS_CASRN>
494-52-0

> <CASRN_ChemName_Relationship>
primary

> <TS_Description>
single chemical compound

> <ChemNote>
stereochem

> <STRUCTURE_Shown>
tested chemical

> <STRUCTURE_Formula>
C10H14N2

> <STRUCTURE_MW>
162.2316

> <STRUCTURE_ChemType>
defined organic

> <STRUCTURE_DefinedOrganicForm>
parent

> <STRUCTURE_IUPAC>
3-[(2S)-piperidin-2-yl]pyridine

> <STRUCTURE_SMILES>
n1cc(ccc1)[C@@H]2CCCCN2

> <STRUCTURE_SMILES_Desalt>
n1cc(ccc1)[C@@H]2CCCCN2

> <Substance_modify_yyyymmdd>
20080825

$$$$
