4940-39-0
ChemmineR-0915142007XD

 14 15  0  0  0  0  0  0  0  0  1 V2000
    5.7589    0.0000    0.0000 O   0  0  0  0  0  0  0  0  0  0  0  0
    5.7589   -1.3481    0.0000 C   0  0  0  0  0  0  0  0  0  0  0  0
    6.9134   -2.0049    0.0000 O   0  0  0  0  0  0  0  0  0  0  0  0
    4.6113   -2.0049    0.0000 C   0  0  0  0  0  0  0  0  0  0  0  0
    4.6113   -3.3323    0.0000 C   0  0  0  0  0  0  0  0  0  0  0  0
    3.4567   -4.0029    0.0000 C   0  0  0  0  0  0  0  0  0  0  0  0
    3.4567   -5.3303    0.0000 O   0  0  0  0  0  0  0  0  0  0  0  0
    2.3022   -3.3323    0.0000 C   0  0  0  0  0  0  0  0  0  0  0  0
    2.3022   -2.0049    0.0000 C   0  0  0  0  0  0  0  0  0  0  0  0
    3.4567   -1.3481    0.0000 O   0  0  0  0  0  0  0  0  0  0  0  0
    1.1545   -1.3481    0.0000 C   0  0  0  0  0  0  0  0  0  0  0  0
    0.0000   -2.0049    0.0000 C   0  0  0  0  0  0  0  0  0  0  0  0
    0.0000   -3.3323    0.0000 C   0  0  0  0  0  0  0  0  0  0  0  0
    1.1545   -4.0029    0.0000 C   0  0  0  0  0  0  0  0  0  0  0  0
  1  2  2  0  0  0  0
  2  3  1  0  0  0  0
  2  4  1  0  0  0  0
  4  5  2  0  0  0  0
  4 10  1  0  0  0  0
  5  6  1  0  0  0  0
  6  7  2  0  0  0  0
  6  8  1  0  0  0  0
  8  9  2  0  0  0  0
  8 14  1  0  0  0  0
  9 10  1  0  0  0  0
  9 11  1  0  0  0  0
 11 12  2  0  0  0  0
 12 13  1  0  0  0  0
 13 14  2  0  0  0  0
M  END
> <ID>
11262

> <Formula>
C10H6O4

> <FW>
190.1522

> <DSSTox_CID>
25878

> <DSSTox_RID>
81194

> <DSSTox_GSID>
45878

> <DSSTox_FileID_Sort>
5875

> <TS_ChemName>
Chromocarb

> <TS_ChemName_Synonyms>


> <TS_CASRN>
4940-39-0

> <CASRN_ChemName_Relationship>
primary

> <TS_Description>
single chemical compound

> <ChemNote>


> <STRUCTURE_Shown>
tested chemical

> <STRUCTURE_Formula>
C10H6O4

> <STRUCTURE_MW>
190.1522

> <STRUCTURE_ChemType>
defined organic

> <STRUCTURE_DefinedOrganicForm>
parent

> <STRUCTURE_IUPAC>
4-oxo-4H-chromene-2-carboxylic acid

> <STRUCTURE_SMILES>
O=C(O)C1=CC(=O)c2ccccc2O1

> <STRUCTURE_SMILES_Desalt>
O=C(O)C1=CC(=O)c2ccccc2O1

> <Substance_modify_yyyymmdd>
20110922

$$$$
