4940-11-8
ChemmineR-0915142007XD

 10 10  0  0  0  0  0  0  0  0  1 V2000
    3.4563    0.0000    0.0000 O   0  0  0  0  0  0  0  0  0  0  0  0
    4.6083   -0.6728    0.0000 C   0  0  0  0  0  0  0  0  0  0  0  0
    4.6083   -2.0000    0.0000 C   0  0  0  0  0  0  0  0  0  0  0  0
    3.4563   -2.6590    0.0000 C   0  0  0  0  0  0  0  0  0  0  0  0
    2.3042   -2.0000    0.0000 C   0  0  0  0  0  0  0  0  0  0  0  0
    2.3042   -0.6728    0.0000 C   0  0  0  0  0  0  0  0  0  0  0  0
    3.4563   -3.9862    0.0000 O   0  0  0  0  0  0  0  0  0  0  0  0
    1.1521    0.0000    0.0000 C   0  0  0  0  0  0  0  0  0  0  0  0
    0.0000   -0.6728    0.0000 C   0  0  0  0  0  0  0  0  0  0  0  0
    1.1521   -2.6590    0.0000 O   0  0  0  0  0  0  0  0  0  0  0  0
  1  2  1  0  0  0  0
  1  6  1  0  0  0  0
  2  3  2  0  0  0  0
  3  4  1  0  0  0  0
  4  5  1  0  0  0  0
  4  7  2  0  0  0  0
  5  6  2  0  0  0  0
  5 10  1  0  0  0  0
  6  8  1  0  0  0  0
  8  9  1  0  0  0  0
M  END
> <ID>
8482

> <Formula>
C7H8O3

> <FW>
140.1366

> <DSSTox_CID>
21516

> <DSSTox_RID>
79760

> <DSSTox_GSID>
41516

> <DSSTox_FileID_Sort>
4442

> <TS_ChemName>
2-Ethyl-3-hydroxy-4H-pyran-4-one

> <TS_ChemName_Synonyms>


> <TS_CASRN>
4940-11-8

> <CASRN_ChemName_Relationship>
primary

> <TS_Description>
single chemical compound

> <ChemNote>
tatomers

> <STRUCTURE_Shown>
tested chemical

> <STRUCTURE_Formula>
C7H8O3

> <STRUCTURE_MW>
140.1366

> <STRUCTURE_ChemType>
defined organic

> <STRUCTURE_DefinedOrganicForm>
parent

> <STRUCTURE_IUPAC>
2-ethyl-3-hydroxy-4H-pyran-4-one

> <STRUCTURE_SMILES>
OC1=C(CC)OC=CC1=O

> <STRUCTURE_SMILES_Desalt>
OC1=C(CC)OC=CC1=O

> <Substance_modify_yyyymmdd>
20080825

$$$$
