4945-47-5
ChemmineR-0915142007XD

 21 23  0  0  0  0  0  0  0  0  1 V2000
    6.6533   -9.2151    0.0000 C   0  0  0  0  0  0  0  0  0  0  0  0
    5.9806   -8.0632    0.0000 N   0  0  0  0  0  0  0  0  0  0  0  0
    6.6533   -6.9113    0.0000 C   0  0  0  0  0  0  0  0  0  0  0  0
    5.9806   -5.7594    0.0000 C   0  0  0  0  0  0  0  0  0  0  0  0
    4.6536   -5.7594    0.0000 C   0  0  0  0  0  0  0  0  0  0  0  0
    3.9901   -6.9113    0.0000 C   0  0  0  0  0  0  0  0  0  0  0  0
    4.6536   -8.0632    0.0000 C   0  0  0  0  0  0  0  0  0  0  0  0
    3.9901   -4.6075    0.0000 N   0  0  0  0  0  0  0  0  0  0  0  0
    4.6536   -3.4556    0.0000 C   0  0  0  0  0  0  0  0  0  0  0  0
    3.9901   -2.3038    0.0000 C   0  0  0  0  0  0  0  0  0  0  0  0
    4.6536   -1.1519    0.0000 C   0  0  0  0  0  0  0  0  0  0  0  0
    3.9901    0.0000    0.0000 C   0  0  0  0  0  0  0  0  0  0  0  0
    2.6632    0.0000    0.0000 C   0  0  0  0  0  0  0  0  0  0  0  0
    1.9905   -1.1519    0.0000 C   0  0  0  0  0  0  0  0  0  0  0  0
    2.6632   -2.3038    0.0000 C   0  0  0  0  0  0  0  0  0  0  0  0
    2.6632   -4.6075    0.0000 C   0  0  0  0  0  0  0  0  0  0  0  0
    1.9905   -3.4556    0.0000 C   0  0  0  0  0  0  0  0  0  0  0  0
    0.6635   -3.4556    0.0000 C   0  0  0  0  0  0  0  0  0  0  0  0
    0.0000   -4.6075    0.0000 C   0  0  0  0  0  0  0  0  0  0  0  0
    0.6635   -5.7594    0.0000 C   0  0  0  0  0  0  0  0  0  0  0  0
    1.9905   -5.7594    0.0000 C   0  0  0  0  0  0  0  0  0  0  0  0
  1  2  1  0  0  0  0
  2  3  1  0  0  0  0
  2  7  1  0  0  0  0
  3  4  1  0  0  0  0
  4  5  1  0  0  0  0
  5  6  1  0  0  0  0
  5  8  1  0  0  0  0
  6  7  1  0  0  0  0
  8  9  1  0  0  0  0
  8 16  1  0  0  0  0
  9 10  1  0  0  0  0
 10 11  2  0  0  0  0
 10 15  1  0  0  0  0
 11 12  1  0  0  0  0
 12 13  2  0  0  0  0
 13 14  1  0  0  0  0
 14 15  2  0  0  0  0
 16 17  2  0  0  0  0
 16 21  1  0  0  0  0
 17 18  1  0  0  0  0
 18 19  2  0  0  0  0
 19 20  1  0  0  0  0
 20 21  2  0  0  0  0
M  END
> <ID>
16151

> <Formula>
C19H24N2

> <FW>
280.4073

> <DSSTox_CID>
31540

> <DSSTox_RID>
97425

> <DSSTox_GSID>
57751

> <DSSTox_FileID_Sort>
8492

> <TS_ChemName>
Bamipine

> <TS_ChemName_Synonyms>


> <TS_CASRN>
4945-47-5

> <CASRN_ChemName_Relationship>
primary

> <TS_Description>
single chemical compound

> <ChemNote>


> <STRUCTURE_Shown>
tested chemical

> <STRUCTURE_Formula>
C19H24N2

> <STRUCTURE_MW>
280.4073

> <STRUCTURE_ChemType>
defined organic

> <STRUCTURE_DefinedOrganicForm>
parent

> <STRUCTURE_IUPAC>
N-benzyl-1-methyl-N-phenylpiperidin-4-amine

> <STRUCTURE_SMILES>
CN1CCC(CC1)N(Cc2ccccc2)c3ccccc3

> <STRUCTURE_SMILES_Desalt>
CN1CCC(CC1)N(Cc2ccccc2)c3ccccc3

> <Substance_modify_yyyymmdd>
20131018

$$$$
