495-85-2
ChemmineR-0915142007XD

 20 22  0  0  1  0  0  0  0  0  1 V2000
    2.2715   -1.9999    0.0000 C   0  0  0  0  0  0  0  0  0  0  0  0
    3.4196   -1.3209    0.0000 C   0  0  0  0  0  0  0  0  0  0  0  0
    2.2715   -3.3456    0.0000 C   0  0  0  0  0  0  0  0  0  0  0  0
    4.5678   -1.9999    0.0000 O   0  0  0  0  0  0  0  0  0  0  0  0
   10.3083   -4.0122    0.0000 C   0  0  0  0  0  0  0  0  0  0  0  0
   10.3083   -5.3578    0.0000 C   0  0  0  0  0  0  0  0  0  0  0  0
    5.7035   -4.0122    0.0000 C   0  0  0  0  0  0  0  0  0  0  0  0
   11.5799   -3.5925    0.0000 O   0  0  0  0  0  0  0  0  0  0  0  0
    4.5678   -3.3456    0.0000 C   0  0  0  0  0  0  0  0  0  0  0  0
    6.8640   -3.3456    0.0000 C   0  0  0  0  0  0  0  0  0  0  0  0
   11.5799   -5.7529    0.0000 O   0  0  0  0  0  0  0  0  0  0  0  0
    3.4196   -4.0122    0.0000 C   0  0  0  0  0  0  0  0  0  0  0  0
   12.3453   -4.6665    0.0000 C   0  0  0  0  0  0  0  0  0  0  0  0
    3.4196    0.0000    0.0000 O   0  0  0  0  0  0  0  0  0  0  0  0
    9.1602   -3.3456    0.0000 C   0  0  0  0  0  0  0  0  0  0  0  0
    8.0121   -4.0122    0.0000 C   0  0  0  0  0  0  0  0  0  0  0  0
    9.1602   -6.0121    0.0000 C   0  0  0  0  0  0  0  0  0  0  0  0
    1.1481   -4.0246    0.0000 O   0  0  0  0  0  0  0  0  0  0  0  0
    8.0121   -5.3578    0.0000 C   0  0  0  0  0  0  0  0  0  0  0  0
    0.0000   -3.3703    0.0000 C   0  0  0  0  0  0  0  0  0  0  0  0
  1  2  1  0  0  0  0
  1  3  2  0  0  0  0
  2  4  1  0  0  0  0
  2 14  2  0  0  0  0
  3 12  1  0  0  0  0
  3 18  1  0  0  0  0
  4  9  1  0  0  0  0
  5 15  2  0  0  0  0
  5  8  1  0  0  0  0
  5  6  1  0  0  0  0
  6 17  2  0  0  0  0
  6 11  1  0  0  0  0
  9  7  1  1  0  0  0
  7 10  2  0  0  0  0
  8 13  1  0  0  0  0
  9 12  1  0  0  0  0
 10 16  1  0  0  0  0
 11 13  1  0  0  0  0
 15 16  1  0  0  0  0
 16 19  2  0  0  0  0
 17 19  1  0  0  0  0
 18 20  1  0  0  0  0
M  END
> <ID>
6642

> <Formula>
C15H14O5

> <FW>
274.2687

> <DSSTox_CID>
13674

> <DSSTox_RID>
79091

> <DSSTox_GSID>
33674

> <DSSTox_FileID_Sort>
3773

> <TS_ChemName>
Methysticin

> <TS_ChemName_Synonyms>


> <TS_CASRN>
495-85-2

> <CASRN_ChemName_Relationship>
primary

> <TS_Description>
single chemical compound

> <ChemNote>
stereochem

> <STRUCTURE_Shown>
tested chemical

> <STRUCTURE_Formula>
C15H14O5

> <STRUCTURE_MW>
274.2687

> <STRUCTURE_ChemType>
defined organic

> <STRUCTURE_DefinedOrganicForm>
parent

> <STRUCTURE_IUPAC>
(6R)-6-[(E)-2-(1,3-benzodioxol-5-yl)ethenyl]-4-methoxy-5,6-dihydro-2H-pyran-2-one

> <STRUCTURE_SMILES>
O=C3C=C(C[C@H](/C=C/c1ccc2OCOc2c1)O3)OC

> <STRUCTURE_SMILES_Desalt>
O=C3C=C(C[C@H](/C=C/c1ccc2OCOc2c1)O3)OC

> <Substance_modify_yyyymmdd>
20080429

$$$$
