495-40-9
ChemmineR-0915142007XD

 11 11  0  0  0  0  0  0  0  0  1 V2000
    6.9126   -1.9977    0.0000 C   0  0  0  0  0  0  0  0  0  0  0  0
    6.9126   -3.3250    0.0000 C   0  0  0  0  0  0  0  0  0  0  0  0
    5.7582   -3.9817    0.0000 C   0  0  0  0  0  0  0  0  0  0  0  0
    4.6107   -3.3250    0.0000 C   0  0  0  0  0  0  0  0  0  0  0  0
    4.6107   -1.9977    0.0000 C   0  0  0  0  0  0  0  0  0  0  0  0
    5.7582   -1.3272    0.0000 C   0  0  0  0  0  0  0  0  0  0  0  0
    3.4563   -1.3272    0.0000 C   0  0  0  0  0  0  0  0  0  0  0  0
    2.3019   -1.9977    0.0000 C   0  0  0  0  0  0  0  0  0  0  0  0
    3.4563    0.0000    0.0000 O   0  0  0  0  0  0  0  0  0  0  0  0
    1.1544   -1.3272    0.0000 C   0  0  0  0  0  0  0  0  0  0  0  0
    0.0000   -1.9977    0.0000 C   0  0  0  0  0  0  0  0  0  0  0  0
  1  6  2  0  0  0  0
  1  2  1  0  0  0  0
  2  3  2  0  0  0  0
  3  4  1  0  0  0  0
  4  5  2  0  0  0  0
  5  6  1  0  0  0  0
  5  7  1  0  0  0  0
  7  8  1  0  0  0  0
  7  9  2  0  0  0  0
  8 10  1  0  0  0  0
 10 11  1  0  0  0  0
M  END
> <ID>
12213

> <Formula>
C10H12O

> <FW>
148.2017

> <DSSTox_CID>
27059

> <DSSTox_RID>
82076

> <DSSTox_GSID>
47059

> <DSSTox_FileID_Sort>
6757

> <TS_ChemName>
Butyrophenone

> <TS_ChemName_Synonyms>


> <TS_CASRN>
495-40-9

> <CASRN_ChemName_Relationship>
primary

> <TS_Description>
single chemical compound

> <ChemNote>


> <STRUCTURE_Shown>
tested chemical

> <STRUCTURE_Formula>
C10H12O

> <STRUCTURE_MW>
148.2017

> <STRUCTURE_ChemType>
defined organic

> <STRUCTURE_DefinedOrganicForm>
parent

> <STRUCTURE_IUPAC>
1-phenylbutan-1-one

> <STRUCTURE_SMILES>
O=C(CCC)c1ccccc1

> <STRUCTURE_SMILES_Desalt>
O=C(CCC)c1ccccc1

> <Substance_modify_yyyymmdd>
20100429

$$$$
