495-84-1
ChemmineR-0915142007XD

 18 19  0  0  0  0  0  0  0  0  1 V2000
    1.1569   -3.9641    0.0000 C   0  0  0  0  0  0  0  0  0  0  0  0
    3.4787   -3.9641    0.0000 N   0  0  0  0  0  0  0  0  0  0  0  0
    5.7844   -3.9318    0.0000 C   0  0  0  0  0  0  0  0  0  0  0  0
    2.3218   -4.6437    0.0000 N   0  0  0  0  0  0  0  0  0  0  0  0
    0.0000   -4.6437    0.0000 O   0  0  0  0  0  0  0  0  0  0  0  0
    1.1569    0.0000    0.0000 N   0  0  0  0  0  0  0  0  0  0  0  0
    6.9332   -4.6113    0.0000 C   0  0  0  0  0  0  0  0  0  0  0  0
    1.1569   -2.6454    0.0000 C   0  0  0  0  0  0  0  0  0  0  0  0
    4.6437   -4.6275    0.0000 C   0  0  0  0  0  0  0  0  0  0  0  0
    6.9332   -5.9300    0.0000 O   0  0  0  0  0  0  0  0  0  0  0  0
    5.7844   -2.6131    0.0000 C   0  0  0  0  0  0  0  0  0  0  0  0
    2.3218   -0.6634    0.0000 C   0  0  0  0  0  0  0  0  0  0  0  0
    0.0162   -0.6634    0.0000 C   0  0  0  0  0  0  0  0  0  0  0  0
    2.3218   -1.9821    0.0000 C   0  0  0  0  0  0  0  0  0  0  0  0
    0.0162   -1.9982    0.0000 C   0  0  0  0  0  0  0  0  0  0  0  0
    8.0901   -3.9318    0.0000 C   0  0  0  0  0  0  0  0  0  0  0  0
    6.9332   -1.9659    0.0000 C   0  0  0  0  0  0  0  0  0  0  0  0
    8.0901   -2.6131    0.0000 C   0  0  0  0  0  0  0  0  0  0  0  0
  1  4  1  0  0  0  0
  1  5  2  0  0  0  0
  1  8  1  0  0  0  0
  2  4  1  0  0  0  0
  2  9  2  0  0  0  0
  3  9  1  0  0  0  0
  3  7  2  0  0  0  0
  3 11  1  0  0  0  0
  6 13  2  0  0  0  0
  6 12  1  0  0  0  0
  7 10  1  0  0  0  0
  7 16  1  0  0  0  0
  8 14  1  0  0  0  0
  8 15  2  0  0  0  0
 11 17  2  0  0  0  0
 12 14  2  0  0  0  0
 13 15  1  0  0  0  0
 16 18  2  0  0  0  0
 17 18  1  0  0  0  0
M  END
> <ID>
11566

> <Formula>
C13H11N3O2

> <FW>
241.2453

> <DSSTox_CID>
26272

> <DSSTox_RID>
81499

> <DSSTox_GSID>
46272

> <DSSTox_FileID_Sort>
6180

> <TS_ChemName>
Salinazid

> <TS_ChemName_Synonyms>


> <TS_CASRN>
495-84-1

> <CASRN_ChemName_Relationship>
primary

> <TS_Description>
single chemical compound

> <ChemNote>


> <STRUCTURE_Shown>
tested chemical

> <STRUCTURE_Formula>
C13H11N3O2

> <STRUCTURE_MW>
241.2453

> <STRUCTURE_ChemType>
defined organic

> <STRUCTURE_DefinedOrganicForm>
parent

> <STRUCTURE_IUPAC>
N'-[(E)-(2-hydroxyphenyl)methylidene]pyridine-4-carbohydrazide

> <STRUCTURE_SMILES>
O=C(N/N=C/c1ccccc1O)c2ccncc2

> <STRUCTURE_SMILES_Desalt>
O=C(N/N=C/c1ccccc1O)c2ccncc2

> <Substance_modify_yyyymmdd>
20110815

$$$$
