495-69-2
ChemmineR-0915142007XD

 13 13  0  0  0  0  0  0  0  0  1 V2000
    0.0000   -1.3292    0.0000 O   0  0  0  0  0  0  0  0  0  0  0  0
    1.1520   -1.9979    0.0000 C   0  0  0  0  0  0  0  0  0  0  0  0
    1.1520   -3.3271    0.0000 O   0  0  0  0  0  0  0  0  0  0  0  0
    2.3040   -1.3292    0.0000 C   0  0  0  0  0  0  0  0  0  0  0  0
    3.4560   -1.9979    0.0000 N   0  0  0  0  0  0  0  0  0  0  0  0
    4.6000   -1.3292    0.0000 C   0  0  0  0  0  0  0  0  0  0  0  0
    4.6000    0.0000    0.0000 O   0  0  0  0  0  0  0  0  0  0  0  0
    5.7520   -1.9979    0.0000 C   0  0  0  0  0  0  0  0  0  0  0  0
    6.9040   -1.3292    0.0000 C   0  0  0  0  0  0  0  0  0  0  0  0
    8.0560   -1.9979    0.0000 C   0  0  0  0  0  0  0  0  0  0  0  0
    8.0560   -3.3271    0.0000 C   0  0  0  0  0  0  0  0  0  0  0  0
    6.9040   -3.9877    0.0000 C   0  0  0  0  0  0  0  0  0  0  0  0
    5.7520   -3.3271    0.0000 C   0  0  0  0  0  0  0  0  0  0  0  0
  1  2  1  0  0  0  0
  2  3  2  0  0  0  0
  2  4  1  0  0  0  0
  4  5  1  0  0  0  0
  5  6  1  0  0  0  0
  6  7  2  0  0  0  0
  6  8  1  0  0  0  0
  8  9  2  0  0  0  0
  8 13  1  0  0  0  0
  9 10  1  0  0  0  0
 10 11  2  0  0  0  0
 11 12  1  0  0  0  0
 12 13  2  0  0  0  0
M  END
> <ID>
11388

> <Formula>
C9H9NO3

> <FW>
179.1727

> <DSSTox_CID>
26073

> <DSSTox_RID>
81320

> <DSSTox_GSID>
46073

> <DSSTox_FileID_Sort>
6001

> <TS_ChemName>
Hippuric acid

> <TS_ChemName_Synonyms>


> <TS_CASRN>
495-69-2

> <CASRN_ChemName_Relationship>
primary

> <TS_Description>
single chemical compound

> <ChemNote>


> <STRUCTURE_Shown>
tested chemical

> <STRUCTURE_Formula>
C9H9NO3

> <STRUCTURE_MW>
179.1727

> <STRUCTURE_ChemType>
defined organic

> <STRUCTURE_DefinedOrganicForm>
parent

> <STRUCTURE_IUPAC>
N-benzoylglycine

> <STRUCTURE_SMILES>
O=C(NCC(=O)O)c1ccccc1

> <STRUCTURE_SMILES_Desalt>
O=C(NCC(=O)O)c1ccccc1

> <Substance_modify_yyyymmdd>
20110819

$$$$
