49562-28-9
ChemmineR-0915142007XD

 25 26  0  0  0  0  0  0  0  0  1 V2000
    2.2800   -3.3164    0.0000 C    0  0  0  0  0  0  0  0  0  0  0  0
    3.4269   -3.9935    0.0000 C    0  0  0  0  0  0  0  0  0  0  0  0
    9.2029   -2.0036    0.0000 C    0  0  0  0  0  0  0  0  0  0  0  0
    4.5876   -4.6706    0.0000 O    0  0  0  0  0  0  0  0  0  0  0  0
    2.2800   -1.9898    0.0000 O    0  0  0  0  0  0  0  0  0  0  0  0
   10.3775   -2.6945    0.0000 C    0  0  0  0  0  0  0  0  0  0  0  0
    8.0422   -2.6669    0.0000 C    0  0  0  0  0  0  0  0  0  0  0  0
    1.1469   -3.9796    0.0000 O    0  0  0  0  0  0  0  0  0  0  0  0
    9.2167   -0.6633    0.0000 O    0  0  0  0  0  0  0  0  0  0  0  0
    8.0422   -4.0073    0.0000 C    0  0  0  0  0  0  0  0  0  0  0  0
   11.5244   -2.0313    0.0000 C    0  0  0  0  0  0  0  0  0  0  0  0
    6.8953   -2.0036    0.0000 C    0  0  0  0  0  0  0  0  0  0  0  0
   10.3775   -4.0211    0.0000 C    0  0  0  0  0  0  0  0  0  0  0  0
    5.7484   -3.9935    0.0000 C    0  0  0  0  0  0  0  0  0  0  0  0
   12.6575   -4.0211    0.0000 C    0  0  0  0  0  0  0  0  0  0  0  0
    6.9091   -4.6706    0.0000 C    0  0  0  0  0  0  0  0  0  0  0  0
    5.7484   -2.6531    0.0000 C    0  0  0  0  0  0  0  0  0  0  0  0
   12.6575   -2.6945    0.0000 C    0  0  0  0  0  0  0  0  0  0  0  0
   11.5244   -4.6844    0.0000 C    0  0  0  0  0  0  0  0  0  0  0  0
   13.8182   -4.7120    0.0000 Cl   0  0  0  0  0  0  0  0  0  0  0  0
    2.7498   -5.1404    0.0000 C    0  0  0  0  0  0  0  0  0  0  0  0
    4.0902   -2.8465    0.0000 C    0  0  0  0  0  0  0  0  0  0  0  0
    1.1469   -1.3265    0.0000 C    0  0  0  0  0  0  0  0  0  0  0  0
    1.1469    0.0000    0.0000 C    0  0  0  0  0  0  0  0  0  0  0  0
    0.0000   -1.9898    0.0000 C    0  0  0  0  0  0  0  0  0  0  0  0
  1  2  1  0  0  0  0
  1  5  1  0  0  0  0
  1  8  2  0  0  0  0
  2  4  1  0  0  0  0
  2 21  1  0  0  0  0
  2 22  1  0  0  0  0
  3  7  1  0  0  0  0
  3  6  1  0  0  0  0
  3  9  2  0  0  0  0
  4 14  1  0  0  0  0
  5 23  1  0  0  0  0
  6 11  2  0  0  0  0
  6 13  1  0  0  0  0
  7 12  1  0  0  0  0
  7 10  2  0  0  0  0
 10 16  1  0  0  0  0
 11 18  1  0  0  0  0
 12 17  2  0  0  0  0
 13 19  2  0  0  0  0
 14 16  2  0  0  0  0
 14 17  1  0  0  0  0
 15 19  1  0  0  0  0
 15 20  1  0  0  0  0
 15 18  2  0  0  0  0
 23 24  1  0  0  0  0
 23 25  1  0  0  0  0
M  END
> <ID>
6245

> <Formula>
C20H21ClO4

> <FW>
360.8313

> <DSSTox_CID>
9874

> <DSSTox_RID>
78828

> <DSSTox_GSID>
29874

> <DSSTox_FileID_Sort>
3510

> <TS_ChemName>
Fenofibrate

> <TS_ChemName_Synonyms>


> <TS_CASRN>
49562-28-9

> <CASRN_ChemName_Relationship>
primary

> <TS_Description>
single chemical compound

> <ChemNote>


> <STRUCTURE_Shown>
tested chemical

> <STRUCTURE_Formula>
C20H21ClO4

> <STRUCTURE_MW>
360.8313

> <STRUCTURE_ChemType>
defined organic

> <STRUCTURE_DefinedOrganicForm>
parent

> <STRUCTURE_IUPAC>
propan-2-yl 2-[4-(4-chlorobenzoyl)phenoxy]-2-methylpropanoate

> <STRUCTURE_SMILES>
O=C(c1ccc(Cl)cc1)c2ccc(OC(C)(C)C(=O)OC(C)C)cc2

> <STRUCTURE_SMILES_Desalt>
O=C(c1ccc(Cl)cc1)c2ccc(OC(C)(C)C(=O)OC(C)C)cc2

> <Substance_modify_yyyymmdd>
20080429

$$$$
