4956-37-0
ChemmineR-0915142007XD

 31 34  0  0  1  0  0  0  0  0  1 V2000
    7.4274   -3.0692    0.0000 C   0  0  0  0  0  0  0  0  0  0  0  0
    7.4274   -4.4963    0.0000 C   0  0  0  0  0  0  0  0  0  0  0  0
    6.1844   -5.2022    0.0000 C   0  0  0  0  0  0  0  0  0  0  0  0
    4.9567   -4.4963    0.0000 C   0  0  0  0  0  0  0  0  0  0  0  0
    3.7444   -5.2022    0.0000 C   0  0  0  0  0  0  0  0  0  0  0  0
    8.7778   -2.5934    0.0000 C   0  0  0  0  0  0  0  0  0  0  0  0
    3.7444   -6.6294    0.0000 C   0  0  0  0  0  0  0  0  0  0  0  0
    6.1844   -2.3633    0.0000 C   0  0  0  0  0  0  0  0  0  0  0  0
    4.9567   -3.0692    0.0000 C   0  0  0  0  0  0  0  0  0  0  0  0
    8.7778   -4.9107    0.0000 C   0  0  0  0  0  0  0  0  0  0  0  0
    6.1844   -6.6294    0.0000 C   0  0  0  0  0  0  0  0  0  0  0  0
    9.1768   -1.2737    0.0000 O   0  0  0  0  0  0  0  0  0  0  0  0
    2.5167   -4.4963    0.0000 C   0  0  0  0  0  0  0  0  0  0  0  0
   10.1743   -0.9821    0.0000 C   0  0  0  0  0  0  0  0  0  0  0  0
    4.9567   -7.3507    0.0000 C   0  0  0  0  0  0  0  0  0  0  0  0
    9.6372   -3.7904    0.0000 C   0  0  0  0  0  0  0  0  0  0  0  0
    2.5167   -7.3507    0.0000 C   0  0  0  0  0  0  0  0  0  0  0  0
   10.4505    0.0000    0.0000 O   0  0  0  0  0  0  0  0  0  0  0  0
    1.2891   -6.6294    0.0000 C   0  0  0  0  0  0  0  0  0  0  0  0
    1.2891   -5.2022    0.0000 C   0  0  0  0  0  0  0  0  0  0  0  0
    7.4274   -1.6420    0.0000 C   0  0  0  0  0  0  0  0  0  0  0  0
    0.0000   -7.3814    0.0000 O   0  0  0  0  0  0  0  0  0  0  0  0
   10.9109   -1.7187    0.0000 C   0  0  0  0  0  0  0  0  0  0  0  0
   11.8930   -1.4579    0.0000 C   0  0  0  0  0  0  0  0  0  0  0  0
   14.3791   -2.7009    0.0000 C   0  0  0  0  0  0  0  0  0  0  0  0
   13.6271   -1.9950    0.0000 C   0  0  0  0  0  0  0  0  0  0  0  0
   12.6143   -2.2098    0.0000 C   0  0  0  0  0  0  0  0  0  0  0  0
   15.3459   -2.4400    0.0000 C   0  0  0  0  0  0  0  0  0  0  0  0
    4.9567   -5.9082    0.0000 H   0  0  0  0  0  0  0  0  0  0  0  0
    7.4274   -5.9082    0.0000 H   0  0  0  0  0  0  0  0  0  0  0  0
    6.1844   -3.8058    0.0000 H   0  0  0  0  0  0  0  0  0  0  0  0
  1  2  1  0  0  0  0
  1  6  1  0  0  0  0
  1  8  1  0  0  0  0
  1 21  1  1  0  0  0
  2  3  1  0  0  0  0
  2 10  1  0  0  0  0
  2 30  1  6  0  0  0
  3 11  1  0  0  0  0
  3  4  1  0  0  0  0
  3 31  1  1  0  0  0
  4  9  1  0  0  0  0
  4  5  1  0  0  0  0
  4 29  1  6  0  0  0
  5  7  1  0  0  0  0
  5 13  2  0  0  0  0
  6 12  1  1  0  0  0
  6 16  1  0  0  0  0
  7 17  2  0  0  0  0
  7 15  1  0  0  0  0
  8  9  1  0  0  0  0
 10 16  1  0  0  0  0
 11 15  1  0  0  0  0
 12 14  1  0  0  0  0
 13 20  1  0  0  0  0
 14 18  2  0  0  0  0
 14 23  1  0  0  0  0
 17 19  1  0  0  0  0
 19 20  2  0  0  0  0
 19 22  1  0  0  0  0
 23 24  1  0  0  0  0
 24 27  1  0  0  0  0
 25 26  1  0  0  0  0
 25 28  1  0  0  0  0
 26 27  1  0  0  0  0
M  END
> <ID>
2701

> <Formula>
C25H36O3

> <FW>
384.5515

> <DSSTox_CID>
3001

> <DSSTox_RID>
76826

> <DSSTox_GSID>
23001

> <DSSTox_FileID_Sort>
1510

> <TS_ChemName>
Estradiol enanthate

> <TS_ChemName_Synonyms>


> <TS_CASRN>
4956-37-0

> <CASRN_ChemName_Relationship>
primary

> <TS_Description>
single chemical compound

> <ChemNote>
stereochem

> <STRUCTURE_Shown>
tested chemical

> <STRUCTURE_Formula>
C25H36O3

> <STRUCTURE_MW>
384.5515

> <STRUCTURE_ChemType>
defined organic

> <STRUCTURE_DefinedOrganicForm>
parent

> <STRUCTURE_IUPAC>
(17beta)-3-hydroxyestra-1(10),2,4-trien-17-yl heptanoate

> <STRUCTURE_SMILES>
CCCCCCC(=O)O[C@H]2CC[C@H]3[C@@H]4CCc1cc(O)ccc1[C@H]4CC[C@]23C

> <STRUCTURE_SMILES_Desalt>
CCCCCCC(=O)O[C@H]2CC[C@H]3[C@@H]4CCc1cc(O)ccc1[C@H]4CC[C@]23C

> <Substance_modify_yyyymmdd>
20080429

$$$$
