49570-63-0
ChemmineR-0915142007XD

 24 24  0  0  1  0  0  0  0  0  1 V2000
    3.8990   -3.2479    0.0000 C    0  0  0  0  0  0  0  0  0  0  0  0
    3.8990   -5.3522    0.0000 C    0  0  0  0  0  0  0  0  0  0  0  0
    3.8831   -1.9535    0.0000 C    0  0  0  0  0  0  0  0  0  0  0  0
    2.5888   -3.2479    0.0000 C    0  0  0  0  0  0  0  0  0  0  0  0
    1.9376   -4.3675    0.0000 C    0  0  0  0  0  0  0  0  0  0  0  0
    1.9376   -2.1202    0.0000 C    0  0  0  0  0  0  0  0  0  0  0  0
    0.6432   -4.3675    0.0000 C    0  0  0  0  0  0  0  0  0  0  0  0
    0.6432   -2.1202    0.0000 C    0  0  0  0  0  0  0  0  0  0  0  0
    0.0000   -3.2479    0.0000 C    0  0  0  0  0  0  0  0  0  0  0  0
    5.1775   -3.2479    0.0000 C    0  0  0  0  0  0  0  0  0  0  0  0
    5.8208   -2.1202    0.0000 C    0  0  0  0  0  0  0  0  0  0  0  0
    5.8208   -4.3675    0.0000 C    0  0  0  0  0  0  0  0  0  0  0  0
    7.1151   -2.1202    0.0000 C    0  0  0  0  0  0  0  0  0  0  0  0
    7.1151   -4.3675    0.0000 C    0  0  0  0  0  0  0  0  0  0  0  0
    7.7663   -3.2479    0.0000 C    0  0  0  0  0  0  0  0  0  0  0  0
    5.0108   -1.2944    0.0000 O    0  0  0  0  0  0  0  0  0  0  0  0
    2.7635   -1.2944    0.0000 C    0  0  0  0  0  0  0  0  0  0  0  0
    2.7635    0.0000    0.0000 C    0  0  0  0  0  0  0  0  0  0  0  0
    2.7794   -5.9875    0.0000 C    0  0  0  0  0  0  0  0  0  0  0  0
    2.7794   -7.2819    0.0000 N    0  0  0  0  0  0  0  0  0  0  0  0
    1.6517   -5.3522    0.0000 C    0  0  0  0  0  0  0  0  0  0  0  0
    1.6517   -7.9410    0.0000 C    0  0  0  0  0  0  0  0  0  0  0  0
    3.8990   -7.9410    0.0000 C    0  0  0  0  0  0  0  0  0  0  0  0
    6.3846   -6.0987    0.0000 Cl   0  0  0  0  0  0  0  0  0  0  0  0
  1  2  1  0  0  0  0
  1  3  1  0  0  0  0
  1  4  1  0  0  0  0
  1 10  1  0  0  0  0
  2 19  1  0  0  0  0
  3 16  1  1  0  0  0
  3 17  1  0  0  0  0
  4  5  1  0  0  0  0
  4  6  2  0  0  0  0
  5  7  2  0  0  0  0
  6  8  1  0  0  0  0
  7  9  1  0  0  0  0
  8  9  2  0  0  0  0
 10 11  1  0  0  0  0
 10 12  2  0  0  0  0
 11 13  2  0  0  0  0
 12 14  1  0  0  0  0
 13 15  1  0  0  0  0
 14 15  2  0  0  0  0
 17 18  1  0  0  0  0
 19 20  1  6  0  0  0
 19 21  1  0  0  0  0
 20 22  1  0  0  0  0
 20 23  1  0  0  0  0
M  END
> <ID>
13906

> <Formula>
C21H30ClNO

> <FW>
347.9220 (311.4611+36.4609)

> <DSSTox_CID>
28843

> <DSSTox_RID>
83112

> <DSSTox_GSID>
48917

> <DSSTox_FileID_Sort>
7789

> <TS_ChemName>
(+)-alpha-Methadol hydrochloride

> <TS_ChemName_Synonyms>
(+)-?-Methadol hydrochloride

> <TS_CASRN>
49570-63-0

> <CASRN_ChemName_Relationship>
primary

> <TS_Description>
single chemical compound

> <ChemNote>
absolute sterochem; parent [17199-54-1]

> <STRUCTURE_Shown>
tested chemical

> <STRUCTURE_Formula>
C21H30ClNO

> <STRUCTURE_MW>
347.922

> <STRUCTURE_ChemType>
defined organic

> <STRUCTURE_DefinedOrganicForm>
complex

> <STRUCTURE_IUPAC>
(3R,6R)-6-(dimethylamino)-4,4-diphenylheptan-3-ol hydrochloride (1:1)

> <STRUCTURE_SMILES>
Cl.O[C@H](CC)C(C[C@@H](C)N(C)C)(c1ccccc1)c2ccccc2

> <STRUCTURE_SMILES_Desalt>
O[C@H](CC)C(C[C@@H](C)N(C)C)(c1ccccc1)c2ccccc2

> <Substance_modify_yyyymmdd>
20111204

$$$$
