496-72-0
ChemmineR-0915142007XD

  9  9  0  0  0  0  0  0  0  0  1 V2000
    4.6082   -2.6589    0.0000 N   0  0  0  0  0  0  0  0  0  0  0  0
    3.4561   -1.9953    0.0000 C   0  0  0  0  0  0  0  0  0  0  0  0
    2.3041   -2.6589    0.0000 C   0  0  0  0  0  0  0  0  0  0  0  0
    1.1520   -1.9953    0.0000 C   0  0  0  0  0  0  0  0  0  0  0  0
    0.0000   -2.6589    0.0000 C   0  0  0  0  0  0  0  0  0  0  0  0
    1.1520   -0.6636    0.0000 C   0  0  0  0  0  0  0  0  0  0  0  0
    2.3041    0.0000    0.0000 C   0  0  0  0  0  0  0  0  0  0  0  0
    3.4561   -0.6636    0.0000 C   0  0  0  0  0  0  0  0  0  0  0  0
    4.6082    0.0000    0.0000 N   0  0  0  0  0  0  0  0  0  0  0  0
  1  2  1  0  0  0  0
  2  3  2  0  0  0  0
  2  8  1  0  0  0  0
  3  4  1  0  0  0  0
  4  5  1  0  0  0  0
  4  6  2  0  0  0  0
  6  7  1  0  0  0  0
  7  8  2  0  0  0  0
  8  9  1  0  0  0  0
M  END
> <ID>
3921

> <Formula>
C7H10N2

> <FW>
122.1677

> <DSSTox_CID>
4930

> <DSSTox_RID>
77586

> <DSSTox_GSID>
24930

> <DSSTox_FileID_Sort>
2269

> <TS_ChemName>
3,4-Diaminotoluene

> <TS_ChemName_Synonyms>
3,4-Diaminotoluene (1,2-Benzenediamine, 4-methyl-)

> <TS_CASRN>
496-72-0

> <CASRN_ChemName_Relationship>
primary

> <TS_Description>
single chemical compound

> <ChemNote>


> <STRUCTURE_Shown>
tested chemical

> <STRUCTURE_Formula>
C7H10N2

> <STRUCTURE_MW>
122.1677

> <STRUCTURE_ChemType>
defined organic

> <STRUCTURE_DefinedOrganicForm>
parent

> <STRUCTURE_IUPAC>
4-methylbenzene-1,2-diamine

> <STRUCTURE_SMILES>
Cc1cc(N)c(N)cc1

> <STRUCTURE_SMILES_Desalt>
Cc1cc(N)c(N)cc1

> <Substance_modify_yyyymmdd>
20080429

$$$$
