496-46-8
ChemmineR-0915142007XD

 10 11  0  0  0  0  0  0  0  0  1 V2000
    2.1172   -2.1644    0.0000 N   0  0  0  0  0  0  0  0  0  0  0  0
    2.1172    0.0000    0.0000 N   0  0  0  0  0  0  0  0  0  0  0  0
    4.6255    0.0000    0.0000 N   0  0  0  0  0  0  0  0  0  0  0  0
    4.6255   -2.1644    0.0000 N   0  0  0  0  0  0  0  0  0  0  0  0
    3.3713   -1.7531    0.0000 C   0  0  0  0  0  0  0  0  0  0  0  0
    3.3713   -0.4180    0.0000 C   0  0  0  0  0  0  0  0  0  0  0  0
    5.4076   -1.0653    0.0000 C   0  0  0  0  0  0  0  0  0  0  0  0
    1.3350   -1.0653    0.0000 C   0  0  0  0  0  0  0  0  0  0  0  0
    0.0000   -1.0653    0.0000 O   0  0  0  0  0  0  0  0  0  0  0  0
    6.7427   -1.0653    0.0000 O   0  0  0  0  0  0  0  0  0  0  0  0
  1  5  1  0  0  0  0
  1  8  1  0  0  0  0
  2  8  1  0  0  0  0
  2  6  1  0  0  0  0
  3  6  1  0  0  0  0
  3  7  1  0  0  0  0
  4  5  1  0  0  0  0
  4  7  1  0  0  0  0
  5  6  1  0  0  0  0
  7 10  2  0  0  0  0
  8  9  2  0  0  0  0
M  END
> <ID>
6327

> <Formula>
C4H6N4O2

> <FW>
142.116

> <DSSTox_CID>
11380

> <DSSTox_RID>
78873

> <DSSTox_GSID>
31380

> <DSSTox_FileID_Sort>
3555

> <TS_ChemName>
Glycoluril

> <TS_ChemName_Synonyms>


> <TS_CASRN>
496-46-8

> <CASRN_ChemName_Relationship>
primary

> <TS_Description>
single chemical compound

> <ChemNote>


> <STRUCTURE_Shown>
tested chemical

> <STRUCTURE_Formula>
C4H6N4O2

> <STRUCTURE_MW>
142.116

> <STRUCTURE_ChemType>
defined organic

> <STRUCTURE_DefinedOrganicForm>
parent

> <STRUCTURE_IUPAC>
tetrahydroimidazo[4,5-d]imidazole-2,5(1H,3H)-dione

> <STRUCTURE_SMILES>
O=C1NC2NC(=O)NC2N1

> <STRUCTURE_SMILES_Desalt>
O=C1NC2NC(=O)NC2N1

> <Substance_modify_yyyymmdd>
20080429

$$$$
