49627-27-2
ChemmineR-0915142007XD

 25 27  0  0  0  0  0  0  0  0  1 V2000
    2.2052   -1.6709    0.0000 O   0  0  0  0  0  0  0  0  0  0  0  0
    2.8758   -6.5701    0.0000 C   0  0  0  0  0  0  0  0  0  0  0  0
    4.8764   -5.2856    0.0000 C   0  0  0  0  0  0  0  0  0  0  0  0
    3.0009   -4.2057    0.0000 C   0  0  0  0  0  0  0  0  0  0  0  0
    3.5578   -5.4106    0.0000 C   0  0  0  0  0  0  0  0  0  0  0  0
    4.0011   -3.3191    0.0000 C   0  0  0  0  0  0  0  0  0  0  0  0
    5.1492   -3.9784    0.0000 C   0  0  0  0  0  0  0  0  0  0  0  0
    5.7516   -6.2859    0.0000 C   0  0  0  0  0  0  0  0  0  0  0  0
   10.9690   -5.1378    0.0000 S   0  0  0  0  0  0  0  0  0  0  0  0
    1.7050   -3.9216    0.0000 C   0  0  0  0  0  0  0  0  0  0  0  0
    6.2973   -3.3191    0.0000 C   0  0  0  0  0  0  0  0  0  0  0  0
    1.3072   -2.6485    0.0000 C   0  0  0  0  0  0  0  0  0  0  0  0
    4.0011   -1.9892    0.0000 C   0  0  0  0  0  0  0  0  0  0  0  0
    9.6505   -5.4334    0.0000 C   0  0  0  0  0  0  0  0  0  0  0  0
    0.0000   -2.3757    0.0000 O   0  0  0  0  0  0  0  0  0  0  0  0
    7.0588   -5.9904    0.0000 C   0  0  0  0  0  0  0  0  0  0  0  0
    8.7639   -4.4445    0.0000 C   0  0  0  0  0  0  0  0  0  0  0  0
    9.2413   -6.6951    0.0000 C   0  0  0  0  0  0  0  0  0  0  0  0
    5.1606   -1.3186    0.0000 C   0  0  0  0  0  0  0  0  0  0  0  0
    6.3200   -1.9892    0.0000 C   0  0  0  0  0  0  0  0  0  0  0  0
    7.4567   -4.7173    0.0000 C   0  0  0  0  0  0  0  0  0  0  0  0
    7.9455   -6.9679    0.0000 C   0  0  0  0  0  0  0  0  0  0  0  0
    5.1606    0.0000    0.0000 F   0  0  0  0  0  0  0  0  0  0  0  0
   11.3669   -3.8875    0.0000 C   0  0  0  0  0  0  0  0  0  0  0  0
    5.3538   -7.5362    0.0000 H   0  0  0  0  0  0  0  0  0  0  0  0
  1 12  1  0  0  0  0
  2  5  1  0  0  0  0
  3  5  1  0  0  0  0
  3  7  1  0  0  0  0
  3  8  2  0  0  0  0
  4  5  2  0  0  0  0
  4 10  1  0  0  0  0
  4  6  1  0  0  0  0
  6  7  2  0  0  0  0
  6 13  1  0  0  0  0
  7 11  1  0  0  0  0
  8 16  1  0  0  0  0
  8 25  1  0  0  0  0
  9 14  1  0  0  0  0
  9 24  1  0  0  0  0
 10 12  1  0  0  0  0
 11 20  2  0  0  0  0
 12 15  2  0  0  0  0
 13 19  2  0  0  0  0
 14 18  1  0  0  0  0
 14 17  2  0  0  0  0
 16 21  2  0  0  0  0
 16 22  1  0  0  0  0
 17 21  1  0  0  0  0
 18 22  2  0  0  0  0
 19 20  1  0  0  0  0
 19 23  1  0  0  0  0
M  END
> <ID>
14062

> <Formula>
C20H17FO2S

> <FW>
340.4112

> <DSSTox_CID>
29004

> <DSSTox_RID>
83269

> <DSSTox_GSID>
49078

> <DSSTox_FileID_Sort>
7944

> <TS_ChemName>
Sulindac sulfide

> <TS_ChemName_Synonyms>


> <TS_CASRN>
49627-27-2

> <CASRN_ChemName_Relationship>
primary

> <TS_Description>
single chemical compound

> <ChemNote>


> <STRUCTURE_Shown>
tested chemical

> <STRUCTURE_Formula>
C20H17FO2S

> <STRUCTURE_MW>
340.4112

> <STRUCTURE_ChemType>
defined organic

> <STRUCTURE_DefinedOrganicForm>
parent

> <STRUCTURE_IUPAC>
{(1Z)-5-fluoro-2-methyl-1-[4-(methylsulfanyl)benzylidene]-1H-inden-3-yl}acetic acid

> <STRUCTURE_SMILES>
CSc1ccc(cc1)/C=C3\c2ccc(F)cc2C(CC(=O)O)=C3C

> <STRUCTURE_SMILES_Desalt>
CSc1ccc(cc1)/C=C3\c2ccc(F)cc2C(CC(=O)O)=C3C

> <Substance_modify_yyyymmdd>
20111204

$$$$
