4965-33-7
ChemmineR-0915142007XD

 12 13  0  0  0  0  0  0  0  0  1 V2000
    0.0000   -2.6607    0.0000 C    0  0  0  0  0  0  0  0  0  0  0  0
    1.1541   -1.9973    0.0000 C    0  0  0  0  0  0  0  0  0  0  0  0
    2.3014   -2.6607    0.0000 N    0  0  0  0  0  0  0  0  0  0  0  0
    3.4555   -1.9973    0.0000 C    0  0  0  0  0  0  0  0  0  0  0  0
    4.6097   -2.6607    0.0000 C    0  0  0  0  0  0  0  0  0  0  0  0
    5.7569   -1.9973    0.0000 C    0  0  0  0  0  0  0  0  0  0  0  0
    5.7569   -0.6635    0.0000 C    0  0  0  0  0  0  0  0  0  0  0  0
    4.6097    0.0000    0.0000 C    0  0  0  0  0  0  0  0  0  0  0  0
    3.4555   -0.6635    0.0000 C    0  0  0  0  0  0  0  0  0  0  0  0
    2.3014    0.0000    0.0000 C    0  0  0  0  0  0  0  0  0  0  0  0
    1.1541   -0.6635    0.0000 C    0  0  0  0  0  0  0  0  0  0  0  0
    6.9110   -2.6607    0.0000 Cl   0  0  0  0  0  0  0  0  0  0  0  0
  1  2  1  0  0  0  0
  2  3  2  0  0  0  0
  2 11  1  0  0  0  0
  3  4  1  0  0  0  0
  4  5  2  0  0  0  0
  4  9  1  0  0  0  0
  5  6  1  0  0  0  0
  6  7  2  0  0  0  0
  6 12  1  0  0  0  0
  7  8  1  0  0  0  0
  8  9  2  0  0  0  0
  9 10  1  0  0  0  0
 10 11  2  0  0  0  0
M  END
> <ID>
16152

> <Formula>
C10H8ClN

> <FW>
177.6302

> <DSSTox_CID>
31541

> <DSSTox_RID>
97426

> <DSSTox_GSID>
57752

> <DSSTox_FileID_Sort>
8493

> <TS_ChemName>
7-Chloro-2-methylquinoline

> <TS_ChemName_Synonyms>


> <TS_CASRN>
4965-33-7

> <CASRN_ChemName_Relationship>
primary

> <TS_Description>
single chemical compound

> <ChemNote>


> <STRUCTURE_Shown>
tested chemical

> <STRUCTURE_Formula>
C10H8ClN

> <STRUCTURE_MW>
177.6302

> <STRUCTURE_ChemType>
defined organic

> <STRUCTURE_DefinedOrganicForm>
parent

> <STRUCTURE_IUPAC>
7-chloro-2-methylquinoline

> <STRUCTURE_SMILES>
Clc1cc2nc(C)ccc2cc1

> <STRUCTURE_SMILES_Desalt>
Clc1cc2nc(C)ccc2cc1

> <Substance_modify_yyyymmdd>
20131018

$$$$
