496775-61-2
ChemmineR-0915142007XD

 33 36  0  0  0  0  0  0  0  0  1 V2000
   10.3156  -12.4735    0.0000 C   0  0  0  0  0  0  0  0  0  0  0  0
    9.1555  -11.7999    0.0000 C   0  0  0  0  0  0  0  0  0  0  0  0
    8.0080  -12.4735    0.0000 C   0  0  0  0  0  0  0  0  0  0  0  0
    6.8479  -11.7999    0.0000 C   0  0  0  0  0  0  0  0  0  0  0  0
    6.8479  -10.4777    0.0000 C   0  0  0  0  0  0  0  0  0  0  0  0
    8.0080   -9.8166    0.0000 C   0  0  0  0  0  0  0  0  0  0  0  0
    9.1555  -10.4777    0.0000 C   0  0  0  0  0  0  0  0  0  0  0  0
   10.3156   -9.8166    0.0000 C   0  0  0  0  0  0  0  0  0  0  0  0
    5.7004   -9.8166    0.0000 N   0  0  0  0  0  0  0  0  0  0  0  0
    4.4780  -10.3655    0.0000 N   0  0  0  0  0  0  0  0  0  0  0  0
    3.6048   -9.3676    0.0000 C   0  0  0  0  0  0  0  0  0  0  0  0
    2.2702   -9.5173    0.0000 C   0  0  0  0  0  0  0  0  0  0  0  0
    4.2535   -8.2200    0.0000 C   0  0  0  0  0  0  0  0  0  0  0  0
    3.7171   -6.9976    0.0000 N   0  0  0  0  0  0  0  0  0  0  0  0
    2.4074   -6.8729    0.0000 N   0  0  0  0  0  0  0  0  0  0  0  0
    1.8586   -5.6505    0.0000 C   0  0  0  0  0  0  0  0  0  0  0  0
    0.5488   -5.5133    0.0000 C   0  0  0  0  0  0  0  0  0  0  0  0
    0.0000   -4.2909    0.0000 C   0  0  0  0  0  0  0  0  0  0  0  0
    0.7858   -3.2182    0.0000 C   0  0  0  0  0  0  0  0  0  0  0  0
    2.0955   -3.3678    0.0000 C   0  0  0  0  0  0  0  0  0  0  0  0
    2.6444   -4.5778    0.0000 C   0  0  0  0  0  0  0  0  0  0  0  0
    3.9541   -4.7025    0.0000 O   0  0  0  0  0  0  0  0  0  0  0  0
    2.8814   -2.2951    0.0000 C   0  0  0  0  0  0  0  0  0  0  0  0
    2.3325   -1.0727    0.0000 C   0  0  0  0  0  0  0  0  0  0  0  0
    3.1184    0.0000    0.0000 C   0  0  0  0  0  0  0  0  0  0  0  0
    4.4406   -0.1247    0.0000 C   0  0  0  0  0  0  0  0  0  0  0  0
    4.9769   -1.3471    0.0000 C   0  0  0  0  0  0  0  0  0  0  0  0
    4.1911   -2.4199    0.0000 C   0  0  0  0  0  0  0  0  0  0  0  0
    6.3116   -1.4843    0.0000 C   0  0  0  0  0  0  0  0  0  0  0  0
    6.8479   -2.7067    0.0000 O   0  0  0  0  0  0  0  0  0  0  0  0
    7.0974   -0.4116    0.0000 O   0  0  0  0  0  0  0  0  0  0  0  0
    5.5507   -8.4820    0.0000 C   0  0  0  0  0  0  0  0  0  0  0  0
    6.5486   -7.6088    0.0000 O   0  0  0  0  0  0  0  0  0  0  0  0
  1  2  1  0  0  0  0
  2  3  2  0  0  0  0
  2  7  1  0  0  0  0
  3  4  1  0  0  0  0
  4  5  2  0  0  0  0
  5  6  1  0  0  0  0
  5  9  1  0  0  0  0
  6  7  2  0  0  0  0
  7  8  1  0  0  0  0
  9 10  1  0  0  0  0
  9 32  1  0  0  0  0
 10 11  2  0  0  0  0
 11 12  1  0  0  0  0
 11 13  1  0  0  0  0
 13 14  2  0  0  0  0
 13 32  1  0  0  0  0
 14 15  1  0  0  0  0
 15 16  1  0  0  0  0
 16 17  2  0  0  0  0
 16 21  1  0  0  0  0
 17 18  1  0  0  0  0
 18 19  2  0  0  0  0
 19 20  1  0  0  0  0
 20 21  2  0  0  0  0
 20 23  1  0  0  0  0
 21 22  1  0  0  0  0
 23 24  2  0  0  0  0
 23 28  1  0  0  0  0
 24 25  1  0  0  0  0
 25 26  2  0  0  0  0
 26 27  1  0  0  0  0
 27 28  2  0  0  0  0
 27 29  1  0  0  0  0
 29 30  1  0  0  0  0
 29 31  2  0  0  0  0
 32 33  2  0  0  0  0
M  END
> <ID>
16153

> <Formula>
C25H22N4O4

> <FW>
442.4666

> <DSSTox_CID>
31542

> <DSSTox_RID>
97427

> <DSSTox_GSID>
57753

> <DSSTox_FileID_Sort>
8494

> <TS_ChemName>
Eltrombopag

> <TS_ChemName_Synonyms>


> <TS_CASRN>
496775-61-2

> <CASRN_ChemName_Relationship>
primary

> <TS_Description>
single chemical compound

> <ChemNote>


> <STRUCTURE_Shown>
tested chemical

> <STRUCTURE_Formula>
C25H22N4O4

> <STRUCTURE_MW>
442.4666

> <STRUCTURE_ChemType>
defined organic

> <STRUCTURE_DefinedOrganicForm>
parent

> <STRUCTURE_IUPAC>
3'-{(2E)-2-[1-(3,4-dimethylphenyl)-3-methyl-5-oxo-1,5-dihydro-4H-pyrazol-4-ylidene]hydrazino}-2'-hydroxybiphenyl-3-carboxylic acid

> <STRUCTURE_SMILES>
O=C(O)c1cccc(c1)c4cccc(N\N=C2\C(=O)N(N=C2C)c3ccc(C)c(C)c3)c4O

> <STRUCTURE_SMILES_Desalt>
O=C(O)c1cccc(c1)c4cccc(N\N=C2\C(=O)N(N=C2C)c3ccc(C)c(C)c3)c4O

> <Substance_modify_yyyymmdd>
20131018

$$$$
