4968-48-3
ChemmineR-0915142007XD

 19 19  0  0  0  0  0  0  0  0  1 V2000
    5.7688   -5.4632    0.0000 C    0  0  0  0  0  0  0  0  0  0  0  0
    5.7688   -6.7973    0.0000 C    0  0  0  0  0  0  0  0  0  0  0  0
    4.6135   -4.7924    0.0000 C    0  0  0  0  0  0  0  0  0  0  0  0
    4.6135   -7.4532    0.0000 C    0  0  0  0  0  0  0  0  0  0  0  0
    3.4657   -5.4632    0.0000 C    0  0  0  0  0  0  0  0  0  0  0  0
    3.4657   -6.7973    0.0000 C    0  0  0  0  0  0  0  0  0  0  0  0
    4.6135   -3.4657    0.0000 C    0  0  0  0  0  0  0  0  0  0  0  0
    3.9428   -2.3254    0.0000 C    0  0  0  0  0  0  0  0  0  0  0  0
    5.9328   -3.4657    0.0000 C    0  0  0  0  0  0  0  0  0  0  0  0
    4.6135   -1.1552    0.0000 C    0  0  0  0  0  0  0  0  0  0  0  0
    6.6036   -2.3105    0.0000 C    0  0  0  0  0  0  0  0  0  0  0  0
    5.9328   -1.1552    0.0000 N    0  0  0  0  0  0  0  0  0  0  0  0
    3.4657   -4.1216    0.0000 O    0  0  0  0  0  0  0  0  0  0  0  0
    2.2956   -3.4657    0.0000 C    0  0  0  0  0  0  0  0  0  0  0  0
    1.1552   -4.1216    0.0000 C    0  0  0  0  0  0  0  0  0  0  0  0
    0.0000   -3.4657    0.0000 C    0  0  0  0  0  0  0  0  0  0  0  0
    2.2956   -2.1316    0.0000 O    0  0  0  0  0  0  0  0  0  0  0  0
    6.6036    0.0000    0.0000 C    0  0  0  0  0  0  0  0  0  0  0  0
    7.3116   -4.4570    0.0000 Cl   0  0  0  0  0  0  0  0  0  0  0  0
  1  2  1  0  0  0  0
  1  3  2  0  0  0  0
  2  4  2  0  0  0  0
  3  5  1  0  0  0  0
  3  7  1  0  0  0  0
  4  6  1  0  0  0  0
  5  6  2  0  0  0  0
  7  8  1  0  0  0  0
  7  9  1  0  0  0  0
  7 13  1  0  0  0  0
  8 10  1  0  0  0  0
  9 11  1  0  0  0  0
 10 12  1  0  0  0  0
 11 12  1  0  0  0  0
 12 18  1  0  0  0  0
 13 14  1  0  0  0  0
 14 15  1  0  0  0  0
 14 17  2  0  0  0  0
 15 16  1  0  0  0  0
M  END
> <ID>
13910

> <Formula>
C15H22ClNO2

> <FW>
283.7937 (247.3327+36.4609)

> <DSSTox_CID>
28847

> <DSSTox_RID>
83116

> <DSSTox_GSID>
48921

> <DSSTox_FileID_Sort>
7793

> <TS_ChemName>
1-Methyl-4-phenyl-4-propionoxypiperidine hydrochloride

> <TS_ChemName_Synonyms>


> <TS_CASRN>
4968-48-3

> <CASRN_ChemName_Relationship>
primary

> <TS_Description>
single chemical compound

> <ChemNote>


> <STRUCTURE_Shown>
tested chemical

> <STRUCTURE_Formula>
C15H22ClNO2

> <STRUCTURE_MW>
283.7937

> <STRUCTURE_ChemType>
defined organic

> <STRUCTURE_DefinedOrganicForm>
complex

> <STRUCTURE_IUPAC>
1-methyl-4-phenylpiperidin-4-yl propanoate hydrochloride (1:1)

> <STRUCTURE_SMILES>
Cl.CN1CCC(OC(=O)CC)(CC1)c2ccccc2

> <STRUCTURE_SMILES_Desalt>
CN1CCC(OC(=O)CC)(CC1)c2ccccc2

> <Substance_modify_yyyymmdd>
20122020

$$$$
