49697-38-3
ChemmineR-0915142007XD

 30 33  0  0  1  0  0  0  0  0  1 V2000
    4.4662   -5.2562    0.0000 C   0  0  0  0  0  0  0  0  0  0  0  0
    3.4029   -5.9145    0.0000 C   0  0  0  0  0  0  0  0  0  0  0  0
    5.5904   -5.8841    0.0000 C   0  0  0  0  0  0  0  0  0  0  0  0
    6.7247   -5.2562    0.0000 C   0  0  0  0  0  0  0  0  0  0  0  0
    6.7247   -3.9700    0.0000 C   0  0  0  0  0  0  0  0  0  0  0  0
    4.4662   -3.9700    0.0000 C   0  0  0  0  0  0  0  0  0  0  0  0
    5.5904   -7.1804    0.0000 C   0  0  0  0  0  0  0  0  0  0  0  0
    3.4029   -7.1906    0.0000 C   0  0  0  0  0  0  0  0  0  0  0  0
    5.5904   -3.3117    0.0000 C   0  0  0  0  0  0  0  0  0  0  0  0
    4.4662   -7.8185    0.0000 C   0  0  0  0  0  0  0  0  0  0  0  0
    3.4029   -4.6182    0.0000 C   0  0  0  0  0  0  0  0  0  0  0  0
    2.2483   -5.2562    0.0000 C   0  0  0  0  0  0  0  0  0  0  0  0
    7.8286   -3.3117    0.0000 C   0  0  0  0  0  0  0  0  0  0  0  0
    8.9426   -5.2562    0.0000 C   0  0  0  0  0  0  0  0  0  0  0  0
    6.7348   -2.6737    0.0000 C   0  0  0  0  0  0  0  0  0  0  0  0
    8.9426   -3.9700    0.0000 C   0  0  0  0  0  0  0  0  0  0  0  0
    2.2483   -7.8488    0.0000 C   0  0  0  0  0  0  0  0  0  0  0  0
    1.1444   -5.9145    0.0000 C   0  0  0  0  0  0  0  0  0  0  0  0
    1.1444   -7.1804    0.0000 C   0  0  0  0  0  0  0  0  0  0  0  0
    5.5904   -4.5776    0.0000 H   0  0  0  0  0  0  0  0  0  0  0  0
    4.4662   -6.5829    0.0000 H   0  0  0  0  0  0  0  0  0  0  0  0
    6.7247   -6.5829    0.0000 H   0  0  0  0  0  0  0  0  0  0  0  0
    0.0000   -7.8185    0.0000 O   0  0  0  0  0  0  0  0  0  0  0  0
    3.3320   -3.3117    0.0000 O   0  0  0  0  0  0  0  0  0  0  0  0
   10.1275   -3.2712    0.0000 C   0  0  0  0  0  0  0  0  0  0  0  0
    7.8286   -1.9850    0.0000 C   0  0  0  0  0  0  0  0  0  0  0  0
    6.6842   -1.3267    0.0000 O   0  0  0  0  0  0  0  0  0  0  0  0
    8.9730   -1.3267    0.0000 O   0  0  0  0  0  0  0  0  0  0  0  0
    8.9730    0.0000    0.0000 C   0  0  0  0  0  0  0  0  0  0  0  0
    9.0034   -2.6635    0.0000 C   0  0  0  0  0  0  0  0  0  0  0  0
  1  6  1  0  0  0  0
  1  2  1  0  0  0  0
  1 21  1  6  0  0  0
  1  3  1  0  0  0  0
  2  8  1  0  0  0  0
  2 11  1  1  0  0  0
  2 12  1  0  0  0  0
  3  4  1  0  0  0  0
  3  7  1  0  0  0  0
  3 20  1  1  0  0  0
  4 14  1  0  0  0  0
  4  5  1  0  0  0  0
  4 22  1  6  0  0  0
  5  9  1  0  0  0  0
  5 13  1  0  0  0  0
  5 15  1  1  0  0  0
  6  9  1  0  0  0  0
  6 24  1  1  0  0  0
  7 10  1  0  0  0  0
  8 17  2  0  0  0  0
  8 10  1  0  0  0  0
 12 18  2  0  0  0  0
 13 16  1  0  0  0  0
 13 26  1  1  0  0  0
 13 30  1  6  0  0  0
 14 16  1  0  0  0  0
 16 25  1  6  0  0  0
 17 19  1  0  0  0  0
 18 19  1  0  0  0  0
 19 23  2  0  0  0  0
 26 27  2  0  0  0  0
 26 28  1  0  0  0  0
 28 29  1  0  0  0  0
M  END
> <ID>
10970

> <Formula>
C23H32O4

> <FW>
372.4978

> <DSSTox_CID>
25474

> <DSSTox_RID>
80902

> <DSSTox_GSID>
45474

> <DSSTox_FileID_Sort>
5583

> <TS_ChemName>
Rimexolone

> <TS_ChemName_Synonyms>


> <TS_CASRN>
49697-38-3

> <CASRN_ChemName_Relationship>
primary

> <TS_Description>
single chemical compound

> <ChemNote>


> <STRUCTURE_Shown>
tested chemical

> <STRUCTURE_Formula>
C23H32O4

> <STRUCTURE_MW>
372.4978

> <STRUCTURE_ChemType>
defined organic

> <STRUCTURE_DefinedOrganicForm>
parent

> <STRUCTURE_IUPAC>
methyl (11beta,16alpha,17beta)-11-hydroxy-16,17-dimethyl-3-oxoandrosta-1,4-diene-17-carboxylate

> <STRUCTURE_SMILES>
O=C(OC)[C@@]4(C)[C@H](C)C[C@@H]3[C@]4(C)C[C@H](O)[C@H]2[C@H]3CCC1=CC(=O)C=C[C@@]12C

> <STRUCTURE_SMILES_Desalt>
O=C(OC)[C@@]4(C)[C@H](C)C[C@@H]3[C@]4(C)C[C@H](O)[C@H]2[C@H]3CCC1=CC(=O)C=C[C@@]12C

> <Substance_modify_yyyymmdd>
20100107

$$$$
