497-03-0
ChemmineR-0915142007XD

  8  7  0  0  0  0  0  0  0  0  1 V2000
    4.6043   -1.9982    0.0000 H   0  0  0  0  0  0  0  0  0  0  0  0
    3.4532    0.0000    0.0000 O   0  0  0  0  0  0  0  0  0  0  0  0
    0.0000   -1.9982    0.0000 C   0  0  0  0  0  0  0  0  0  0  0  0
    2.3021   -3.3243    0.0000 C   0  0  0  0  0  0  0  0  0  0  0  0
    1.1511   -1.3260    0.0000 C   0  0  0  0  0  0  0  0  0  0  0  0
    3.4532   -1.3260    0.0000 C   0  0  0  0  0  0  0  0  0  0  0  0
    2.3021   -1.9982    0.0000 C   0  0  0  0  0  0  0  0  0  0  0  0
    1.1511    0.0000    0.0000 H   0  0  0  0  0  0  0  0  0  0  0  0
  1  6  1  0  0  0  0
  2  6  2  0  0  0  0
  3  5  1  0  0  0  0
  4  7  1  0  0  0  0
  5  8  1  0  0  0  0
  5  7  2  0  0  0  0
  6  7  1  0  0  0  0
M  END
> <ID>
14172

> <Formula>
C5H8O

> <FW>
84.1164

> <DSSTox_CID>
29264

> <DSSTox_RID>
83383

> <DSSTox_GSID>
49308

> <DSSTox_FileID_Sort>
8058

> <TS_ChemName>
2-Methyl-2-butenal

> <TS_ChemName_Synonyms>


> <TS_CASRN>
497-03-0

> <CASRN_ChemName_Relationship>
primary

> <TS_Description>
single chemical compound

> <ChemNote>
alternate CAS [5934-55-4]

> <STRUCTURE_Shown>
tested chemical

> <STRUCTURE_Formula>
C5H8O

> <STRUCTURE_MW>
84.1164

> <STRUCTURE_ChemType>
defined organic

> <STRUCTURE_DefinedOrganicForm>
parent

> <STRUCTURE_IUPAC>
(2E)-2-methylbut-2-enal

> <STRUCTURE_SMILES>
C[C@H]=C(C)C=O

> <STRUCTURE_SMILES_Desalt>
C[C@H]=C(C)C=O

> <Substance_modify_yyyymmdd>
20111204

$$$$
