49763-96-4
ChemmineR-0915142007XD

 17 18  0  0  0  0  0  0  0  0  1 V2000
    5.4999   -2.6942    0.0000 C   0  0  0  0  0  0  0  0  0  0  0  0
    6.6545   -2.0257    0.0000 C   0  0  0  0  0  0  0  0  0  0  0  0
    7.7889   -2.6942    0.0000 C   0  0  0  0  0  0  0  0  0  0  0  0
    8.9740   -2.0257    0.0000 C   0  0  0  0  0  0  0  0  0  0  0  0
   10.1287   -2.6942    0.0000 C   0  0  0  0  0  0  0  0  0  0  0  0
    7.7889   -4.0413    0.0000 O   0  0  0  0  0  0  0  0  0  0  0  0
    0.7900   -2.4208    0.0000 O   0  0  0  0  0  0  0  0  0  0  0  0
    0.0000   -1.3775    0.0000 C   0  0  0  0  0  0  0  0  0  0  0  0
    0.7900   -0.3039    0.0000 O   0  0  0  0  0  0  0  0  0  0  0  0
    2.0662   -0.6786    0.0000 C   0  0  0  0  0  0  0  0  0  0  0  0
    2.0662   -2.0561    0.0000 C   0  0  0  0  0  0  0  0  0  0  0  0
    3.2412   -2.6638    0.0000 C   0  0  0  0  0  0  0  0  0  0  0  0
    4.3553   -2.0257    0.0000 C   0  0  0  0  0  0  0  0  0  0  0  0
    4.3249   -0.6482    0.0000 C   0  0  0  0  0  0  0  0  0  0  0  0
    3.2007    0.0000    0.0000 C   0  0  0  0  0  0  0  0  0  0  0  0
    8.9740   -0.7090    0.0000 C   0  0  0  0  0  0  0  0  0  0  0  0
   10.1287   -1.3775    0.0000 C   0  0  0  0  0  0  0  0  0  0  0  0
  1  2  2  0  0  0  0
  1 13  1  0  0  0  0
  2  3  1  0  0  0  0
  3  4  1  0  0  0  0
  3  6  1  0  0  0  0
  4  5  1  0  0  0  0
  4 16  1  0  0  0  0
  4 17  1  0  0  0  0
  7  8  1  0  0  0  0
  7 11  1  0  0  0  0
  8  9  1  0  0  0  0
  9 10  1  0  0  0  0
 10 11  2  0  0  0  0
 10 15  1  0  0  0  0
 11 12  1  0  0  0  0
 12 13  2  0  0  0  0
 13 14  1  0  0  0  0
 14 15  2  0  0  0  0
M  END
> <ID>
14052

> <Formula>
C14H18O3

> <FW>
234.2909

> <DSSTox_CID>
28994

> <DSSTox_RID>
83259

> <DSSTox_GSID>
49068

> <DSSTox_FileID_Sort>
7934

> <TS_ChemName>
Stiripentol

> <TS_ChemName_Synonyms>


> <TS_CASRN>
49763-96-4

> <CASRN_ChemName_Relationship>
primary

> <TS_Description>
single chemical compound

> <ChemNote>


> <STRUCTURE_Shown>
tested chemical

> <STRUCTURE_Formula>
C14H18O3

> <STRUCTURE_MW>
234.2909

> <STRUCTURE_ChemType>
defined organic

> <STRUCTURE_DefinedOrganicForm>
parent

> <STRUCTURE_IUPAC>
(1E)-1-(1,3-benzodioxol-5-yl)-4,4-dimethylpent-1-en-3-ol

> <STRUCTURE_SMILES>
CC(C)(C)C(O)/C=C/c1ccc2OCOc2c1

> <STRUCTURE_SMILES_Desalt>
CC(C)(C)C(O)/C=C/c1ccc2OCOc2c1

> <Substance_modify_yyyymmdd>
20111204

$$$$
