4979-32-2
ChemmineR-0915142007XD

 23 26  0  0  0  0  0  0  0  0  1 V2000
    3.5652   -3.5342    0.0000 N   0  0  0  0  0  0  0  0  0  0  0  0
    3.5652   -5.6836    0.0000 S   0  0  0  0  0  0  0  0  0  0  0  0
    4.3505   -4.6089    0.0000 C   0  0  0  0  0  0  0  0  0  0  0  0
    2.2941   -3.9475    0.0000 C   0  0  0  0  0  0  0  0  0  0  0  0
    2.2941   -5.2806    0.0000 C   0  0  0  0  0  0  0  0  0  0  0  0
    1.1367   -5.9419    0.0000 C   0  0  0  0  0  0  0  0  0  0  0  0
    0.0000   -5.2806    0.0000 C   0  0  0  0  0  0  0  0  0  0  0  0
    0.0000   -3.9475    0.0000 C   0  0  0  0  0  0  0  0  0  0  0  0
    1.1367   -3.2758    0.0000 C   0  0  0  0  0  0  0  0  0  0  0  0
    5.6836   -4.6089    0.0000 S   0  0  0  0  0  0  0  0  0  0  0  0
    6.3346   -3.4515    0.0000 N   0  0  0  0  0  0  0  0  0  0  0  0
    7.6677   -3.4515    0.0000 C   0  0  0  0  0  0  0  0  0  0  0  0
    8.3394   -2.3148    0.0000 C   0  0  0  0  0  0  0  0  0  0  0  0
    9.6724   -2.3148    0.0000 C   0  0  0  0  0  0  0  0  0  0  0  0
   10.3338   -3.4515    0.0000 C   0  0  0  0  0  0  0  0  0  0  0  0
    9.6724   -4.6089    0.0000 C   0  0  0  0  0  0  0  0  0  0  0  0
    8.3394   -4.6089    0.0000 C   0  0  0  0  0  0  0  0  0  0  0  0
    5.6836   -2.3148    0.0000 C   0  0  0  0  0  0  0  0  0  0  0  0
    4.3505   -2.3148    0.0000 C   0  0  0  0  0  0  0  0  0  0  0  0
    3.6788   -1.1574    0.0000 C   0  0  0  0  0  0  0  0  0  0  0  0
    4.3505    0.0000    0.0000 C   0  0  0  0  0  0  0  0  0  0  0  0
    5.6836    0.0000    0.0000 C   0  0  0  0  0  0  0  0  0  0  0  0
    6.3346   -1.1574    0.0000 C   0  0  0  0  0  0  0  0  0  0  0  0
  1  3  2  0  0  0  0
  1  4  1  0  0  0  0
  2  3  1  0  0  0  0
  2  5  1  0  0  0  0
  3 10  1  0  0  0  0
  4  5  2  0  0  0  0
  4  9  1  0  0  0  0
  5  6  1  0  0  0  0
  6  7  2  0  0  0  0
  7  8  1  0  0  0  0
  8  9  2  0  0  0  0
 10 11  1  0  0  0  0
 11 12  1  0  0  0  0
 11 18  1  0  0  0  0
 12 13  1  0  0  0  0
 12 17  1  0  0  0  0
 13 14  1  0  0  0  0
 14 15  1  0  0  0  0
 15 16  1  0  0  0  0
 16 17  1  0  0  0  0
 18 19  1  0  0  0  0
 18 23  1  0  0  0  0
 19 20  1  0  0  0  0
 20 21  1  0  0  0  0
 21 22  1  0  0  0  0
 22 23  1  0  0  0  0
M  END
> <ID>
5268

> <Formula>
C19H26N2S2

> <FW>
346.5531

> <DSSTox_CID>
7584

> <DSSTox_RID>
78513

> <DSSTox_GSID>
27584

> <DSSTox_FileID_Sort>
3196

> <TS_ChemName>
N,N-Dicyclohexyl-2-benzothiazolesulfenamide

> <TS_ChemName_Synonyms>


> <TS_CASRN>
4979-32-2

> <CASRN_ChemName_Relationship>
primary

> <TS_Description>
single chemical compound

> <ChemNote>


> <STRUCTURE_Shown>
tested chemical

> <STRUCTURE_Formula>
C19H26N2S2

> <STRUCTURE_MW>
346.5531

> <STRUCTURE_ChemType>
defined organic

> <STRUCTURE_DefinedOrganicForm>
parent

> <STRUCTURE_IUPAC>
N-(1,3-benzothiazol-2-ylsulfanyl)-N-cyclohexylcyclohexanamine

> <STRUCTURE_SMILES>
c1cccc2sc(nc12)SN(C3CCCCC3)C4CCCCC4

> <STRUCTURE_SMILES_Desalt>
c1cccc2sc(nc12)SN(C3CCCCC3)C4CCCCC4

> <Substance_modify_yyyymmdd>
20080429

$$$$
