4985-85-7
ChemmineR-0915142007XD

 11 10  0  0  0  0  0  0  0  0  1 V2000
    2.3037   -4.6557    0.0000 C   0  0  0  0  0  0  0  0  0  0  0  0
    3.4555   -3.9866    0.0000 N   0  0  0  0  0  0  0  0  0  0  0  0
    1.1518   -3.9866    0.0000 C   0  0  0  0  0  0  0  0  0  0  0  0
    4.6074   -4.6557    0.0000 C   0  0  0  0  0  0  0  0  0  0  0  0
    5.7592   -3.9866    0.0000 C   0  0  0  0  0  0  0  0  0  0  0  0
    6.8973   -4.6557    0.0000 O   0  0  0  0  0  0  0  0  0  0  0  0
    0.0000   -4.6557    0.0000 O   0  0  0  0  0  0  0  0  0  0  0  0
    3.4555   -2.6555    0.0000 C   0  0  0  0  0  0  0  0  0  0  0  0
    4.6074   -2.0002    0.0000 C   0  0  0  0  0  0  0  0  0  0  0  0
    4.6074   -0.6690    0.0000 C   0  0  0  0  0  0  0  0  0  0  0  0
    5.7592    0.0000    0.0000 N   0  0  0  0  0  0  0  0  0  0  0  0
  1  2  1  0  0  0  0
  1  3  1  0  0  0  0
  2  4  1  0  0  0  0
  2  8  1  0  0  0  0
  3  7  1  0  0  0  0
  4  5  1  0  0  0  0
  5  6  1  0  0  0  0
  8  9  1  0  0  0  0
  9 10  1  0  0  0  0
 10 11  1  0  0  0  0
M  END
> <ID>
10332

> <Formula>
C7H18N2O2

> <FW>
162.23

> <DSSTox_CID>
24680

> <DSSTox_RID>
80392

> <DSSTox_GSID>
44680

> <DSSTox_FileID_Sort>
5074

> <TS_ChemName>
2,2'-[(3-Aminopropyl)imino]diethanol

> <TS_ChemName_Synonyms>
2,2'-[(3-Aminopropyl)imino]diethanol (Ethanol, 2,2'-[(3-aminopropyl)imino]bis-)

> <TS_CASRN>
4985-85-7

> <CASRN_ChemName_Relationship>
primary

> <TS_Description>
single chemical compound

> <ChemNote>


> <STRUCTURE_Shown>
tested chemical

> <STRUCTURE_Formula>
C7H18N2O2

> <STRUCTURE_MW>
162.23

> <STRUCTURE_ChemType>
defined organic

> <STRUCTURE_DefinedOrganicForm>
parent

> <STRUCTURE_IUPAC>
2,2'-[(3-aminopropyl)imino]diethanol

> <STRUCTURE_SMILES>
OCCN(CCCN)CCO

> <STRUCTURE_SMILES_Desalt>
OCCN(CCCN)CCO

> <Substance_modify_yyyymmdd>
20091116

$$$$
