49864-70-2
ChemmineR-0915142007XD

 28 32  0  0  0  0  0  0  0  0  1 V2000
    3.4685   -5.9764    0.0000 N    0  0  0  0  0  0  0  0  0  0  0  0
    4.6112   -6.6337    0.0000 C    0  0  0  0  0  0  0  0  0  0  0  0
    2.3157   -6.6337    0.0000 C    0  0  0  0  0  0  0  0  0  0  0  0
    3.4685   -4.6517    0.0000 C    0  0  0  0  0  0  0  0  0  0  0  0
    4.6112   -7.9685    0.0000 C    0  0  0  0  0  0  0  0  0  0  0  0
    5.7640   -5.9764    0.0000 C    0  0  0  0  0  0  0  0  0  0  0  0
    2.3157   -7.9685    0.0000 C    0  0  0  0  0  0  0  0  0  0  0  0
    1.1528   -5.9764    0.0000 C    0  0  0  0  0  0  0  0  0  0  0  0
    4.6112   -3.9944    0.0000 C    0  0  0  0  0  0  0  0  0  0  0  0
    2.3157   -3.9944    0.0000 O    0  0  0  0  0  0  0  0  0  0  0  0
    3.4685   -8.6359    0.0000 S    0  0  0  0  0  0  0  0  0  0  0  0
    5.7640   -8.6359    0.0000 C    0  0  0  0  0  0  0  0  0  0  0  0
    6.9168   -6.6337    0.0000 C    0  0  0  0  0  0  0  0  0  0  0  0
    1.1528   -8.6359    0.0000 C    0  0  0  0  0  0  0  0  0  0  0  0
    0.0000   -6.6337    0.0000 C    0  0  0  0  0  0  0  0  0  0  0  0
    4.6112   -2.6494    0.0000 C    0  0  0  0  0  0  0  0  0  0  0  0
    6.9168   -7.9685    0.0000 C    0  0  0  0  0  0  0  0  0  0  0  0
    8.0595   -5.9764    0.0000 Cl   0  0  0  0  0  0  0  0  0  0  0  0
    0.0000   -7.9685    0.0000 C    0  0  0  0  0  0  0  0  0  0  0  0
    5.7640   -1.9921    0.0000 N    0  0  0  0  0  0  0  0  0  0  0  0
    6.9168   -2.6494    0.0000 C    0  0  0  0  0  0  0  0  0  0  0  0
    5.7640   -0.6472    0.0000 C    0  0  0  0  0  0  0  0  0  0  0  0
    8.0595   -1.9921    0.0000 C    0  0  0  0  0  0  0  0  0  0  0  0
    6.9168    0.0000    0.0000 C    0  0  0  0  0  0  0  0  0  0  0  0
    8.0595   -0.6472    0.0000 N    0  0  0  0  0  0  0  0  0  0  0  0
    9.3235   -2.3966    0.0000 C    0  0  0  0  0  0  0  0  0  0  0  0
    9.3235   -0.2326    0.0000 C    0  0  0  0  0  0  0  0  0  0  0  0
   10.1123   -1.3247    0.0000 C    0  0  0  0  0  0  0  0  0  0  0  0
  1  2  1  0  0  0  0
  1  3  1  0  0  0  0
  1  4  1  0  0  0  0
  2  5  1  0  0  0  0
  2  6  2  0  0  0  0
  3  7  2  0  0  0  0
  3  8  1  0  0  0  0
  4  9  1  0  0  0  0
  4 10  2  0  0  0  0
  5 11  1  0  0  0  0
  5 12  2  0  0  0  0
  6 13  1  0  0  0  0
  7 14  1  0  0  0  0
  7 11  1  0  0  0  0
  8 15  2  0  0  0  0
  9 16  1  0  0  0  0
 12 17  1  0  0  0  0
 13 18  1  0  0  0  0
 13 17  2  0  0  0  0
 14 19  2  0  0  0  0
 15 19  1  0  0  0  0
 16 20  1  0  0  0  0
 20 21  1  0  0  0  0
 20 22  1  0  0  0  0
 21 23  1  0  0  0  0
 22 24  1  0  0  0  0
 23 25  1  0  0  0  0
 23 26  1  0  0  0  0
 24 25  1  0  0  0  0
 25 27  1  0  0  0  0
 26 28  1  0  0  0  0
 27 28  1  0  0  0  0
M  END
> <ID>
11667

> <Formula>
C22H24ClN3OS

> <FW>
413.9635

> <DSSTox_CID>
26423

> <DSSTox_RID>
81601

> <DSSTox_GSID>
46423

> <DSSTox_FileID_Sort>
6282

> <TS_ChemName>
Azaclorzine

> <TS_ChemName_Synonyms>


> <TS_CASRN>
49864-70-2

> <CASRN_ChemName_Relationship>
primary

> <TS_Description>
single chemical compound

> <ChemNote>


> <STRUCTURE_Shown>
tested chemical

> <STRUCTURE_Formula>
C22H24ClN3OS

> <STRUCTURE_MW>
413.9635

> <STRUCTURE_ChemType>
defined organic

> <STRUCTURE_DefinedOrganicForm>
parent

> <STRUCTURE_IUPAC>
1-(2-chloro-10H-phenothiazin-10-yl)-3-(hexahydropyrrolo[1,2-a]pyrazin-2(1H)-yl)propan-1-one

> <STRUCTURE_SMILES>
Clc1cc2N(c3ccccc3Sc2cc1)C(=O)CCN4CC5CCCN5CC4

> <STRUCTURE_SMILES_Desalt>
Clc1cc2N(c3ccccc3Sc2cc1)C(=O)CCN4CC5CCCN5CC4

> <Substance_modify_yyyymmdd>
20110813

$$$$
