4986-89-4
ChemmineR-0915142007XD

 25 24  0  0  0  0  0  0  0  0  1 V2000
    8.6554   -6.4729    0.0000 C   0  0  0  0  0  0  0  0  0  0  0  0
    9.3154   -5.3231    0.0000 O   0  0  0  0  0  0  0  0  0  0  0  0
    9.3154   -7.6333    0.0000 C   0  0  0  0  0  0  0  0  0  0  0  0
   10.6462   -7.6333    0.0000 C   0  0  0  0  0  0  0  0  0  0  0  0
    6.4729   -2.0015    0.0000 C   0  0  0  0  0  0  0  0  0  0  0  0
    7.6333   -1.3308    0.0000 O   0  0  0  0  0  0  0  0  0  0  0  0
    5.3231   -1.3308    0.0000 C   0  0  0  0  0  0  0  0  0  0  0  0
    5.3231    0.0000    0.0000 C   0  0  0  0  0  0  0  0  0  0  0  0
    4.1733   -8.6554    0.0000 C   0  0  0  0  0  0  0  0  0  0  0  0
    5.3231   -9.3154    0.0000 O   0  0  0  0  0  0  0  0  0  0  0  0
    3.0129   -9.3154    0.0000 C   0  0  0  0  0  0  0  0  0  0  0  0
    3.0129  -10.6462    0.0000 C   0  0  0  0  0  0  0  0  0  0  0  0
    5.3231   -6.6539    0.0000 C   0  0  0  0  0  0  0  0  0  0  0  0
    5.3231   -5.3231    0.0000 C   0  0  0  0  0  0  0  0  0  0  0  0
    5.3231   -3.9923    0.0000 C   0  0  0  0  0  0  0  0  0  0  0  0
    4.1733   -7.3246    0.0000 O   0  0  0  0  0  0  0  0  0  0  0  0
    6.4729   -3.3323    0.0000 O   0  0  0  0  0  0  0  0  0  0  0  0
    3.9923   -5.3231    0.0000 C   0  0  0  0  0  0  0  0  0  0  0  0
    3.3323   -4.1840    0.0000 O   0  0  0  0  0  0  0  0  0  0  0  0
    6.6539   -5.3231    0.0000 C   0  0  0  0  0  0  0  0  0  0  0  0
    7.3246   -6.4729    0.0000 O   0  0  0  0  0  0  0  0  0  0  0  0
    2.0015   -4.1840    0.0000 C   0  0  0  0  0  0  0  0  0  0  0  0
    1.3308   -5.3231    0.0000 O   0  0  0  0  0  0  0  0  0  0  0  0
    1.3308   -3.0342    0.0000 C   0  0  0  0  0  0  0  0  0  0  0  0
    0.0000   -3.0342    0.0000 C   0  0  0  0  0  0  0  0  0  0  0  0
  1  2  2  0  0  0  0
  1  3  1  0  0  0  0
  1 21  1  0  0  0  0
  3  4  2  0  0  0  0
  5  6  2  0  0  0  0
  5  7  1  0  0  0  0
  5 17  1  0  0  0  0
  7  8  2  0  0  0  0
  9 10  2  0  0  0  0
  9 11  1  0  0  0  0
  9 16  1  0  0  0  0
 11 12  2  0  0  0  0
 13 14  1  0  0  0  0
 13 16  1  0  0  0  0
 14 15  1  0  0  0  0
 14 18  1  0  0  0  0
 14 20  1  0  0  0  0
 15 17  1  0  0  0  0
 18 19  1  0  0  0  0
 19 22  1  0  0  0  0
 20 21  1  0  0  0  0
 22 23  2  0  0  0  0
 22 24  1  0  0  0  0
 24 25  2  0  0  0  0
M  END
> <ID>
9193

> <Formula>
C17H20O8

> <FW>
352.3359

> <DSSTox_CID>
22264

> <DSSTox_RID>
79981

> <DSSTox_GSID>
42264

> <DSSTox_FileID_Sort>
4663

> <TS_ChemName>
Pentaerythritol tetraacrylate

> <TS_ChemName_Synonyms>


> <TS_CASRN>
4986-89-4

> <CASRN_ChemName_Relationship>
primary

> <TS_Description>
single chemical compound

> <ChemNote>


> <STRUCTURE_Shown>
tested chemical

> <STRUCTURE_Formula>
C17H20O8

> <STRUCTURE_MW>
352.3359

> <STRUCTURE_ChemType>
defined organic

> <STRUCTURE_DefinedOrganicForm>
parent

> <STRUCTURE_IUPAC>
3-(acryloyloxy)-2,2-bis[(acryloyloxy)methyl]propyl prop-2-enoate

> <STRUCTURE_SMILES>
O=C(C=C)OCC(COC(=O)C=C)(COC(=O)C=C)COC(=O)C=C

> <STRUCTURE_SMILES_Desalt>
O=C(C=C)OCC(COC(=O)C=C)(COC(=O)C=C)COC(=O)C=C

> <Substance_modify_yyyymmdd>
20080825

$$$$
