499-75-2
ChemmineR-0915142007XD

 11 11  0  0  0  0  0  0  0  0  1 V2000
    3.3246   -1.1780    0.0000 C   0  0  0  0  0  0  0  0  0  0  0  0
    1.9852   -1.1780    0.0000 C   0  0  0  0  0  0  0  0  0  0  0  0
    3.9943   -2.3260    0.0000 C   0  0  0  0  0  0  0  0  0  0  0  0
    1.3334   -2.3260    0.0000 C   0  0  0  0  0  0  0  0  0  0  0  0
    3.3246   -3.4681    0.0000 C   0  0  0  0  0  0  0  0  0  0  0  0
    1.9852   -3.4681    0.0000 C   0  0  0  0  0  0  0  0  0  0  0  0
    5.3098   -2.3260    0.0000 C   0  0  0  0  0  0  0  0  0  0  0  0
    1.3035    0.0000    0.0000 O   0  0  0  0  0  0  0  0  0  0  0  0
    0.0000   -2.3260    0.0000 C   0  0  0  0  0  0  0  0  0  0  0  0
    5.9795   -3.4681    0.0000 C   0  0  0  0  0  0  0  0  0  0  0  0
    5.9795   -1.1780    0.0000 C   0  0  0  0  0  0  0  0  0  0  0  0
  1  2  2  0  0  0  0
  1  3  1  0  0  0  0
  2  4  1  0  0  0  0
  2  8  1  0  0  0  0
  3  5  2  0  0  0  0
  3  7  1  0  0  0  0
  4  9  1  0  0  0  0
  4  6  2  0  0  0  0
  5  6  1  0  0  0  0
  7 10  1  0  0  0  0
  7 11  1  0  0  0  0
M  END
> <ID>
9006

> <Formula>
C10H14O

> <FW>
150.2176

> <DSSTox_CID>
22074

> <DSSTox_RID>
79916

> <DSSTox_GSID>
42074

> <DSSTox_FileID_Sort>
4598

> <TS_ChemName>
Isopropyl-o-cresol

> <TS_ChemName_Synonyms>
Carvacrol

> <TS_CASRN>
499-75-2

> <CASRN_ChemName_Relationship>
primary

> <TS_Description>
single chemical compound

> <ChemNote>


> <STRUCTURE_Shown>
tested chemical

> <STRUCTURE_Formula>
C10H14O

> <STRUCTURE_MW>
150.2176

> <STRUCTURE_ChemType>
defined organic

> <STRUCTURE_DefinedOrganicForm>
parent

> <STRUCTURE_IUPAC>
2-methyl-5-(propan-2-yl)phenol

> <STRUCTURE_SMILES>
Cc1ccc(cc1O)C(C)C

> <STRUCTURE_SMILES_Desalt>
Cc1ccc(cc1O)C(C)C

> <Substance_modify_yyyymmdd>
20080825

$$$$
