4991-65-5
ChemmineR-0915142007XD

 11 12  0  0  0  0  0  0  0  0  1 V2000
    0.0000    0.0000    0.0000 O   0  0  0  0  0  0  0  0  0  0  0  0
    1.1549   -0.6766    0.0000 C   0  0  0  0  0  0  0  0  0  0  0  0
    2.3099    0.0000    0.0000 C   0  0  0  0  0  0  0  0  0  0  0  0
    3.4648   -0.6766    0.0000 C   0  0  0  0  0  0  0  0  0  0  0  0
    3.4648   -2.0092    0.0000 C   0  0  0  0  0  0  0  0  0  0  0  0
    4.7154   -2.4055    0.0000 S   0  0  0  0  0  0  0  0  0  0  0  0
    5.5013   -1.3326    0.0000 C   0  0  0  0  0  0  0  0  0  0  0  0
    6.8339   -1.3326    0.0000 O   0  0  0  0  0  0  0  0  0  0  0  0
    4.7154   -0.2597    0.0000 O   0  0  0  0  0  0  0  0  0  0  0  0
    2.3099   -2.6652    0.0000 C   0  0  0  0  0  0  0  0  0  0  0  0
    1.1549   -2.0092    0.0000 C   0  0  0  0  0  0  0  0  0  0  0  0
  1  2  1  0  0  0  0
  2  3  2  0  0  0  0
  2 11  1  0  0  0  0
  3  4  1  0  0  0  0
  4  5  2  0  0  0  0
  4  9  1  0  0  0  0
  5  6  1  0  0  0  0
  5 10  1  0  0  0  0
  6  7  1  0  0  0  0
  7  8  2  0  0  0  0
  7  9  1  0  0  0  0
 10 11  2  0  0  0  0
M  END
> <ID>
11267

> <Formula>
C7H4O3S

> <FW>
168.1699

> <DSSTox_CID>
25885

> <DSSTox_RID>
81199

> <DSSTox_GSID>
45885

> <DSSTox_FileID_Sort>
5880

> <TS_ChemName>
Thioxolone

> <TS_ChemName_Synonyms>


> <TS_CASRN>
4991-65-5

> <CASRN_ChemName_Relationship>
primary

> <TS_Description>
single chemical compound

> <ChemNote>


> <STRUCTURE_Shown>
tested chemical

> <STRUCTURE_Formula>
C7H4O3S

> <STRUCTURE_MW>
168.1699

> <STRUCTURE_ChemType>
defined organic

> <STRUCTURE_DefinedOrganicForm>
parent

> <STRUCTURE_IUPAC>
6-hydroxy-1,3-benzoxathiol-2-one

> <STRUCTURE_SMILES>
Oc1cc2OC(=O)Sc2cc1

> <STRUCTURE_SMILES_Desalt>
Oc1cc2OC(=O)Sc2cc1

> <Substance_modify_yyyymmdd>
20110922

$$$$
