4995-43-1
ChemmineR-0915142007XD

 27 30  0  0  1  0  0  0  0  0  1 V2000
    6.9238   -3.2603    0.0000 C   0  0  0  0  0  0  0  0  0  0  0  0
    6.9238   -4.5935    0.0000 C   0  0  0  0  0  0  0  0  0  0  0  0
    5.7587   -5.2433    0.0000 C   0  0  0  0  0  0  0  0  0  0  0  0
    4.6159   -4.5935    0.0000 C   0  0  0  0  0  0  0  0  0  0  0  0
    3.4955   -5.2433    0.0000 C   0  0  0  0  0  0  0  0  0  0  0  0
    8.1787   -2.8569    0.0000 C   0  0  0  0  0  0  0  0  0  0  0  0
    3.4955   -6.5765    0.0000 C   0  0  0  0  0  0  0  0  0  0  0  0
    5.7587   -2.5992    0.0000 C   0  0  0  0  0  0  0  0  0  0  0  0
    4.6159   -3.2603    0.0000 C   0  0  0  0  0  0  0  0  0  0  0  0
    8.1787   -4.9968    0.0000 C   0  0  0  0  0  0  0  0  0  0  0  0
    5.7587   -6.5765    0.0000 C   0  0  0  0  0  0  0  0  0  0  0  0
    8.5932   -1.5685    0.0000 O   0  0  0  0  0  0  0  0  0  0  0  0
    2.3192   -4.5935    0.0000 C   0  0  0  0  0  0  0  0  0  0  0  0
    9.9040   -1.2996    0.0000 P   0  0  0  0  0  0  0  0  0  0  0  0
    4.6159   -7.2600    0.0000 C   0  0  0  0  0  0  0  0  0  0  0  0
    8.9293   -3.9213    0.0000 C   0  0  0  0  0  0  0  0  0  0  0  0
    2.3192   -7.2600    0.0000 C   0  0  0  0  0  0  0  0  0  0  0  0
   11.2036   -1.0307    0.0000 O   0  0  0  0  0  0  0  0  0  0  0  0
    1.1764   -6.5765    0.0000 C   0  0  0  0  0  0  0  0  0  0  0  0
    1.1764   -5.2433    0.0000 C   0  0  0  0  0  0  0  0  0  0  0  0
    6.9238   -1.9270    0.0000 C   0  0  0  0  0  0  0  0  0  0  0  0
    0.0000   -7.2712    0.0000 O   0  0  0  0  0  0  0  0  0  0  0  0
    9.6239    0.0000    0.0000 O   0  0  0  0  0  0  0  0  0  0  0  0
    5.7587   -3.9213    0.0000 H   0  0  0  0  0  0  0  0  0  0  0  0
    4.6159   -5.9379    0.0000 H   0  0  0  0  0  0  0  0  0  0  0  0
    6.9238   -5.9379    0.0000 H   0  0  0  0  0  0  0  0  0  0  0  0
   10.1729   -2.5992    0.0000 O   0  0  0  0  0  0  0  0  0  0  0  0
  1  2  1  0  0  0  0
  1  6  1  0  0  0  0
  1  8  1  0  0  0  0
  1 21  1  1  0  0  0
  2  3  1  0  0  0  0
  2 10  1  0  0  0  0
  2 26  1  6  0  0  0
  3 11  1  0  0  0  0
  3  4  1  0  0  0  0
  3 24  1  1  0  0  0
  4  9  1  0  0  0  0
  4  5  1  0  0  0  0
  4 25  1  6  0  0  0
  5  7  1  0  0  0  0
  5 13  2  0  0  0  0
  6 12  1  1  0  0  0
  6 16  1  0  0  0  0
  7 17  2  0  0  0  0
  7 15  1  0  0  0  0
  8  9  1  0  0  0  0
 10 16  1  0  0  0  0
 11 15  1  0  0  0  0
 12 14  1  0  0  0  0
 13 20  1  0  0  0  0
 14 18  2  0  0  0  0
 14 23  1  0  0  0  0
 14 27  1  0  0  0  0
 17 19  1  0  0  0  0
 19 20  2  0  0  0  0
 19 22  1  0  0  0  0
M  END
> <ID>
10730

> <Formula>
C18H25O5P

> <FW>
352.3619

> <DSSTox_CID>
25086

> <DSSTox_RID>
80661

> <DSSTox_GSID>
45086

> <DSSTox_FileID_Sort>
5343

> <TS_ChemName>
Estradiol phosphate

> <TS_ChemName_Synonyms>


> <TS_CASRN>
4995-43-1

> <CASRN_ChemName_Relationship>
primary

> <TS_Description>
single chemical compound

> <ChemNote>
stereochem

> <STRUCTURE_Shown>
tested chemical

> <STRUCTURE_Formula>
C18H25O5P

> <STRUCTURE_MW>
352.3619

> <STRUCTURE_ChemType>
defined organic

> <STRUCTURE_DefinedOrganicForm>
parent

> <STRUCTURE_IUPAC>
(17beta)-3-hydroxyestra-1(10),2,4-trien-17-yl dihydrogen phosphate

> <STRUCTURE_SMILES>
O=P(O)(O)O[C@H]2CC[C@H]3[C@@H]4CCc1cc(O)ccc1[C@H]4CC[C@]23C

> <STRUCTURE_SMILES_Desalt>
O=P(O)(O)O[C@H]2CC[C@H]3[C@@H]4CCc1cc(O)ccc1[C@H]4CC[C@]23C

> <Substance_modify_yyyymmdd>
20100107

$$$$
