50-07-7
ChemmineR-0915142007XD

 27 30  0  0  1  0  0  0  0  0  1 V2000
    5.5521   -5.5934    0.0000 C   0  0  0  0  0  0  0  0  0  0  0  0
    6.8346   -6.0154    0.0000 C   0  0  0  0  0  0  0  0  0  0  0  0
    4.7660   -6.6857    0.0000 N   0  0  0  0  0  0  0  0  0  0  0  0
    3.4918   -4.9398    0.0000 C   0  0  0  0  0  0  0  0  0  0  0  0
    3.4918   -6.2719    0.0000 C   0  0  0  0  0  0  0  0  0  0  0  0
    4.7660   -4.5095    0.0000 C   0  0  0  0  0  0  0  0  0  0  0  0
    7.9185   -6.6691    0.0000 N   0  0  0  0  0  0  0  0  0  0  0  0
    6.8346   -7.3476    0.0000 C   0  0  0  0  0  0  0  0  0  0  0  0
    2.3416   -4.2696    0.0000 C   0  0  0  0  0  0  0  0  0  0  0  0
    2.3416   -6.9422    0.0000 C   0  0  0  0  0  0  0  0  0  0  0  0
    1.1667   -6.2719    0.0000 C   0  0  0  0  0  0  0  0  0  0  0  0
    1.1667   -4.9398    0.0000 C   0  0  0  0  0  0  0  0  0  0  0  0
    5.5604   -7.7613    0.0000 C   0  0  0  0  0  0  0  0  0  0  0  0
    5.1963   -3.2518    0.0000 C   0  0  0  0  0  0  0  0  0  0  0  0
    4.7164   -0.9929    0.0000 C   0  0  0  0  0  0  0  0  0  0  0  0
    2.3416   -8.2743    0.0000 O   0  0  0  0  0  0  0  0  0  0  0  0
    2.3416   -2.9208    0.0000 O   0  0  0  0  0  0  0  0  0  0  0  0
    4.3109   -2.2589    0.0000 O   0  0  0  0  0  0  0  0  0  0  0  0
    6.3050   -4.5095    0.0000 O   0  0  0  0  0  0  0  0  0  0  0  0
    0.0000   -4.3109    0.0000 N   0  0  0  0  0  0  0  0  0  0  0  0
    6.0320   -0.7199    0.0000 O   0  0  0  0  0  0  0  0  0  0  0  0
    3.8145    0.0000    0.0000 N   0  0  0  0  0  0  0  0  0  0  0  0
    0.0000   -6.9256    0.0000 C   0  0  0  0  0  0  0  0  0  0  0  0
    6.3050   -3.2270    0.0000 C   0  0  0  0  0  0  0  0  0  0  0  0
    7.9185   -5.2128    0.0000 H   0  0  0  0  0  0  0  0  0  0  0  0
    7.9185   -8.1419    0.0000 H   0  0  0  0  0  0  0  0  0  0  0  0
    3.9965   -3.4835    0.0000 H   0  0  0  0  0  0  0  0  0  0  0  0
  1  2  1  0  0  0  0
  1  3  1  0  0  0  0
  1  6  1  0  0  0  0
  1 19  1  6  0  0  0
  7  2  1  1  0  0  0
  2  8  1  0  0  0  0
  2 25  1  6  0  0  0
  3  5  1  0  0  0  0
  3 13  1  0  0  0  0
  4  6  1  0  0  0  0
  4  9  1  0  0  0  0
  4  5  2  0  0  0  0
  5 10  1  0  0  0  0
  6 14  1  1  0  0  0
  6 27  1  6  0  0  0
  7  8  1  1  0  0  0
  8 26  1  6  0  0  0
  8 13  1  0  0  0  0
  9 12  1  0  0  0  0
  9 17  2  0  0  0  0
 10 11  1  0  0  0  0
 10 16  2  0  0  0  0
 11 23  1  0  0  0  0
 11 12  2  0  0  0  0
 12 20  1  0  0  0  0
 14 18  1  0  0  0  0
 15 18  1  0  0  0  0
 15 21  2  0  0  0  0
 15 22  1  0  0  0  0
 19 24  1  0  0  0  0
M  END
> <ID>
864

> <Formula>
C15H18N4O5

> <FW>
334.3272

> <DSSTox_CID>
898

> <DSSTox_RID>
75853

> <DSSTox_GSID>
20898

> <DSSTox_FileID_Sort>
537

> <TS_ChemName>
Mitomycin C

> <TS_ChemName_Synonyms>
Mitomycin C (MMC)

> <TS_CASRN>
50-07-7

> <CASRN_ChemName_Relationship>
primary

> <TS_Description>
single chemical compound

> <ChemNote>
stereochem; tautomers

> <STRUCTURE_Shown>
tested chemical

> <STRUCTURE_Formula>
C15H18N4O5

> <STRUCTURE_MW>
334.3272

> <STRUCTURE_ChemType>
defined organic

> <STRUCTURE_DefinedOrganicForm>
parent

> <STRUCTURE_IUPAC>
[(1aS,8S,8aR,8bS)-6-amino-8a-methoxy-5-methyl-4,7-dioxo-1,1a,2,4,7,8,8a,8b-octahydroazireno[2',3':3,4]pyrrolo[1,2-a]indol-8-yl]methyl carbamate

> <STRUCTURE_SMILES>
NC(=O)OC[C@@H]3C=1C(=O)C(N)=C(C)C(=O)C=1N2C[C@@H]4N[C@@H]4[C@@]23OC

> <STRUCTURE_SMILES_Desalt>
NC(=O)OC[C@@H]3C=1C(=O)C(N)=C(C)C(=O)C=1N2C[C@@H]4N[C@@H]4[C@@]23OC

> <Substance_modify_yyyymmdd>
20080429

$$$$
