50-03-3
ChemmineR-0915142007XD

 29 32  0  0  1  0  0  0  0  0  1 V2000
    6.9395   -3.6368    0.0000 C   0  0  0  0  0  0  0  0  0  0  0  0
    8.2246   -3.2513    0.0000 C   0  0  0  0  0  0  0  0  0  0  0  0
    3.4698   -5.6544    0.0000 C   0  0  0  0  0  0  0  0  0  0  0  0
    5.7829   -5.6544    0.0000 C   0  0  0  0  0  0  0  0  0  0  0  0
    6.9395   -5.0119    0.0000 C   0  0  0  0  0  0  0  0  0  0  0  0
    4.6264   -5.0119    0.0000 C   0  0  0  0  0  0  0  0  0  0  0  0
    3.4698   -6.9781    0.0000 C   0  0  0  0  0  0  0  0  0  0  0  0
    5.7829   -2.9943    0.0000 C   0  0  0  0  0  0  0  0  0  0  0  0
    4.6264   -3.6368    0.0000 C   0  0  0  0  0  0  0  0  0  0  0  0
    8.2246   -1.9276    0.0000 C   0  0  0  0  0  0  0  0  0  0  0  0
    2.3646   -7.6206    0.0000 C   0  0  0  0  0  0  0  0  0  0  0  0
    8.9957   -4.3179    0.0000 C   0  0  0  0  0  0  0  0  0  0  0  0
    8.2246   -5.3846    0.0000 C   0  0  0  0  0  0  0  0  0  0  0  0
    5.7829   -6.9781    0.0000 C   0  0  0  0  0  0  0  0  0  0  0  0
    2.3646   -5.0119    0.0000 C   0  0  0  0  0  0  0  0  0  0  0  0
    4.6264   -7.6206    0.0000 C   0  0  0  0  0  0  0  0  0  0  0  0
    1.1437   -6.9781    0.0000 C   0  0  0  0  0  0  0  0  0  0  0  0
   11.7072   -1.3237    0.0000 C   0  0  0  0  0  0  0  0  0  0  0  0
    9.3812   -1.2465    0.0000 C   0  0  0  0  0  0  0  0  0  0  0  0
    7.1066   -1.2465    0.0000 O   0  0  0  0  0  0  0  0  0  0  0  0
   10.5378   -1.9662    0.0000 O   0  0  0  0  0  0  0  0  0  0  0  0
   12.8510   -2.0048    0.0000 O   0  0  0  0  0  0  0  0  0  0  0  0
    0.0000   -7.5692    0.0000 O   0  0  0  0  0  0  0  0  0  0  0  0
    9.5483   -3.3284    0.0000 O   0  0  0  0  0  0  0  0  0  0  0  0
    6.9010   -2.3132    0.0000 C   0  0  0  0  0  0  0  0  0  0  0  0
    1.1437   -5.6544    0.0000 C   0  0  0  0  0  0  0  0  0  0  0  0
    3.4698   -2.9429    0.0000 O   0  0  0  0  0  0  0  0  0  0  0  0
    3.4698   -4.3179    0.0000 C   0  0  0  0  0  0  0  0  0  0  0  0
   11.7072    0.0000    0.0000 C   0  0  0  0  0  0  0  0  0  0  0  0
  1  2  1  0  0  0  0
  1  5  1  0  0  0  0
  1  8  1  0  0  0  0
  1 25  1  1  0  0  0
  2 10  1  1  0  0  0
  2 12  1  0  0  0  0
  2 24  1  6  0  0  0
  3  6  1  0  0  0  0
  3  7  1  0  0  0  0
  3 15  1  0  0  0  0
  3 28  1  1  0  0  0
  4  5  1  0  0  0  0
  4 14  1  0  0  0  0
  4  6  1  0  0  0  0
  5 13  1  0  0  0  0
  6  9  1  0  0  0  0
  7 11  2  0  0  0  0
  7 16  1  0  0  0  0
  8  9  1  0  0  0  0
  9 27  1  1  0  0  0
 10 19  1  0  0  0  0
 10 20  2  0  0  0  0
 11 17  1  0  0  0  0
 12 13  1  0  0  0  0
 14 16  1  0  0  0  0
 15 26  1  0  0  0  0
 17 26  1  0  0  0  0
 17 23  2  0  0  0  0
 18 21  1  0  0  0  0
 18 22  2  0  0  0  0
 18 29  1  0  0  0  0
 19 21  1  0  0  0  0
M  END
> <ID>
13679

> <Formula>
C23H32O6

> <FW>
404.4966

> <DSSTox_CID>
28612

> <DSSTox_RID>
82882

> <DSSTox_GSID>
48686

> <DSSTox_FileID_Sort>
7559

> <TS_ChemName>
Hydrocortisone acetate

> <TS_ChemName_Synonyms>


> <TS_CASRN>
50-03-3

> <CASRN_ChemName_Relationship>
primary

> <TS_Description>
single chemical compound

> <ChemNote>


> <STRUCTURE_Shown>
tested chemical

> <STRUCTURE_Formula>
C23H32O6

> <STRUCTURE_MW>
404.4966

> <STRUCTURE_ChemType>
defined organic

> <STRUCTURE_DefinedOrganicForm>
parent

> <STRUCTURE_IUPAC>
(8xi,9xi,11beta,14xi)-11,17-dihydroxy-3,20-dioxopregn-4-en-21-yl acetate

> <STRUCTURE_SMILES>
CC(=O)OCC(=O)[C@@]4(O)CCC3C2CCC1=CC(=O)CC[C@]1(C)C2[C@@H](O)C[C@@]34C

> <STRUCTURE_SMILES_Desalt>
CC(=O)OCC(=O)[C@@]4(O)CCC3C2CCC1=CC(=O)CC[C@]1(C)C2[C@@H](O)C[C@@]34C

> <Substance_modify_yyyymmdd>
20111204

$$$$
