50-02-2
ChemmineR-0915142007XD

 30 33  0  0  1  0  0  0  0  0  1 V2000
    6.9346   -2.6788    0.0000 C   0  0  0  0  0  0  0  0  0  0  0  0
    4.6447   -4.0074    0.0000 C   0  0  0  0  0  0  0  0  0  0  0  0
    3.4889   -4.6771    0.0000 C   0  0  0  0  0  0  0  0  0  0  0  0
    6.9346   -4.0074    0.0000 C   0  0  0  0  0  0  0  0  0  0  0  0
    5.7896   -4.6771    0.0000 C   0  0  0  0  0  0  0  0  0  0  0  0
    8.2200   -2.2575    0.0000 C   0  0  0  0  0  0  0  0  0  0  0  0
    3.4889   -6.0056    0.0000 C   0  0  0  0  0  0  0  0  0  0  0  0
    4.6447   -2.6788    0.0000 C   0  0  0  0  0  0  0  0  0  0  0  0
    5.7896   -2.0199    0.0000 C   0  0  0  0  0  0  0  0  0  0  0  0
    9.0085   -3.3485    0.0000 C   0  0  0  0  0  0  0  0  0  0  0  0
    2.3439   -4.0074    0.0000 C   0  0  0  0  0  0  0  0  0  0  0  0
    8.2200   -4.4070    0.0000 C   0  0  0  0  0  0  0  0  0  0  0  0
    2.3439   -6.6861    0.0000 C   0  0  0  0  0  0  0  0  0  0  0  0
    8.5764   -0.9613    0.0000 C   0  0  0  0  0  0  0  0  0  0  0  0
    5.7896   -6.0056    0.0000 C   0  0  0  0  0  0  0  0  0  0  0  0
    1.1882   -4.6771    0.0000 C   0  0  0  0  0  0  0  0  0  0  0  0
    1.1882   -6.0056    0.0000 C   0  0  0  0  0  0  0  0  0  0  0  0
    4.6447   -6.6861    0.0000 C   0  0  0  0  0  0  0  0  0  0  0  0
    4.6338   -5.1307    0.0000 F   0  0  0  0  0  0  0  0  0  0  0  0
    7.6259    0.0000    0.0000 O   0  0  0  0  0  0  0  0  0  0  0  0
    0.0000   -6.6969    0.0000 O   0  0  0  0  0  0  0  0  0  0  0  0
    9.5485   -2.2575    0.0000 O   0  0  0  0  0  0  0  0  0  0  0  0
    6.9346   -1.3070    0.0000 C   0  0  0  0  0  0  0  0  0  0  0  0
    3.4565   -1.9875    0.0000 O   0  0  0  0  0  0  0  0  0  0  0  0
    3.4889   -3.3485    0.0000 C   0  0  0  0  0  0  0  0  0  0  0  0
   10.3370   -3.3269    0.0000 C   0  0  0  0  0  0  0  0  0  0  0  0
    9.8510   -0.6373    0.0000 C   0  0  0  0  0  0  0  0  0  0  0  0
   10.8015   -1.5878    0.0000 O   0  0  0  0  0  0  0  0  0  0  0  0
    5.7896   -3.3485    0.0000 H   0  0  0  0  0  0  0  0  0  0  0  0
    6.9346   -5.3359    0.0000 H   0  0  0  0  0  0  0  0  0  0  0  0
  1  4  1  0  0  0  0
  1  6  1  0  0  0  0
  1  9  1  0  0  0  0
  1 23  1  1  0  0  0
  2  8  1  0  0  0  0
  2  3  1  0  0  0  0
  2 19  1  6  0  0  0
  2  5  1  0  0  0  0
  3  7  1  0  0  0  0
  3 11  1  0  0  0  0
  3 25  1  1  0  0  0
  4  5  1  0  0  0  0
  4 12  1  0  0  0  0
  4 30  1  6  0  0  0
  5 15  1  0  0  0  0
  5 29  1  1  0  0  0
  6 10  1  0  0  0  0
  6 14  1  1  0  0  0
  6 22  1  6  0  0  0
  7 13  2  0  0  0  0
  7 18  1  0  0  0  0
  8  9  1  0  0  0  0
  8 24  1  1  0  0  0
 10 26  1  6  0  0  0
 10 12  1  0  0  0  0
 11 16  2  0  0  0  0
 13 17  1  0  0  0  0
 14 20  2  0  0  0  0
 14 27  1  0  0  0  0
 15 18  1  0  0  0  0
 16 17  1  0  0  0  0
 17 21  2  0  0  0  0
 27 28  1  0  0  0  0
M  END
> <ID>
373

> <Formula>
C22H29FO5

> <FW>
392.4611

> <DSSTox_CID>
384

> <DSSTox_RID>
75557

> <DSSTox_GSID>
20384

> <DSSTox_FileID_Sort>
241

> <TS_ChemName>
Dexamethasone

> <TS_ChemName_Synonyms>
DEX; Dexamethazone

> <TS_CASRN>
50-02-2

> <CASRN_ChemName_Relationship>
primary

> <TS_Description>
single chemical compound

> <ChemNote>
stereochem; tautomers

> <STRUCTURE_Shown>
tested chemical

> <STRUCTURE_Formula>
C22H29FO5

> <STRUCTURE_MW>
392.4611

> <STRUCTURE_ChemType>
defined organic

> <STRUCTURE_DefinedOrganicForm>
parent

> <STRUCTURE_IUPAC>
(11beta,16alpha)-9-fluoro-11,17,21-trihydroxy-16-methylpregna-1,4-diene-3,20-dione

> <STRUCTURE_SMILES>
OCC(=O)[C@@]4(O)[C@H](C)C[C@@H]3[C@]4(C)C[C@H](O)[C@@]2(F)[C@H]3CCC1=CC(=O)C=C[C@@]12C

> <STRUCTURE_SMILES_Desalt>
OCC(=O)[C@@]4(O)[C@H](C)C[C@@H]3[C@]4(C)C[C@H](O)[C@@]2(F)[C@H]3CCC1=CC(=O)C=C[C@@]12C

> <Substance_modify_yyyymmdd>
20080429

$$$$
