50-11-3
ChemmineR-0915142007XD

 14 14  0  0  0  0  0  0  0  0  1 V2000
    2.0074   -2.0019    0.0000 C   0  0  0  0  0  0  0  0  0  0  0  0
    0.6764   -2.0019    0.0000 C   0  0  0  0  0  0  0  0  0  0  0  0
    1.3310   -3.1419    0.0000 C   0  0  0  0  0  0  0  0  0  0  0  0
    2.0074   -0.6709    0.0000 C   0  0  0  0  0  0  0  0  0  0  0  0
    0.8509    0.0000    0.0000 O   0  0  0  0  0  0  0  0  0  0  0  0
    3.1419    0.0000    0.0000 N   0  0  0  0  0  0  0  0  0  0  0  0
    4.2984   -0.6709    0.0000 C   0  0  0  0  0  0  0  0  0  0  0  0
    5.4548    0.0000    0.0000 O   0  0  0  0  0  0  0  0  0  0  0  0
    4.2984   -2.0019    0.0000 N   0  0  0  0  0  0  0  0  0  0  0  0
    3.1419   -2.6619    0.0000 C   0  0  0  0  0  0  0  0  0  0  0  0
    3.1419   -3.9929    0.0000 O   0  0  0  0  0  0  0  0  0  0  0  0
    0.0000   -3.1419    0.0000 C   0  0  0  0  0  0  0  0  0  0  0  0
    0.0000   -0.8509    0.0000 C   0  0  0  0  0  0  0  0  0  0  0  0
    5.4548   -2.6619    0.0000 C   0  0  0  0  0  0  0  0  0  0  0  0
  1  2  1  0  0  0  0
  1  3  1  0  0  0  0
  1  4  1  0  0  0  0
  1 10  1  0  0  0  0
  2 13  1  0  0  0  0
  3 12  1  0  0  0  0
  4  5  2  0  0  0  0
  4  6  1  0  0  0  0
  6  7  1  0  0  0  0
  7  8  2  0  0  0  0
  7  9  1  0  0  0  0
  9 10  1  0  0  0  0
  9 14  1  0  0  0  0
 10 11  2  0  0  0  0
M  END
> <ID>
2946

> <Formula>
C9H14N2O3

> <FW>
198.2191

> <DSSTox_CID>
3280

> <DSSTox_RID>
76955

> <DSSTox_GSID>
23280

> <DSSTox_FileID_Sort>
1639

> <TS_ChemName>
Metharbital

> <TS_ChemName_Synonyms>


> <TS_CASRN>
50-11-3

> <CASRN_ChemName_Relationship>
primary

> <TS_Description>
single chemical compound

> <ChemNote>


> <STRUCTURE_Shown>
tested chemical

> <STRUCTURE_Formula>
C9H14N2O3

> <STRUCTURE_MW>
198.2191

> <STRUCTURE_ChemType>
defined organic

> <STRUCTURE_DefinedOrganicForm>
parent

> <STRUCTURE_IUPAC>
5,5-diethyl-1-methylpyrimidine-2,4,6(1H,3H,5H)-trione

> <STRUCTURE_SMILES>
O=C1NC(=O)N(C)C(=O)C1(CC)CC

> <STRUCTURE_SMILES_Desalt>
O=C1NC(=O)N(C)C(=O)C1(CC)CC

> <Substance_modify_yyyymmdd>
20080429

$$$$
