50-10-2
ChemmineR-0915142007XD

 26 26  0  0  0  0  0  0  0  0  2 V2000
    7.2122   -1.6518    0.0000 C    0  0  0  0  0  0  0  0  0  0  0  0
    8.5383   -1.6518    0.0000 C    0  0  0  0  0  0  0  0  0  0  0  0
    9.2130   -2.7802    0.0000 N    0  3  0  0  0  0  0  0  0  0  0  0
    9.8644   -3.9434    0.0000 C    0  0  0  0  0  0  0  0  0  0  0  0
   10.3646   -2.1288    0.0000 C    0  0  0  0  0  0  0  0  0  0  0  0
   10.3646   -0.8026    0.0000 C    0  0  0  0  0  0  0  0  0  0  0  0
    8.0614   -3.4549    0.0000 C    0  0  0  0  0  0  0  0  0  0  0  0
    6.9097   -2.7802    0.0000 C    0  0  0  0  0  0  0  0  0  0  0  0
    5.7465   -3.4549    0.0000 O    0  0  0  0  0  0  0  0  0  0  0  0
    4.5949   -2.7802    0.0000 C    0  0  0  0  0  0  0  0  0  0  0  0
    4.5949   -1.4541    0.0000 O    0  0  0  0  0  0  0  0  0  0  0  0
    3.4432   -3.4549    0.0000 C    0  0  0  0  0  0  0  0  0  0  0  0
    4.1179   -4.6181    0.0000 O    0  0  0  0  0  0  0  0  0  0  0  0
    2.2916   -4.1179    0.0000 C    0  0  0  0  0  0  0  0  0  0  0  0
    2.2916   -5.4440    0.0000 C    0  0  0  0  0  0  0  0  0  0  0  0
    1.1516   -6.1187    0.0000 C    0  0  0  0  0  0  0  0  0  0  0  0
    0.0000   -5.4440    0.0000 C    0  0  0  0  0  0  0  0  0  0  0  0
    0.0000   -4.1179    0.0000 C    0  0  0  0  0  0  0  0  0  0  0  0
    1.1516   -3.4549    0.0000 C    0  0  0  0  0  0  0  0  0  0  0  0
    2.7918   -2.3032    0.0000 C    0  0  0  0  0  0  0  0  0  0  0  0
    1.4541   -2.3032    0.0000 C    0  0  0  0  0  0  0  0  0  0  0  0
    0.7794   -1.1516    0.0000 C    0  0  0  0  0  0  0  0  0  0  0  0
    1.4541    0.0000    0.0000 C    0  0  0  0  0  0  0  0  0  0  0  0
    2.7918    0.0000    0.0000 C    0  0  0  0  0  0  0  0  0  0  0  0
    3.4432   -1.1516    0.0000 C    0  0  0  0  0  0  0  0  0  0  0  0
   11.6326   -3.0128    0.0000 Br   0  5  0  0  0  0  0  0  0  0  0  0
  1  2  1  0  0  0  0
  2  3  1  0  0  0  0
  3  4  1  0  0  0  0
  3  5  1  0  0  0  0
  3  7  1  0  0  0  0
  5  6  1  0  0  0  0
  7  8  1  0  0  0  0
  8  9  1  0  0  0  0
  9 10  1  0  0  0  0
 10 11  2  0  0  0  0
 10 12  1  0  0  0  0
 12 13  1  0  0  0  0
 12 14  1  0  0  0  0
 12 20  1  0  0  0  0
 14 15  1  0  0  0  0
 14 19  1  0  0  0  0
 15 16  1  0  0  0  0
 16 17  1  0  0  0  0
 17 18  1  0  0  0  0
 18 19  1  0  0  0  0
 20 21  2  0  0  0  0
 20 25  1  0  0  0  0
 21 22  1  0  0  0  0
 22 23  2  0  0  0  0
 23 24  1  0  0  0  0
 24 25  2  0  0  0  0
M  END
> <ID>
11082

> <Formula>
C21H34BrNO3

> <FW>
428.4036 (348.4990+79.9045)

> <DSSTox_CID>
25632

> <DSSTox_RID>
81014

> <DSSTox_GSID>
45632

> <DSSTox_FileID_Sort>
5695

> <TS_ChemName>
Oxyphenonium bromide

> <TS_ChemName_Synonyms>


> <TS_CASRN>
50-10-2

> <CASRN_ChemName_Relationship>
primary

> <TS_Description>
single chemical compound

> <ChemNote>
parent [14214-84-7]

> <STRUCTURE_Shown>
tested chemical

> <STRUCTURE_Formula>
C21H34BrNO3

> <STRUCTURE_MW>
428.4036

> <STRUCTURE_ChemType>
defined organic

> <STRUCTURE_DefinedOrganicForm>
salt

> <STRUCTURE_IUPAC>
2-{[cyclohexyl(hydroxy)phenylacetyl]oxy}-N,N-diethyl-N-methylethanaminium bromide

> <STRUCTURE_SMILES>
[Br-].OC(C(=O)OCC[N+](C)(CC)CC)(c1ccccc1)C2CCCCC2

> <STRUCTURE_SMILES_Desalt>
OC(C(=O)OCC[N+](C)(CC)CC)(c1ccccc1)C2CCCCC2

> <Substance_modify_yyyymmdd>
20100107

$$$$
