50-29-3
ChemmineR-0915142007XD

 19 20  0  0  0  0  0  0  0  0  1 V2000
    3.2800   -1.3268    0.0000 Cl   0  0  0  0  0  0  0  0  0  0  0  0
    4.6068   -1.3268    0.0000 C    0  0  0  0  0  0  0  0  0  0  0  0
    4.6068   -2.6535    0.0000 C    0  0  0  0  0  0  0  0  0  0  0  0
    5.7585   -3.3169    0.0000 C    0  0  0  0  0  0  0  0  0  0  0  0
    6.9102   -2.6535    0.0000 C    0  0  0  0  0  0  0  0  0  0  0  0
    8.0619   -3.3169    0.0000 C    0  0  0  0  0  0  0  0  0  0  0  0
    8.0619   -4.6529    0.0000 C    0  0  0  0  0  0  0  0  0  0  0  0
    6.9102   -5.3162    0.0000 C    0  0  0  0  0  0  0  0  0  0  0  0
    5.7585   -4.6529    0.0000 C    0  0  0  0  0  0  0  0  0  0  0  0
    9.2136   -5.3162    0.0000 Cl   0  0  0  0  0  0  0  0  0  0  0  0
    3.4551   -3.3169    0.0000 C    0  0  0  0  0  0  0  0  0  0  0  0
    3.4551   -4.6529    0.0000 C    0  0  0  0  0  0  0  0  0  0  0  0
    2.3034   -5.3162    0.0000 C    0  0  0  0  0  0  0  0  0  0  0  0
    1.1517   -4.6529    0.0000 C    0  0  0  0  0  0  0  0  0  0  0  0
    1.1517   -3.3169    0.0000 C    0  0  0  0  0  0  0  0  0  0  0  0
    2.3034   -2.6535    0.0000 C    0  0  0  0  0  0  0  0  0  0  0  0
    0.0000   -5.3162    0.0000 Cl   0  0  0  0  0  0  0  0  0  0  0  0
    4.6068    0.0000    0.0000 Cl   0  0  0  0  0  0  0  0  0  0  0  0
    5.9336   -1.3268    0.0000 Cl   0  0  0  0  0  0  0  0  0  0  0  0
  1  2  1  0  0  0  0
  2  3  1  0  0  0  0
  2 18  1  0  0  0  0
  2 19  1  0  0  0  0
  3  4  1  0  0  0  0
  3 11  1  0  0  0  0
  4  5  2  0  0  0  0
  4  9  1  0  0  0  0
  5  6  1  0  0  0  0
  6  7  2  0  0  0  0
  7  8  1  0  0  0  0
  7 10  1  0  0  0  0
  8  9  2  0  0  0  0
 11 12  2  0  0  0  0
 11 16  1  0  0  0  0
 12 13  1  0  0  0  0
 13 14  2  0  0  0  0
 14 15  1  0  0  0  0
 14 17  1  0  0  0  0
 15 16  2  0  0  0  0
M  END
> <ID>
365

> <Formula>
C14H9Cl5

> <FW>
354.4863

> <DSSTox_CID>
375

> <DSSTox_RID>
75551

> <DSSTox_GSID>
20375

> <DSSTox_FileID_Sort>
235

> <TS_ChemName>
p,p'-DDT

> <TS_ChemName_Synonyms>
p,p'-DDT (Dichlorodiphenyltrichloroethane) (DDT)

> <TS_CASRN>
50-29-3

> <CASRN_ChemName_Relationship>
primary

> <TS_Description>
single chemical compound

> <ChemNote>


> <STRUCTURE_Shown>
tested chemical

> <STRUCTURE_Formula>
C14H9Cl5

> <STRUCTURE_MW>
354.4863

> <STRUCTURE_ChemType>
defined organic

> <STRUCTURE_DefinedOrganicForm>
parent

> <STRUCTURE_IUPAC>
1,1'-(2,2,2-trichloroethane-1,1-diyl)bis(4-chlorobenzene)

> <STRUCTURE_SMILES>
Clc1ccc(cc1)C(c2ccc(Cl)cc2)C(Cl)(Cl)Cl

> <STRUCTURE_SMILES_Desalt>
Clc1ccc(cc1)C(c2ccc(Cl)cc2)C(Cl)(Cl)Cl

> <Substance_modify_yyyymmdd>
20080429

$$$$
