50-24-8
ChemmineR-0915142007XD

 29 32  0  0  1  0  0  0  0  0  1 V2000
    6.9411   -2.4647    0.0000 C   0  0  0  0  0  0  0  0  0  0  0  0
    3.4969   -4.4448    0.0000 C   0  0  0  0  0  0  0  0  0  0  0  0
    8.2261   -2.0644    0.0000 C   0  0  0  0  0  0  0  0  0  0  0  0
    5.8035   -4.4553    0.0000 C   0  0  0  0  0  0  0  0  0  0  0  0
    6.9411   -3.8023    0.0000 C   0  0  0  0  0  0  0  0  0  0  0  0
    4.6555   -3.7813    0.0000 C   0  0  0  0  0  0  0  0  0  0  0  0
    3.4969   -5.7719    0.0000 C   0  0  0  0  0  0  0  0  0  0  0  0
    5.8035   -1.8116    0.0000 C   0  0  0  0  0  0  0  0  0  0  0  0
    4.6555   -2.4647    0.0000 C   0  0  0  0  0  0  0  0  0  0  0  0
    2.3277   -3.7813    0.0000 C   0  0  0  0  0  0  0  0  0  0  0  0
    2.3277   -6.4355    0.0000 C   0  0  0  0  0  0  0  0  0  0  0  0
    8.2261   -0.7162    0.0000 C   0  0  0  0  0  0  0  0  0  0  0  0
    8.9739   -3.1282    0.0000 C   0  0  0  0  0  0  0  0  0  0  0  0
    8.2261   -4.2026    0.0000 C   0  0  0  0  0  0  0  0  0  0  0  0
    5.8035   -5.7509    0.0000 C   0  0  0  0  0  0  0  0  0  0  0  0
    1.1902   -4.4553    0.0000 C   0  0  0  0  0  0  0  0  0  0  0  0
    1.1902   -5.7509    0.0000 C   0  0  0  0  0  0  0  0  0  0  0  0
    4.6555   -6.4355    0.0000 C   0  0  0  0  0  0  0  0  0  0  0  0
    7.0991    0.0000    0.0000 O   0  0  0  0  0  0  0  0  0  0  0  0
    0.0000   -6.4144    0.0000 O   0  0  0  0  0  0  0  0  0  0  0  0
    9.4795   -1.6852    0.0000 O   0  0  0  0  0  0  0  0  0  0  0  0
    6.9411   -1.1375    0.0000 C   0  0  0  0  0  0  0  0  0  0  0  0
    3.4653   -1.8011    0.0000 O   0  0  0  0  0  0  0  0  0  0  0  0
    3.4969   -3.1072    0.0000 C   0  0  0  0  0  0  0  0  0  0  0  0
    9.3952   -0.0843    0.0000 C   0  0  0  0  0  0  0  0  0  0  0  0
   10.5327   -0.8321    0.0000 O   0  0  0  0  0  0  0  0  0  0  0  0
    5.8035   -3.1282    0.0000 H   0  0  0  0  0  0  0  0  0  0  0  0
    4.6555   -5.1189    0.0000 H   0  0  0  0  0  0  0  0  0  0  0  0
    6.9411   -5.1294    0.0000 H   0  0  0  0  0  0  0  0  0  0  0  0
  1  3  1  0  0  0  0
  1  5  1  0  0  0  0
  1  8  1  0  0  0  0
  1 22  1  1  0  0  0
  2  6  1  0  0  0  0
  2  7  1  0  0  0  0
  2 10  1  0  0  0  0
  2 24  1  1  0  0  0
  3 12  1  1  0  0  0
  3 13  1  0  0  0  0
  3 21  1  6  0  0  0
  4  5  1  0  0  0  0
  4 15  1  0  0  0  0
  4  6  1  0  0  0  0
  4 27  1  1  0  0  0
  5 14  1  0  0  0  0
  5 29  1  6  0  0  0
  6  9  1  0  0  0  0
  6 28  1  6  0  0  0
  7 11  2  0  0  0  0
  7 18  1  0  0  0  0
  8  9  1  0  0  0  0
  9 23  1  1  0  0  0
 10 16  2  0  0  0  0
 11 17  1  0  0  0  0
 12 19  2  0  0  0  0
 12 25  1  0  0  0  0
 13 14  1  0  0  0  0
 15 18  1  0  0  0  0
 16 17  1  0  0  0  0
 17 20  2  0  0  0  0
 25 26  1  0  0  0  0
M  END
> <ID>
1138

> <Formula>
C21H28O5

> <FW>
360.444

> <DSSTox_CID>
1184

> <DSSTox_RID>
75996

> <DSSTox_GSID>
21184

> <DSSTox_FileID_Sort>
680

> <TS_ChemName>
Prednisolone

> <TS_ChemName_Synonyms>
Prednisolone (P)

> <TS_CASRN>
50-24-8

> <CASRN_ChemName_Relationship>
primary

> <TS_Description>
single chemical compound

> <ChemNote>
stereochem; tautomers

> <STRUCTURE_Shown>
tested chemical

> <STRUCTURE_Formula>
C21H28O5

> <STRUCTURE_MW>
360.444

> <STRUCTURE_ChemType>
defined organic

> <STRUCTURE_DefinedOrganicForm>
parent

> <STRUCTURE_IUPAC>
(11beta)-11,17,21-trihydroxypregna-1,4-diene-3,20-dione

> <STRUCTURE_SMILES>
OCC(=O)[C@@]4(O)CC[C@@H]3[C@]4(C)C[C@H](O)[C@H]2[C@H]3CCC1=CC(=O)C=C[C@@]12C

> <STRUCTURE_SMILES_Desalt>
OCC(=O)[C@@]4(O)CC[C@@H]3[C@]4(C)C[C@H](O)[C@H]2[C@H]3CCC1=CC(=O)C=C[C@@]12C

> <Substance_modify_yyyymmdd>
20080429

$$$$
