50-21-5
ChemmineR-0915142007XD

  6  5  0  0  0  0  0  0  0  0  1 V2000
    1.9943   -1.1509    0.0000 C   0  0  0  0  0  0  0  0  0  0  0  0
    3.3250   -1.1509    0.0000 O   0  0  0  0  0  0  0  0  0  0  0  0
    1.3307    0.0000    0.0000 O   0  0  0  0  0  0  0  0  0  0  0  0
    1.3307   -2.3053    0.0000 C   0  0  0  0  0  0  0  0  0  0  0  0
    1.9943   -3.4563    0.0000 C   0  0  0  0  0  0  0  0  0  0  0  0
    0.0000   -2.3053    0.0000 O   0  0  0  0  0  0  0  0  0  0  0  0
  1  2  1  0  0  0  0
  1  3  2  0  0  0  0
  1  4  1  0  0  0  0
  4  5  1  0  0  0  0
  4  6  1  0  0  0  0
M  END
> <ID>
2868

> <Formula>
C3H6O3

> <FW>
90.0779

> <DSSTox_CID>
3192

> <DSSTox_RID>
76915

> <DSSTox_GSID>
23192

> <DSSTox_FileID_Sort>
1599

> <TS_ChemName>
Lactic acid

> <TS_ChemName_Synonyms>
Lactic acid (Propanoic acid, 2-hydroxy-) (DL-Lactic Acid)

> <TS_CASRN>
50-21-5

> <CASRN_ChemName_Relationship>
primary

> <TS_Description>
single chemical compound

> <ChemNote>


> <STRUCTURE_Shown>
tested chemical

> <STRUCTURE_Formula>
C3H6O3

> <STRUCTURE_MW>
90.0779

> <STRUCTURE_ChemType>
defined organic

> <STRUCTURE_DefinedOrganicForm>
parent

> <STRUCTURE_IUPAC>
2-hydroxypropanoic acid

> <STRUCTURE_SMILES>
O=C(O)C(C)O

> <STRUCTURE_SMILES_Desalt>
O=C(O)C(C)O

> <Substance_modify_yyyymmdd>
20080429

$$$$
