50-35-1
ChemmineR-0915142007XD

 19 21  0  0  0  0  0  0  0  0  1 V2000
    5.3177   -2.3398    0.0000 N   0  0  0  0  0  0  0  0  0  0  0  0
    6.1009   -1.2666    0.0000 C   0  0  0  0  0  0  0  0  0  0  0  0
    7.3675   -1.6727    0.0000 C   0  0  0  0  0  0  0  0  0  0  0  0
    8.5180   -1.0055    0.0000 C   0  0  0  0  0  0  0  0  0  0  0  0
    9.6686   -1.6727    0.0000 C   0  0  0  0  0  0  0  0  0  0  0  0
    9.6686   -3.0069    0.0000 C   0  0  0  0  0  0  0  0  0  0  0  0
    8.5180   -3.6644    0.0000 C   0  0  0  0  0  0  0  0  0  0  0  0
    7.3675   -3.0069    0.0000 C   0  0  0  0  0  0  0  0  0  0  0  0
    6.1009   -3.4130    0.0000 C   0  0  0  0  0  0  0  0  0  0  0  0
    5.6851   -4.6796    0.0000 O   0  0  0  0  0  0  0  0  0  0  0  0
    5.6851    0.0000    0.0000 O   0  0  0  0  0  0  0  0  0  0  0  0
    3.9931   -2.3398    0.0000 C   0  0  0  0  0  0  0  0  0  0  0  0
    3.3260   -3.4904    0.0000 C   0  0  0  0  0  0  0  0  0  0  0  0
    1.9917   -3.4904    0.0000 N   0  0  0  0  0  0  0  0  0  0  0  0
    1.3343   -2.3398    0.0000 C   0  0  0  0  0  0  0  0  0  0  0  0
    1.9917   -1.1892    0.0000 C   0  0  0  0  0  0  0  0  0  0  0  0
    3.3260   -1.1892    0.0000 C   0  0  0  0  0  0  0  0  0  0  0  0
    0.0000   -2.3398    0.0000 O   0  0  0  0  0  0  0  0  0  0  0  0
    3.9931   -4.6409    0.0000 O   0  0  0  0  0  0  0  0  0  0  0  0
  1  2  1  0  0  0  0
  1  9  1  0  0  0  0
  1 12  1  0  0  0  0
  2  3  1  0  0  0  0
  2 11  2  0  0  0  0
  3  4  2  0  0  0  0
  3  8  1  0  0  0  0
  4  5  1  0  0  0  0
  5  6  2  0  0  0  0
  6  7  1  0  0  0  0
  7  8  2  0  0  0  0
  8  9  1  0  0  0  0
  9 10  2  0  0  0  0
 12 13  1  0  0  0  0
 12 17  1  0  0  0  0
 13 14  1  0  0  0  0
 13 19  2  0  0  0  0
 14 15  1  0  0  0  0
 15 16  1  0  0  0  0
 15 18  2  0  0  0  0
 16 17  1  0  0  0  0
M  END
> <ID>
2291

> <Formula>
C13H10N2O4

> <FW>
258.2295

> <DSSTox_CID>
2524

> <DSSTox_RID>
76611

> <DSSTox_GSID>
22524

> <DSSTox_FileID_Sort>
1295

> <TS_ChemName>
Thalidomide

> <TS_ChemName_Synonyms>


> <TS_CASRN>
50-35-1

> <CASRN_ChemName_Relationship>
primary

> <TS_Description>
single chemical compound

> <ChemNote>


> <STRUCTURE_Shown>
tested chemical

> <STRUCTURE_Formula>
C13H10N2O4

> <STRUCTURE_MW>
258.2295

> <STRUCTURE_ChemType>
defined organic

> <STRUCTURE_DefinedOrganicForm>
parent

> <STRUCTURE_IUPAC>
2-(2,6-dioxopiperidin-3-yl)-1H-isoindole-1,3(2H)-dione

> <STRUCTURE_SMILES>
O=C1NC(=O)CCC1N3C(=O)c2ccccc2C3=O

> <STRUCTURE_SMILES_Desalt>
O=C1NC(=O)CCC1N3C(=O)c2ccccc2C3=O

> <Substance_modify_yyyymmdd>
20080429

$$$$
