50-33-9
ChemmineR-0915142007XD

 23 25  0  0  0  0  0  0  0  0  1 V2000
    3.4209   -7.1079    0.0000 O   0  0  0  0  0  0  0  0  0  0  0  0
    4.2097   -6.0342    0.0000 C   0  0  0  0  0  0  0  0  0  0  0  0
    3.7915   -4.7703    0.0000 N   0  0  0  0  0  0  0  0  0  0  0  0
    2.5277   -4.3522    0.0000 C   0  0  0  0  0  0  0  0  0  0  0  0
    1.5394   -5.2454    0.0000 C   0  0  0  0  0  0  0  0  0  0  0  0
    0.2756   -4.8368    0.0000 C   0  0  0  0  0  0  0  0  0  0  0  0
    0.0000   -3.5350    0.0000 C   0  0  0  0  0  0  0  0  0  0  0  0
    0.9883   -2.6417    0.0000 C   0  0  0  0  0  0  0  0  0  0  0  0
    2.2521   -3.0598    0.0000 C   0  0  0  0  0  0  0  0  0  0  0  0
    4.8748   -3.9816    0.0000 N   0  0  0  0  0  0  0  0  0  0  0  0
    4.8748   -2.6512    0.0000 C   0  0  0  0  0  0  0  0  0  0  0  0
    3.7155   -1.9955    0.0000 C   0  0  0  0  0  0  0  0  0  0  0  0
    3.7155   -0.6652    0.0000 C   0  0  0  0  0  0  0  0  0  0  0  0
    4.8748    0.0000    0.0000 C   0  0  0  0  0  0  0  0  0  0  0  0
    6.0247   -0.6652    0.0000 C   0  0  0  0  0  0  0  0  0  0  0  0
    6.0247   -1.9955    0.0000 C   0  0  0  0  0  0  0  0  0  0  0  0
    5.9486   -4.7703    0.0000 C   0  0  0  0  0  0  0  0  0  0  0  0
    7.2125   -4.3522    0.0000 O   0  0  0  0  0  0  0  0  0  0  0  0
    5.5305   -6.0342    0.0000 C   0  0  0  0  0  0  0  0  0  0  0  0
    6.3192   -7.1079    0.0000 C   0  0  0  0  0  0  0  0  0  0  0  0
    7.6401   -6.9654    0.0000 C   0  0  0  0  0  0  0  0  0  0  0  0
    8.1817   -5.7586    0.0000 C   0  0  0  0  0  0  0  0  0  0  0  0
    9.5026   -5.6160    0.0000 C   0  0  0  0  0  0  0  0  0  0  0  0
  1  2  2  0  0  0  0
  2  3  1  0  0  0  0
  2 19  1  0  0  0  0
  3  4  1  0  0  0  0
  3 10  1  0  0  0  0
  4  5  2  0  0  0  0
  4  9  1  0  0  0  0
  5  6  1  0  0  0  0
  6  7  2  0  0  0  0
  7  8  1  0  0  0  0
  8  9  2  0  0  0  0
 10 11  1  0  0  0  0
 10 17  1  0  0  0  0
 11 12  2  0  0  0  0
 11 16  1  0  0  0  0
 12 13  1  0  0  0  0
 13 14  2  0  0  0  0
 14 15  1  0  0  0  0
 15 16  2  0  0  0  0
 17 18  2  0  0  0  0
 17 19  1  0  0  0  0
 19 20  1  0  0  0  0
 20 21  1  0  0  0  0
 21 22  1  0  0  0  0
 22 23  1  0  0  0  0
M  END
> <ID>
1092

> <Formula>
C19H20N2O2

> <FW>
308.3743

> <DSSTox_CID>
1136

> <DSSTox_RID>
75967

> <DSSTox_GSID>
21136

> <DSSTox_FileID_Sort>
651

> <TS_ChemName>
Phenylbutazone

> <TS_ChemName_Synonyms>


> <TS_CASRN>
50-33-9

> <CASRN_ChemName_Relationship>
primary

> <TS_Description>
single chemical compound

> <ChemNote>


> <STRUCTURE_Shown>
tested chemical

> <STRUCTURE_Formula>
C19H20N2O2

> <STRUCTURE_MW>
308.3743

> <STRUCTURE_ChemType>
defined organic

> <STRUCTURE_DefinedOrganicForm>
parent

> <STRUCTURE_IUPAC>
4-butyl-1,2-diphenylpyrazolidine-3,5-dione

> <STRUCTURE_SMILES>
O=C3C(CCCC)C(=O)N(c1ccccc1)N3c2ccccc2

> <STRUCTURE_SMILES_Desalt>
O=C3C(CCCC)C(=O)N(c1ccccc1)N3c2ccccc2

> <Substance_modify_yyyymmdd>
20080429

$$$$
