50-34-0
ChemmineR-0915142007XD

 28 29  0  0  0  0  0  0  0  0  2 V2000
    1.1517   -6.6566    0.0000 C    0  0  0  0  0  0  0  0  0  0  0  0
    0.0000   -5.9887    0.0000 C    0  0  0  0  0  0  0  0  0  0  0  0
    0.0000   -4.6527    0.0000 C    0  0  0  0  0  0  0  0  0  0  0  0
    1.1517   -3.9963    0.0000 C    0  0  0  0  0  0  0  0  0  0  0  0
    2.3033   -4.6527    0.0000 C    0  0  0  0  0  0  0  0  0  0  0  0
    2.3033   -5.9887    0.0000 C    0  0  0  0  0  0  0  0  0  0  0  0
    3.4550   -3.9963    0.0000 C    0  0  0  0  0  0  0  0  0  0  0  0
    4.6067   -4.6527    0.0000 C    0  0  0  0  0  0  0  0  0  0  0  0
    4.6067   -5.9887    0.0000 O    0  0  0  0  0  0  0  0  0  0  0  0
    5.7583   -3.9963    0.0000 O    0  0  0  0  0  0  0  0  0  0  0  0
    6.9100   -4.6527    0.0000 C    0  0  0  0  0  0  0  0  0  0  0  0
    8.0616   -3.9963    0.0000 C    0  0  0  0  0  0  0  0  0  0  0  0
    9.2133   -4.6527    0.0000 N    0  3  0  0  0  0  0  0  0  0  0  0
    8.5453   -5.8044    0.0000 C    0  0  0  0  0  0  0  0  0  0  0  0
   10.3650   -5.3207    0.0000 C    0  0  0  0  0  0  0  0  0  0  0  0
   10.3650   -6.6566    0.0000 C    0  0  0  0  0  0  0  0  0  0  0  0
   11.5166   -4.6527    0.0000 C    0  0  0  0  0  0  0  0  0  0  0  0
    9.8813   -3.5011    0.0000 C    0  0  0  0  0  0  0  0  0  0  0  0
   11.2057   -3.5011    0.0000 C    0  0  0  0  0  0  0  0  0  0  0  0
    9.2133   -2.3494    0.0000 C    0  0  0  0  0  0  0  0  0  0  0  0
    3.4550   -2.6603    0.0000 C    0  0  0  0  0  0  0  0  0  0  0  0
    2.3033   -1.9924    0.0000 C    0  0  0  0  0  0  0  0  0  0  0  0
    1.1517   -2.6603    0.0000 O    0  0  0  0  0  0  0  0  0  0  0  0
    2.3033   -0.6680    0.0000 C    0  0  0  0  0  0  0  0  0  0  0  0
    3.4550    0.0000    0.0000 C    0  0  0  0  0  0  0  0  0  0  0  0
    4.6067   -0.6680    0.0000 C    0  0  0  0  0  0  0  0  0  0  0  0
    4.6067   -1.9924    0.0000 C    0  0  0  0  0  0  0  0  0  0  0  0
    5.7238   -7.9810    0.0000 Br   0  5  0  0  0  0  0  0  0  0  0  0
  1  2  2  0  0  0  0
  1  6  1  0  0  0  0
  2  3  1  0  0  0  0
  3  4  2  0  0  0  0
  4  5  1  0  0  0  0
  4 23  1  0  0  0  0
  5  6  2  0  0  0  0
  5  7  1  0  0  0  0
  7  8  1  0  0  0  0
  7 21  1  0  0  0  0
  8  9  2  0  0  0  0
  8 10  1  0  0  0  0
 10 11  1  0  0  0  0
 11 12  1  0  0  0  0
 12 13  1  0  0  0  0
 13 14  1  0  0  0  0
 13 15  1  0  0  0  0
 13 18  1  0  0  0  0
 15 16  1  0  0  0  0
 15 17  1  0  0  0  0
 18 19  1  0  0  0  0
 18 20  1  0  0  0  0
 21 22  2  0  0  0  0
 21 27  1  0  0  0  0
 22 23  1  0  0  0  0
 22 24  1  0  0  0  0
 24 25  2  0  0  0  0
 25 26  1  0  0  0  0
 26 27  2  0  0  0  0
M  END
> <ID>
3151

> <Formula>
C23H30BrNO3

> <FW>
448.3932 (368.4887+79.9045)

> <DSSTox_CID>
3519

> <DSSTox_RID>
77062

> <DSSTox_GSID>
23519

> <DSSTox_FileID_Sort>
1745

> <TS_ChemName>
Propantheline bromide

> <TS_ChemName_Synonyms>


> <TS_CASRN>
50-34-0

> <CASRN_ChemName_Relationship>
primary

> <TS_Description>
single chemical compound

> <ChemNote>
ammonium; parent [298-50-0]

> <STRUCTURE_Shown>
tested chemical

> <STRUCTURE_Formula>
C23H30BrNO3

> <STRUCTURE_MW>
448.3932

> <STRUCTURE_ChemType>
defined organic

> <STRUCTURE_DefinedOrganicForm>
salt

> <STRUCTURE_IUPAC>
N-methyl-N-(propan-2-yl)-N-{2-[(9H-xanthen-9-ylcarbonyl)oxy]ethyl}propan-2-aminium bromide

> <STRUCTURE_SMILES>
[Br-].CC(C)[N+](C)(CCOC(=O)C1c3ccccc3Oc2ccccc12)C(C)C

> <STRUCTURE_SMILES_Desalt>
CC(C)[N+](C)(CCOC(=O)C1c3ccccc3Oc2ccccc12)C(C)C

> <Substance_modify_yyyymmdd>
20080429

$$$$
