50-31-7
ChemmineR-0915142007XD

 12 12  0  0  0  0  0  0  0  0  1 V2000
    4.5780   -1.3270    0.0000 C    0  0  0  0  0  0  0  0  0  0  0  0
    4.5780   -0.0174    0.0000 O    0  0  0  0  0  0  0  0  0  0  0  0
    3.4190   -1.9819    0.0000 C    0  0  0  0  0  0  0  0  0  0  0  0
    5.7950   -2.0398    0.0000 O    0  0  0  0  0  0  0  0  0  0  0  0
    2.2832   -1.3270    0.0000 C    0  0  0  0  0  0  0  0  0  0  0  0
    3.4190   -3.3089    0.0000 C    0  0  0  0  0  0  0  0  0  0  0  0
    1.1416   -1.9819    0.0000 C    0  0  0  0  0  0  0  0  0  0  0  0
    2.2832   -3.9811    0.0000 C    0  0  0  0  0  0  0  0  0  0  0  0
    1.1416   -3.3089    0.0000 C    0  0  0  0  0  0  0  0  0  0  0  0
    2.2832    0.0000    0.0000 Cl   0  0  0  0  0  0  0  0  0  0  0  0
    0.0000   -1.3270    0.0000 Cl   0  0  0  0  0  0  0  0  0  0  0  0
    4.5780   -3.9811    0.0000 Cl   0  0  0  0  0  0  0  0  0  0  0  0
  1  2  2  0  0  0  0
  1  3  1  0  0  0  0
  1  4  1  0  0  0  0
  3  5  2  0  0  0  0
  3  6  1  0  0  0  0
  5  7  1  0  0  0  0
  5 10  1  0  0  0  0
  6  8  2  0  0  0  0
  6 12  1  0  0  0  0
  7  9  2  0  0  0  0
  7 11  1  0  0  0  0
  8  9  1  0  0  0  0
M  END
> <ID>
7672

> <Formula>
C7H3Cl3O2

> <FW>
225.4565

> <DSSTox_CID>
20296

> <DSSTox_RID>
79475

> <DSSTox_GSID>
40296

> <DSSTox_FileID_Sort>
4157

> <TS_ChemName>
2,3,6-Trichlorobenzoic acid

> <TS_ChemName_Synonyms>


> <TS_CASRN>
50-31-7

> <CASRN_ChemName_Relationship>
primary

> <TS_Description>
single chemical compound

> <ChemNote>


> <STRUCTURE_Shown>
tested chemical

> <STRUCTURE_Formula>
C7H3Cl3O2

> <STRUCTURE_MW>
225.4565

> <STRUCTURE_ChemType>
defined organic

> <STRUCTURE_DefinedOrganicForm>
parent

> <STRUCTURE_IUPAC>
2,3,6-trichlorobenzoic acid

> <STRUCTURE_SMILES>
Clc1c(C(=O)O)c(Cl)ccc1Cl

> <STRUCTURE_SMILES_Desalt>
Clc1c(C(=O)O)c(Cl)ccc1Cl

> <Substance_modify_yyyymmdd>
20080429

$$$$
