50-42-0
ChemmineR-0915142007XD

 24 24  0  0  0  0  0  0  0  0  1 V2000
    6.7765   -6.1019    0.0000 Cl   0  0  0  0  0  0  0  0  0  0  0  0
    1.1623   -6.6623    0.0000 C    0  0  0  0  0  0  0  0  0  0  0  0
    0.0000   -5.9982    0.0000 C    0  0  0  0  0  0  0  0  0  0  0  0
    0.0000   -4.6698    0.0000 C    0  0  0  0  0  0  0  0  0  0  0  0
    1.1623   -3.9953    0.0000 C    0  0  0  0  0  0  0  0  0  0  0  0
    2.3038   -4.6698    0.0000 C    0  0  0  0  0  0  0  0  0  0  0  0
    3.4557   -3.9953    0.0000 C    0  0  0  0  0  0  0  0  0  0  0  0
    4.5972   -4.6698    0.0000 C    0  0  0  0  0  0  0  0  0  0  0  0
    4.5972   -5.9982    0.0000 O    0  0  0  0  0  0  0  0  0  0  0  0
    5.7802   -3.9953    0.0000 O    0  0  0  0  0  0  0  0  0  0  0  0
    6.9218   -4.6698    0.0000 C    0  0  0  0  0  0  0  0  0  0  0  0
    8.0736   -3.9953    0.0000 C    0  0  0  0  0  0  0  0  0  0  0  0
    9.2359   -4.6698    0.0000 N    0  0  0  0  0  0  0  0  0  0  0  0
    9.2359   -5.9982    0.0000 C    0  0  0  0  0  0  0  0  0  0  0  0
   10.3774   -6.6623    0.0000 C    0  0  0  0  0  0  0  0  0  0  0  0
   10.3774   -3.9953    0.0000 C    0  0  0  0  0  0  0  0  0  0  0  0
   10.3774   -2.6774    0.0000 C    0  0  0  0  0  0  0  0  0  0  0  0
    3.4557   -2.6774    0.0000 C    0  0  0  0  0  0  0  0  0  0  0  0
    2.3038   -1.9925    0.0000 C    0  0  0  0  0  0  0  0  0  0  0  0
    2.3038   -0.6745    0.0000 C    0  0  0  0  0  0  0  0  0  0  0  0
    3.4557    0.0000    0.0000 C    0  0  0  0  0  0  0  0  0  0  0  0
    4.5972   -0.6745    0.0000 C    0  0  0  0  0  0  0  0  0  0  0  0
    4.5972   -1.9925    0.0000 C    0  0  0  0  0  0  0  0  0  0  0  0
    2.3038   -5.9982    0.0000 C    0  0  0  0  0  0  0  0  0  0  0  0
  2  3  2  0  0  0  0
  2 24  1  0  0  0  0
  3  4  1  0  0  0  0
  4  5  2  0  0  0  0
  5  6  1  0  0  0  0
  6  7  1  0  0  0  0
  6 24  2  0  0  0  0
  7  8  1  0  0  0  0
  7 18  1  0  0  0  0
  8  9  2  0  0  0  0
  8 10  1  0  0  0  0
 10 11  1  0  0  0  0
 11 12  1  0  0  0  0
 12 13  1  0  0  0  0
 13 14  1  0  0  0  0
 13 16  1  0  0  0  0
 14 15  1  0  0  0  0
 16 17  1  0  0  0  0
 18 19  2  0  0  0  0
 18 23  1  0  0  0  0
 19 20  1  0  0  0  0
 20 21  2  0  0  0  0
 21 22  1  0  0  0  0
 22 23  2  0  0  0  0
M  END
> <ID>
11264

> <Formula>
C20H26ClNO2

> <FW>
347.8789 (36.4609+311.4180)

> <DSSTox_CID>
25880

> <DSSTox_RID>
81196

> <DSSTox_GSID>
45880

> <DSSTox_FileID_Sort>
5877

> <TS_ChemName>
Adiphenine hydrochloride

> <TS_ChemName_Synonyms>


> <TS_CASRN>
50-42-0

> <CASRN_ChemName_Relationship>
primary

> <TS_Description>
single chemical compound

> <ChemNote>
parent [64-95-9]

> <STRUCTURE_Shown>
tested chemical

> <STRUCTURE_Formula>
C20H26ClNO2

> <STRUCTURE_MW>
347.8789

> <STRUCTURE_ChemType>
defined organic

> <STRUCTURE_DefinedOrganicForm>
complex

> <STRUCTURE_IUPAC>
2-(diethylamino)ethyl diphenylacetate hydrochloride (1:1)

> <STRUCTURE_SMILES>
Cl.CCN(CC)CCOC(=O)C(c1ccccc1)c2ccccc2

> <STRUCTURE_SMILES_Desalt>
CCN(CC)CCOC(=O)C(c1ccccc1)c2ccccc2

> <Substance_modify_yyyymmdd>
20110922

$$$$
