50-49-7
ChemmineR-0915142007XD

 21 23  0  0  0  0  0  0  0  0  1 V2000
    3.7310   -2.9303    0.0000 N   0  0  0  0  0  0  0  0  0  0  0  0
    2.5341   -2.3443    0.0000 C   0  0  0  0  0  0  0  0  0  0  0  0
    4.9361   -2.3443    0.0000 C   0  0  0  0  0  0  0  0  0  0  0  0
    2.2535   -1.0483    0.0000 C   0  0  0  0  0  0  0  0  0  0  0  0
    5.2333   -1.0483    0.0000 C   0  0  0  0  0  0  0  0  0  0  0  0
    3.0789    0.0000    0.0000 C   0  0  0  0  0  0  0  0  0  0  0  0
    4.4079    0.0000    0.0000 C   0  0  0  0  0  0  0  0  0  0  0  0
    3.7310   -4.2593    0.0000 C   0  0  0  0  0  0  0  0  0  0  0  0
    2.5919   -4.9114    0.0000 C   0  0  0  0  0  0  0  0  0  0  0  0
    1.4280   -6.9255    0.0000 N   0  0  0  0  0  0  0  0  0  0  0  0
    1.5601   -3.2440    0.0000 C   0  0  0  0  0  0  0  0  0  0  0  0
    5.9102   -3.2440    0.0000 C   0  0  0  0  0  0  0  0  0  0  0  0
    2.5919   -6.2486    0.0000 C   0  0  0  0  0  0  0  0  0  0  0  0
    0.9740   -0.6604    0.0000 C   0  0  0  0  0  0  0  0  0  0  0  0
    6.5127   -0.6604    0.0000 C   0  0  0  0  0  0  0  0  0  0  0  0
    0.2807   -6.2486    0.0000 C   0  0  0  0  0  0  0  0  0  0  0  0
    1.4280   -8.2544    0.0000 C   0  0  0  0  0  0  0  0  0  0  0  0
    0.2972   -2.8478    0.0000 C   0  0  0  0  0  0  0  0  0  0  0  0
    7.1813   -2.8478    0.0000 C   0  0  0  0  0  0  0  0  0  0  0  0
    0.0000   -1.5601    0.0000 C   0  0  0  0  0  0  0  0  0  0  0  0
    7.4868   -1.5601    0.0000 C   0  0  0  0  0  0  0  0  0  0  0  0
  1  2  1  0  0  0  0
  1  3  1  0  0  0  0
  1  8  1  0  0  0  0
  2  4  2  0  0  0  0
  2 11  1  0  0  0  0
  3  5  2  0  0  0  0
  3 12  1  0  0  0  0
  4  6  1  0  0  0  0
  4 14  1  0  0  0  0
  5  7  1  0  0  0  0
  5 15  1  0  0  0  0
  6  7  1  0  0  0  0
  8  9  1  0  0  0  0
  9 13  1  0  0  0  0
 10 13  1  0  0  0  0
 10 16  1  0  0  0  0
 10 17  1  0  0  0  0
 11 18  2  0  0  0  0
 12 19  2  0  0  0  0
 14 20  2  0  0  0  0
 15 21  2  0  0  0  0
 18 20  1  0  0  0  0
 19 21  1  0  0  0  0
M  END
> <ID>
9711

> <Formula>
C19H24N2

> <FW>
280.4073

> <DSSTox_CID>
23881

> <DSSTox_RID>
80080

> <DSSTox_GSID>
43881

> <DSSTox_FileID_Sort>
4762

> <TS_ChemName>
Imipramine

> <TS_ChemName_Synonyms>


> <TS_CASRN>
50-49-7

> <CASRN_ChemName_Relationship>
primary

> <TS_Description>
single chemical compound

> <ChemNote>


> <STRUCTURE_Shown>
tested chemical

> <STRUCTURE_Formula>
C19H24N2

> <STRUCTURE_MW>
280.4073

> <STRUCTURE_ChemType>
defined organic

> <STRUCTURE_DefinedOrganicForm>
parent

> <STRUCTURE_IUPAC>
3-(10,11-dihydro-5H-dibenzo[b,f]azepin-5-yl)-N,N-dimethylpropan-1-amine

> <STRUCTURE_SMILES>
CN(C)CCCN2c3ccccc3CCc1ccccc12

> <STRUCTURE_SMILES_Desalt>
CN(C)CCCN2c3ccccc3CCc1ccccc12

> <Substance_modify_yyyymmdd>
20081229

$$$$
