50-41-9
ChemmineR-0915142007XD

 42 43  0  0  0  0  0  0  0  0  1 V2000
    5.8962   -9.9824    0.0000 C    0  0  0  0  0  0  0  0  0  0  0  0
    5.8962  -11.3133    0.0000 C    0  0  0  0  0  0  0  0  0  0  0  0
    4.7516  -11.9788    0.0000 C    0  0  0  0  0  0  0  0  0  0  0  0
    4.7516  -13.3098    0.0000 O    0  0  0  0  0  0  0  0  0  0  0  0
    3.5936  -11.3133    0.0000 O    0  0  0  0  0  0  0  0  0  0  0  0
    7.2272   -9.9824    0.0000 C    0  0  0  0  0  0  0  0  0  0  0  0
    7.9060  -11.1403    0.0000 C    0  0  0  0  0  0  0  0  0  0  0  0
    7.2272  -12.2850    0.0000 O    0  0  0  0  0  0  0  0  0  0  0  0
    9.2237  -11.1403    0.0000 O    0  0  0  0  0  0  0  0  0  0  0  0
    5.8962   -8.6381    0.0000 C    0  0  0  0  0  0  0  0  0  0  0  0
    7.0542   -7.9859    0.0000 O    0  0  0  0  0  0  0  0  0  0  0  0
    4.7516   -7.9859    0.0000 O    0  0  0  0  0  0  0  0  0  0  0  0
    4.5653   -9.9824    0.0000 O    0  0  0  0  0  0  0  0  0  0  0  0
    3.4606   -3.9929    0.0000 C    0  0  0  0  0  0  0  0  0  0  0  0
    3.4606   -2.6620    0.0000 C    0  0  0  0  0  0  0  0  0  0  0  0
    4.6052   -1.9965    0.0000 Cl   0  0  0  0  0  0  0  0  0  0  0  0
    2.3026   -1.9965    0.0000 C    0  0  0  0  0  0  0  0  0  0  0  0
    1.1580   -2.6620    0.0000 C    0  0  0  0  0  0  0  0  0  0  0  0
    0.0000   -1.9965    0.0000 C    0  0  0  0  0  0  0  0  0  0  0  0
    0.0000   -0.6655    0.0000 C    0  0  0  0  0  0  0  0  0  0  0  0
    1.1580    0.0000    0.0000 C    0  0  0  0  0  0  0  0  0  0  0  0
    2.3026   -0.6655    0.0000 C    0  0  0  0  0  0  0  0  0  0  0  0
    4.6052   -4.6451    0.0000 C    0  0  0  0  0  0  0  0  0  0  0  0
    5.7631   -3.9929    0.0000 C    0  0  0  0  0  0  0  0  0  0  0  0
    6.9211   -4.6451    0.0000 C    0  0  0  0  0  0  0  0  0  0  0  0
    6.9211   -5.9894    0.0000 C    0  0  0  0  0  0  0  0  0  0  0  0
    5.7631   -6.6416    0.0000 C    0  0  0  0  0  0  0  0  0  0  0  0
    4.6052   -5.9894    0.0000 C    0  0  0  0  0  0  0  0  0  0  0  0
    8.0657   -6.6416    0.0000 O    0  0  0  0  0  0  0  0  0  0  0  0
    9.2237   -5.9894    0.0000 C    0  0  0  0  0  0  0  0  0  0  0  0
    9.2237   -4.6451    0.0000 C    0  0  0  0  0  0  0  0  0  0  0  0
   10.3683   -3.9929    0.0000 N    0  0  0  0  0  0  0  0  0  0  0  0
   10.3683   -2.6620    0.0000 C    0  0  0  0  0  0  0  0  0  0  0  0
    9.2237   -1.9965    0.0000 C    0  0  0  0  0  0  0  0  0  0  0  0
   11.5263   -4.6451    0.0000 C    0  0  0  0  0  0  0  0  0  0  0  0
   12.6843   -3.9929    0.0000 C    0  0  0  0  0  0  0  0  0  0  0  0
    2.3026   -4.6451    0.0000 C    0  0  0  0  0  0  0  0  0  0  0  0
    2.3026   -5.9894    0.0000 C    0  0  0  0  0  0  0  0  0  0  0  0
    1.1580   -6.6416    0.0000 C    0  0  0  0  0  0  0  0  0  0  0  0
    0.0000   -5.9894    0.0000 C    0  0  0  0  0  0  0  0  0  0  0  0
    0.0000   -4.6451    0.0000 C    0  0  0  0  0  0  0  0  0  0  0  0
    1.1580   -3.9929    0.0000 C    0  0  0  0  0  0  0  0  0  0  0  0
  1  2  1  0  0  0  0
  1  6  1  0  0  0  0
  1 10  1  0  0  0  0
  1 13  1  0  0  0  0
  2  3  1  0  0  0  0
  3  4  2  0  0  0  0
  3  5  1  0  0  0  0
  6  7  1  0  0  0  0
  7  8  2  0  0  0  0
  7  9  1  0  0  0  0
 10 11  2  0  0  0  0
 10 12  1  0  0  0  0
 14 15  2  3  0  0  0
 14 23  1  0  0  0  0
 14 37  1  0  0  0  0
 15 16  1  0  0  0  0
 15 17  1  0  0  0  0
 17 18  2  0  0  0  0
 17 22  1  0  0  0  0
 18 19  1  0  0  0  0
 19 20  2  0  0  0  0
 20 21  1  0  0  0  0
 21 22  2  0  0  0  0
 23 24  2  0  0  0  0
 23 28  1  0  0  0  0
 24 25  1  0  0  0  0
 25 26  2  0  0  0  0
 26 27  1  0  0  0  0
 26 29  1  0  0  0  0
 27 28  2  0  0  0  0
 29 30  1  0  0  0  0
 30 31  1  0  0  0  0
 31 32  1  0  0  0  0
 32 33  1  0  0  0  0
 32 35  1  0  0  0  0
 33 34  1  0  0  0  0
 35 36  1  0  0  0  0
 37 38  2  0  0  0  0
 37 42  1  0  0  0  0
 38 39  1  0  0  0  0
 39 40  2  0  0  0  0
 40 41  1  0  0  0  0
 41 42  2  0  0  0  0
M  END
> <ID>
327

> <Formula>
C32H36ClNO8

> <FW>
598.0831 (192.1235+405.9596)

> <DSSTox_CID>
337

> <DSSTox_RID>
75522

> <DSSTox_GSID>
20337

> <DSSTox_FileID_Sort>
206

> <TS_ChemName>
Clomiphene citrate

> <TS_ChemName_Synonyms>
Clomiphene citrate (Clomid)

> <TS_CASRN>
50-41-9

> <CASRN_ChemName_Relationship>
primary

> <TS_Description>
mixture or formulation

> <ChemNote>
mixture of Z [7519-53-6],E [7599-79-3] isomers; parent [911-45-5]

> <STRUCTURE_Shown>
representative isomer in mixture

> <STRUCTURE_Formula>
C32H36ClNO8

> <STRUCTURE_MW>
598.0831

> <STRUCTURE_ChemType>
defined organic

> <STRUCTURE_DefinedOrganicForm>
complex

> <STRUCTURE_IUPAC>
2-[4-(2-chloro-1,2-diphenylethenyl)phenoxy]-N,N-diethylethanamine 2-hydroxypropane-1,2,3-tricarboxylate (1:1)

> <STRUCTURE_SMILES>
O=C(O)C(O)(CC(=O)O)CC(=O)O.CCN(CCOc1ccc(cc1)C(c2ccccc2)=C(Cl)c3ccccc3)CC

> <STRUCTURE_SMILES_Desalt>
CCN(CCOc1ccc(cc1)C(c2ccccc2)=C(Cl)c3ccccc3)CC

> <Substance_modify_yyyymmdd>
20110429

$$$$
