50-59-9
ChemmineR-0915142007XD

 30 33  0  0  1  0  0  0  0  0  2 V2000
    7.0833   -3.6328    0.0000 N   0  0  0  0  0  0  0  0  0  0  0  0
    5.7368   -3.6328    0.0000 C   0  0  0  0  0  0  0  0  0  0  0  0
    7.0833   -2.2863    0.0000 C   0  0  0  0  0  0  0  0  0  0  0  0
    5.7368   -2.2863    0.0000 C   0  0  0  0  0  0  0  0  0  0  0  0
    8.1914   -4.2359    0.0000 C   0  0  0  0  0  0  0  0  0  0  0  0
    9.3696   -3.6328    0.0000 C   0  0  0  0  0  0  0  0  0  0  0  0
    8.1914   -1.5850    0.0000 S   0  0  0  0  0  0  0  0  0  0  0  0
   11.6839   -3.6749    0.0000 N   0  3  0  0  0  0  0  0  0  0  0  0
    4.3902   -2.2863    0.0000 N   0  0  0  0  0  0  0  0  0  0  0  0
    8.1914   -5.5965    0.0000 C   0  0  0  0  0  0  0  0  0  0  0  0
    3.7170   -1.1361    0.0000 C   0  0  0  0  0  0  0  0  0  0  0  0
   10.5057   -4.3201    0.0000 C   0  0  0  0  0  0  0  0  0  0  0  0
    9.3696   -2.2442    0.0000 C   0  0  0  0  0  0  0  0  0  0  0  0
    2.3704   -1.1361    0.0000 C   0  0  0  0  0  0  0  0  0  0  0  0
    1.7673   -2.2863    0.0000 C   0  0  0  0  0  0  0  0  0  0  0  0
    4.7830   -4.5445    0.0000 O   0  0  0  0  0  0  0  0  0  0  0  0
    2.1180   -3.5346    0.0000 S   0  0  0  0  0  0  0  0  0  0  0  0
    7.0552   -6.2698    0.0000 O   0  5  0  0  0  0  0  0  0  0  0  0
    1.0239   -4.2640    0.0000 C   0  0  0  0  0  0  0  0  0  0  0  0
    9.3696   -6.2698    0.0000 O   0  0  0  0  0  0  0  0  0  0  0  0
    0.4068   -2.2863    0.0000 C   0  0  0  0  0  0  0  0  0  0  0  0
    4.3902    0.0000    0.0000 O   0  0  0  0  0  0  0  0  0  0  0  0
    0.0000   -3.5346    0.0000 C   0  0  0  0  0  0  0  0  0  0  0  0
   11.6839   -2.3985    0.0000 C   0  0  0  0  0  0  0  0  0  0  0  0
   12.8200   -4.4183    0.0000 C   0  0  0  0  0  0  0  0  0  0  0  0
   14.0263   -3.7871    0.0000 C   0  0  0  0  0  0  0  0  0  0  0  0
   12.8200   -1.8374    0.0000 C   0  0  0  0  0  0  0  0  0  0  0  0
   14.0263   -2.4125    0.0000 C   0  0  0  0  0  0  0  0  0  0  0  0
    5.7368   -0.9538    0.0000 H   0  0  0  0  0  0  0  0  0  0  0  0
    7.0833   -0.9398    0.0000 H   0  0  0  0  0  0  0  0  0  0  0  0
  1  2  1  0  0  0  0
  1  3  1  0  0  0  0
  1  5  1  0  0  0  0
  2 16  2  0  0  0  0
  2  4  1  0  0  0  0
  3  4  1  0  0  0  0
  3  7  1  0  0  0  0
  3 30  1  6  0  0  0
  4  9  1  1  0  0  0
  4 29  1  6  0  0  0
  5  6  2  0  0  0  0
  5 10  1  0  0  0  0
  6 12  1  0  0  0  0
  6 13  1  0  0  0  0
  7 13  1  0  0  0  0
  8 12  1  0  0  0  0
  8 24  1  0  0  0  0
  8 25  2  0  0  0  0
  9 11  1  0  0  0  0
 10 18  1  0  0  0  0
 10 20  2  0  0  0  0
 11 14  1  0  0  0  0
 11 22  2  0  0  0  0
 14 15  1  0  0  0  0
 15 17  1  0  0  0  0
 15 21  2  0  0  0  0
 17 19  1  0  0  0  0
 19 23  2  0  0  0  0
 21 23  1  0  0  0  0
 24 27  2  0  0  0  0
 25 26  1  0  0  0  0
 26 28  2  0  0  0  0
 27 28  1  0  0  0  0
M  END
> <ID>
2520

> <Formula>
C19H17N3O4S2

> <FW>
415.486

> <DSSTox_CID>
2782

> <DSSTox_RID>
76727

> <DSSTox_GSID>
22782

> <DSSTox_FileID_Sort>
1411

> <TS_ChemName>
Cephaloridine

> <TS_ChemName_Synonyms>
Cephaloridine (CER)

> <TS_CASRN>
50-59-9

> <CASRN_ChemName_Relationship>
primary

> <TS_Description>
single chemical compound

> <ChemNote>
stereochem; zwitterion; ammonium

> <STRUCTURE_Shown>
tested chemical

> <STRUCTURE_Formula>
C19H17N3O4S2

> <STRUCTURE_MW>
415.486

> <STRUCTURE_ChemType>
defined organic

> <STRUCTURE_DefinedOrganicForm>
parent

> <STRUCTURE_IUPAC>
(6R,7R)-8-oxo-3-(pyridinium-1-ylmethyl)-7-[(thiophen-2-ylacetyl)amino]-5-thia-1-azabicyclo[4.2.0]oct-2-ene-2-carboxylate

> <STRUCTURE_SMILES>
[O-]C(=O)C=3N4C(=O)[C@@H](NC(=O)Cc1cccs1)[C@H]4SCC=3C[n+]2ccccc2

> <STRUCTURE_SMILES_Desalt>
O=C(O)C=3N4C(=O)[C@@H](NC(=O)Cc1cccs1)[C@H]4SCC=3C[n+]2ccccc2

> <Substance_modify_yyyymmdd>
20080429

$$$$
