50-50-0
ChemmineR-0915142007XD

 31 35  0  0  1  0  0  0  0  0  1 V2000
   11.5497   -1.7121    0.0000 C   0  0  0  0  0  0  0  0  0  0  0  0
   11.5497   -3.0437    0.0000 C   0  0  0  0  0  0  0  0  0  0  0  0
   10.4219   -3.6959    0.0000 C   0  0  0  0  0  0  0  0  0  0  0  0
    9.2806   -3.0437    0.0000 C   0  0  0  0  0  0  0  0  0  0  0  0
    8.1120   -3.6959    0.0000 C   0  0  0  0  0  0  0  0  0  0  0  0
    3.4649   -5.0819    0.0000 C   0  0  0  0  0  0  0  0  0  0  0  0
    8.1120   -5.0139    0.0000 C   0  0  0  0  0  0  0  0  0  0  0  0
   10.4219   -1.0463    0.0000 C   0  0  0  0  0  0  0  0  0  0  0  0
    9.2806   -1.7121    0.0000 C   0  0  0  0  0  0  0  0  0  0  0  0
   10.4219   -5.0139    0.0000 C   0  0  0  0  0  0  0  0  0  0  0  0
   12.8134   -3.4377    0.0000 C   0  0  0  0  0  0  0  0  0  0  0  0
    4.6199   -5.7477    0.0000 O   0  0  0  0  0  0  0  0  0  0  0  0
    6.9842   -3.0437    0.0000 C   0  0  0  0  0  0  0  0  0  0  0  0
   12.8134   -1.2909    0.0000 C   0  0  0  0  0  0  0  0  0  0  0  0
    6.9842   -5.6933    0.0000 C   0  0  0  0  0  0  0  0  0  0  0  0
    9.2806   -5.6933    0.0000 C   0  0  0  0  0  0  0  0  0  0  0  0
    5.8292   -5.0139    0.0000 C   0  0  0  0  0  0  0  0  0  0  0  0
    3.4649   -3.7503    0.0000 O   0  0  0  0  0  0  0  0  0  0  0  0
    2.3099   -5.7477    0.0000 C   0  0  0  0  0  0  0  0  0  0  0  0
   13.5879   -2.3779    0.0000 C   0  0  0  0  0  0  0  0  0  0  0  0
    5.8292   -3.6959    0.0000 C   0  0  0  0  0  0  0  0  0  0  0  0
   11.5497   -0.3669    0.0000 C   0  0  0  0  0  0  0  0  0  0  0  0
   13.2482    0.0000    0.0000 O   0  0  0  0  0  0  0  0  0  0  0  0
    2.3099   -7.0929    0.0000 C   0  0  0  0  0  0  0  0  0  0  0  0
    1.1414   -5.0819    0.0000 C   0  0  0  0  0  0  0  0  0  0  0  0
    1.1414   -7.7451    0.0000 C   0  0  0  0  0  0  0  0  0  0  0  0
    0.0000   -5.7205    0.0000 C   0  0  0  0  0  0  0  0  0  0  0  0
    0.0000   -7.0521    0.0000 C   0  0  0  0  0  0  0  0  0  0  0  0
   10.4219   -2.3779    0.0000 H   0  0  0  0  0  0  0  0  0  0  0  0
   11.5497   -4.3617    0.0000 H   0  0  0  0  0  0  0  0  0  0  0  0
    9.2806   -4.3617    0.0000 H   0  0  0  0  0  0  0  0  0  0  0  0
  1  2  1  0  0  0  0
  1  8  1  0  0  0  0
  1 14  1  0  0  0  0
  1 22  1  1  0  0  0
  2  3  1  0  0  0  0
  2 11  1  0  0  0  0
  2 30  1  6  0  0  0
  3 10  1  0  0  0  0
  3  4  1  0  0  0  0
  3 29  1  1  0  0  0
  4  9  1  0  0  0  0
  4  5  1  0  0  0  0
  4 31  1  6  0  0  0
  5  7  1  0  0  0  0
  5 13  2  0  0  0  0
  6 12  1  0  0  0  0
  6 18  2  0  0  0  0
  6 19  1  0  0  0  0
  7 15  2  0  0  0  0
  7 16  1  0  0  0  0
  8  9  1  0  0  0  0
 10 16  1  0  0  0  0
 11 20  1  0  0  0  0
 12 17  1  0  0  0  0
 13 21  1  0  0  0  0
 14 20  1  0  0  0  0
 14 23  1  1  0  0  0
 15 17  1  0  0  0  0
 17 21  2  0  0  0  0
 19 24  1  0  0  0  0
 19 25  2  0  0  0  0
 24 26  2  0  0  0  0
 25 27  1  0  0  0  0
 26 28  1  0  0  0  0
 27 28  2  0  0  0  0
M  END
> <ID>
2698

> <Formula>
C25H28O3

> <FW>
376.488

> <DSSTox_CID>
2998

> <DSSTox_RID>
76823

> <DSSTox_GSID>
22998

> <DSSTox_FileID_Sort>
1507

> <TS_ChemName>
Estradiol benzoate

> <TS_ChemName_Synonyms>
Estradiol benzoate (beta-Estradiol 3-Benzoate)

> <TS_CASRN>
50-50-0

> <CASRN_ChemName_Relationship>
primary

> <TS_Description>
single chemical compound

> <ChemNote>
stereochem

> <STRUCTURE_Shown>
tested chemical

> <STRUCTURE_Formula>
C25H28O3

> <STRUCTURE_MW>
376.488

> <STRUCTURE_ChemType>
defined organic

> <STRUCTURE_DefinedOrganicForm>
parent

> <STRUCTURE_IUPAC>
(17beta)-17-hydroxyestra-1(10),2,4-trien-3-yl benzoate

> <STRUCTURE_SMILES>
O=C(Oc3cc4CC[C@@H]1[C@H](CC[C@]2(C)[C@@H](O)CC[C@@H]12)c4cc3)c5ccccc5

> <STRUCTURE_SMILES_Desalt>
O=C(Oc3cc4CC[C@@H]1[C@H](CC[C@]2(C)[C@@H](O)CC[C@@H]12)c4cc3)c5ccccc5

> <Substance_modify_yyyymmdd>
20080429

$$$$
