50-55-5
ChemmineR-0915142007XD

 47 52  0  0  1  0  0  0  0  0  1 V2000
    5.4267   -2.0763    0.0000 C   0  0  0  0  0  0  0  0  0  0  0  0
    4.4043   -2.6268    0.0000 N   0  0  0  0  0  0  0  0  0  0  0  0
    5.4267   -0.7236    0.0000 C   0  0  0  0  0  0  0  0  0  0  0  0
    7.7075   -6.0402    0.0000 C   0  0  0  0  0  0  0  0  0  0  0  0
    7.7075   -4.7346    0.0000 C   0  0  0  0  0  0  0  0  0  0  0  0
    6.5750   -2.7370    0.0000 C   0  0  0  0  0  0  0  0  0  0  0  0
    7.7075   -2.0763    0.0000 N   0  0  0  0  0  0  0  0  0  0  0  0
    3.3504   -1.9347    0.0000 C   0  0  0  0  0  0  0  0  0  0  0  0
    3.3504   -0.7236    0.0000 C   0  0  0  0  0  0  0  0  0  0  0  0
    8.8401   -4.0582    0.0000 C   0  0  0  0  0  0  0  0  0  0  0  0
   10.0040   -6.0402    0.0000 C   0  0  0  0  0  0  0  0  0  0  0  0
   12.2848   -6.0244    0.0000 C   0  0  0  0  0  0  0  0  0  0  0  0
    6.5750   -4.0582    0.0000 C   0  0  0  0  0  0  0  0  0  0  0  0
    8.8401   -6.7008    0.0000 C   0  0  0  0  0  0  0  0  0  0  0  0
   12.2848   -4.7032    0.0000 C   0  0  0  0  0  0  0  0  0  0  0  0
   12.2848   -2.0449    0.0000 C   0  0  0  0  0  0  0  0  0  0  0  0
    6.5750   -6.7323    0.0000 C   0  0  0  0  0  0  0  0  0  0  0  0
   11.1366   -6.7008    0.0000 O   0  0  0  0  0  0  0  0  0  0  0  0
    8.8401   -2.7370    0.0000 C   0  0  0  0  0  0  0  0  0  0  0  0
   11.1208   -2.7055    0.0000 C   0  0  0  0  0  0  0  0  0  0  0  0
   13.4331   -2.7055    0.0000 C   0  0  0  0  0  0  0  0  0  0  0  0
   10.0040   -4.7346    0.0000 C   0  0  0  0  0  0  0  0  0  0  0  0
    6.5750   -0.0629    0.0000 C   0  0  0  0  0  0  0  0  0  0  0  0
   11.1208   -4.0268    0.0000 C   0  0  0  0  0  0  0  0  0  0  0  0
   13.4331   -4.0268    0.0000 C   0  0  0  0  0  0  0  0  0  0  0  0
    2.2021   -2.6740    0.0000 C   0  0  0  0  0  0  0  0  0  0  0  0
    2.2021    0.0000    0.0000 C   0  0  0  0  0  0  0  0  0  0  0  0
    7.7075   -0.7236    0.0000 C   0  0  0  0  0  0  0  0  0  0  0  0
   13.4331   -6.6851    0.0000 O   0  0  0  0  0  0  0  0  0  0  0  0
    5.4267   -6.0716    0.0000 O   0  0  0  0  0  0  0  0  0  0  0  0
    1.0853   -2.0134    0.0000 C   0  0  0  0  0  0  0  0  0  0  0  0
   12.2848   -0.7078    0.0000 O   0  0  0  0  0  0  0  0  0  0  0  0
    1.0853   -0.6606    0.0000 C   0  0  0  0  0  0  0  0  0  0  0  0
    8.8401   -8.0378    0.0000 O   0  0  0  0  0  0  0  0  0  0  0  0
    6.5750   -8.0378    0.0000 O   0  0  0  0  0  0  0  0  0  0  0  0
    9.9726   -2.0449    0.0000 O   0  0  0  0  0  0  0  0  0  0  0  0
   14.5814   -2.0449    0.0000 O   0  0  0  0  0  0  0  0  0  0  0  0
    0.0000   -2.7684    0.0000 O   0  0  0  0  0  0  0  0  0  0  0  0
   13.4331   -0.0315    0.0000 C   0  0  0  0  0  0  0  0  0  0  0  0
   10.0040   -8.7142    0.0000 C   0  0  0  0  0  0  0  0  0  0  0  0
    9.9726   -0.7078    0.0000 C   0  0  0  0  0  0  0  0  0  0  0  0
   15.7296   -2.7055    0.0000 C   0  0  0  0  0  0  0  0  0  0  0  0
    7.7075   -8.7142    0.0000 C   0  0  0  0  0  0  0  0  0  0  0  0
    0.0000   -4.1212    0.0000 C   0  0  0  0  0  0  0  0  0  0  0  0
    7.7547   -3.4291    0.0000 H   0  0  0  0  0  0  0  0  0  0  0  0
    8.8558   -5.2694    0.0000 H   0  0  0  0  0  0  0  0  0  0  0  0
    6.5907   -1.5415    0.0000 H   0  0  0  0  0  0  0  0  0  0  0  0
  1  2  1  0  0  0  0
  1  3  2  0  0  0  0
  1  6  1  0  0  0  0
  2  8  1  0  0  0  0
  3  9  1  0  0  0  0
  3 23  1  0  0  0  0
  4  5  1  0  0  0  0
  4 14  1  0  0  0  0
  4 17  1  1  0  0  0
  5 13  1  0  0  0  0
  5 10  1  0  0  0  0
  5 45  1  6  0  0  0
  6  7  1  0  0  0  0
  6 13  1  0  0  0  0
  6 47  1  1  0  0  0
  7 19  1  0  0  0  0
  7 28  1  0  0  0  0
  8 26  1  0  0  0  0
  8  9  2  0  0  0  0
  9 27  1  0  0  0  0
 10 22  1  0  0  0  0
 10 46  1  6  0  0  0
 10 19  1  0  0  0  0
 11 22  1  0  0  0  0
 11 18  1  1  0  0  0
 11 14  1  0  0  0  0
 12 18  1  0  0  0  0
 12 15  1  0  0  0  0
 12 29  2  0  0  0  0
 14 34  1  6  0  0  0
 15 24  2  0  0  0  0
 15 25  1  0  0  0  0
 16 21  1  0  0  0  0
 16 32  1  0  0  0  0
 16 20  2  0  0  0  0
 17 30  2  0  0  0  0
 17 35  1  0  0  0  0
 20 24  1  0  0  0  0
 20 36  1  0  0  0  0
 21 25  2  0  0  0  0
 21 37  1  0  0  0  0
 23 28  1  0  0  0  0
 26 31  2  0  0  0  0
 27 33  2  0  0  0  0
 31 38  1  0  0  0  0
 31 33  1  0  0  0  0
 32 39  1  0  0  0  0
 34 40  1  0  0  0  0
 35 43  1  0  0  0  0
 36 41  1  0  0  0  0
 37 42  1  0  0  0  0
 38 44  1  0  0  0  0
M  END
> <ID>
1190

> <Formula>
C33H40N2O9

> <FW>
608.6787

> <DSSTox_CID>
1237

> <DSSTox_RID>
76029

> <DSSTox_GSID>
21237

> <DSSTox_FileID_Sort>
713

> <TS_ChemName>
Reserpine

> <TS_ChemName_Synonyms>


> <TS_CASRN>
50-55-5

> <CASRN_ChemName_Relationship>
primary

> <TS_Description>
single chemical compound

> <ChemNote>
stereochem

> <STRUCTURE_Shown>
tested chemical

> <STRUCTURE_Formula>
C33H40N2O9

> <STRUCTURE_MW>
608.6787

> <STRUCTURE_ChemType>
defined organic

> <STRUCTURE_DefinedOrganicForm>
parent

> <STRUCTURE_IUPAC>
methyl (3beta,16beta,17alpha,18beta,20alpha)-11,17-dimethoxy-18-[(3,4,5-trimethoxybenzoyl)oxy]yohimban-16-carboxylate

> <STRUCTURE_SMILES>
COc1cc(cc(OC)c1OC)C(=O)O[C@@H]3C[C@@H]4CN5CCc2c6ccc(OC)cc6nc2[C@H]5C[C@@H]4[C@@H]([C@H]3OC)C(=O)OC

> <STRUCTURE_SMILES_Desalt>
COc1cc(cc(OC)c1OC)C(=O)O[C@@H]3C[C@@H]4CN5CCc2c6ccc(OC)cc6nc2[C@H]5C[C@@H]4[C@@H]([C@H]3OC)C(=O)OC

> <Substance_modify_yyyymmdd>
20080429

$$$$
