50-57-7
ChemmineR-0915142007XD

 73 76  0  0  1  0  0  0  0  0  1 V2000
    1.3299  -10.4110    0.0000 C   0  0  0  0  0  0  0  0  0  0  0  0
    1.9949   -9.2681    0.0000 O   0  0  0  0  0  0  0  0  0  0  0  0
    3.3249  -11.5747    0.0000 N   0  0  0  0  0  0  0  0  0  0  0  0
    1.9949  -11.5747    0.0000 C   0  0  0  0  0  0  0  0  0  0  0  0
    0.0000  -10.4110    0.0000 N   0  0  0  0  0  0  0  0  0  0  0  0
    3.9898  -12.7176    0.0000 C   0  0  0  0  0  0  0  0  0  0  0  0
    3.3249  -13.8814    0.0000 O   0  0  0  0  0  0  0  0  0  0  0  0
    5.3198  -12.7176    0.0000 C   0  0  0  0  0  0  0  0  0  0  0  0
    5.9848  -11.5747    0.0000 N   0  0  0  0  0  0  0  0  0  0  0  0
    9.9746  -16.1880    0.0000 N   0  0  0  0  0  0  0  0  0  0  0  0
    9.3096  -15.0243    0.0000 C   0  0  0  0  0  0  0  0  0  0  0  0
    5.9848  -13.8814    0.0000 C   0  0  0  0  0  0  0  0  0  0  0  0
    7.9797  -15.0243    0.0000 C   0  0  0  0  0  0  0  0  0  0  0  0
    7.3147  -13.8814    0.0000 C   0  0  0  0  0  0  0  0  0  0  0  0
    7.3147  -11.5539    0.0000 C   0  0  0  0  0  0  0  0  0  0  0  0
    7.9797  -12.6969    0.0000 O   0  0  0  0  0  0  0  0  0  0  0  0
    7.9589  -10.3902    0.0000 C   0  0  0  0  0  0  0  0  0  0  0  0
    9.2473   -9.9954    0.0000 N   0  0  0  0  0  0  0  0  0  0  0  0
    9.2473   -8.6655    0.0000 C   0  0  0  0  0  0  0  0  0  0  0  0
    7.9589   -8.2706    0.0000 C   0  0  0  0  0  0  0  0  0  0  0  0
    7.1900   -9.3304    0.0000 C   0  0  0  0  0  0  0  0  0  0  0  0
   10.3902  -10.6396    0.0000 C   0  0  0  0  0  0  0  0  0  0  0  0
   11.5539   -9.9954    0.0000 C   0  0  0  0  0  0  0  0  0  0  0  0
   10.3902  -11.9695    0.0000 O   0  0  0  0  0  0  0  0  0  0  0  0
   12.6969  -10.6396    0.0000 N   0  0  0  0  0  0  0  0  0  0  0  0
   10.3902   -7.9797    0.0000 S   0  0  0  0  0  0  0  0  0  0  0  0
   11.5539   -8.6655    0.0000 C   0  0  0  0  0  0  0  0  0  0  0  0
   15.0035  -11.9695    0.0000 C   0  0  0  0  0  0  0  0  0  0  0  0
   13.8606   -9.9954    0.0000 C   0  0  0  0  0  0  0  0  0  0  0  0
   13.8606  -12.6553    0.0000 C   0  0  0  0  0  0  0  0  0  0  0  0
   15.0035  -10.6396    0.0000 C   0  0  0  0  0  0  0  0  0  0  0  0
   13.8606   -8.6655    0.0000 O   0  0  0  0  0  0  0  0  0  0  0  0
   12.6969  -11.9695    0.0000 O   0  0  0  0  0  0  0  0  0  0  0  0
   13.8606  -13.9853    0.0000 N   0  0  0  0  0  0  0  0  0  0  0  0
   16.1880   -9.9954    0.0000 N   0  0  0  0  0  0  0  0  0  0  0  0
   16.1880   -8.6655    0.0000 C   0  0  0  0  0  0  0  0  0  0  0  0
   19.6168  -10.6396    0.0000 C   0  0  0  0  0  0  0  0  0  0  0  0
   15.0035   -7.9797    0.0000 O   0  0  0  0  0  0  0  0  0  0  0  0
   17.3101   -7.9797    0.0000 C   0  0  0  0  0  0  0  0  0  0  0  0
   20.7805   -9.9954    0.0000 O   0  0  0  0  0  0  0  0  0  0  0  0
   18.4738   -8.6655    0.0000 C   0  0  0  0  0  0  0  0  0  0  0  0
   18.4738   -9.9954    0.0000 C   0  0  0  0  0  0  0  0  0  0  0  0
   19.6168  -11.9695    0.0000 N   0  0  0  0  0  0  0  0  0  0  0  0
   17.3101   -6.6497    0.0000 N   0  0  0  0  0  0  0  0  0  0  0  0
   16.1880   -5.9640    0.0000 C   0  0  0  0  0  0  0  0  0  0  0  0
   16.1880   -4.6340    0.0000 C   0  0  0  0  0  0  0  0  0  0  0  0
   15.0035   -6.6497    0.0000 O   0  0  0  0  0  0  0  0  0  0  0  0
   17.3101   -3.9898    0.0000 C   0  0  0  0  0  0  0  0  0  0  0  0
   15.0035   -3.9898    0.0000 N   0  0  0  0  0  0  0  0  0  0  0  0
   18.4738   -4.6340    0.0000 C   0  0  0  0  0  0  0  0  0  0  0  0
   19.6168   -3.9898    0.0000 C   0  0  0  0  0  0  0  0  0  0  0  0
   18.4738   -5.9640    0.0000 C   0  0  0  0  0  0  0  0  0  0  0  0
   19.6168   -6.6497    0.0000 C   0  0  0  0  0  0  0  0  0  0  0  0
   20.7805   -4.6340    0.0000 C   0  0  0  0  0  0  0  0  0  0  0  0
   20.7805   -5.9640    0.0000 C   0  0  0  0  0  0  0  0  0  0  0  0
   13.8606   -4.6340    0.0000 C   0  0  0  0  0  0  0  0  0  0  0  0
   13.8606   -5.9640    0.0000 O   0  0  0  0  0  0  0  0  0  0  0  0
   12.6969   -3.9898    0.0000 C   0  0  0  0  0  0  0  0  0  0  0  0
   12.6969   -2.6599    0.0000 C   0  0  0  0  0  0  0  0  0  0  0  0
   11.5539   -4.6340    0.0000 N   0  0  0  0  0  0  0  0  0  0  0  0
   13.8606   -1.9741    0.0000 C   0  0  0  0  0  0  0  0  0  0  0  0
   13.8606   -0.6442    0.0000 C   0  0  0  0  0  0  0  0  0  0  0  0
   15.0035   -2.6599    0.0000 C   0  0  0  0  0  0  0  0  0  0  0  0
   16.1880   -1.9741    0.0000 C   0  0  0  0  0  0  0  0  0  0  0  0
   16.1880   -0.6442    0.0000 C   0  0  0  0  0  0  0  0  0  0  0  0
   15.0035    0.0000    0.0000 C   0  0  0  0  0  0  0  0  0  0  0  0
   17.3101    0.0000    0.0000 O   0  0  0  0  0  0  0  0  0  0  0  0
   10.3902   -3.9898    0.0000 C   0  0  0  0  0  0  0  0  0  0  0  0
    9.2473   -4.6340    0.0000 C   0  0  0  0  0  0  0  0  0  0  0  0
   10.3902   -2.6599    0.0000 O   0  0  0  0  0  0  0  0  0  0  0  0
    8.1044   -3.9898    0.0000 N   0  0  0  0  0  0  0  0  0  0  0  0
   10.3902   -6.6497    0.0000 S   0  0  0  0  0  0  0  0  0  0  0  0
    9.2473   -5.9640    0.0000 C   0  0  0  0  0  0  0  0  0  0  0  0
  1  2  2  0  0  0  0
  1  4  1  0  0  0  0
  1  5  1  0  0  0  0
  3  4  1  0  0  0  0
  3  6  1  0  0  0  0
  6  7  2  0  0  0  0
  6  8  1  0  0  0  0
  8  9  1  1  0  0  0
  8 12  1  0  0  0  0
  9 15  1  0  0  0  0
 10 11  1  0  0  0  0
 11 13  1  0  0  0  0
 12 14  1  0  0  0  0
 13 14  1  0  0  0  0
 15 16  2  0  0  0  0
 15 17  1  0  0  0  0
 17 18  1  6  0  0  0
 17 21  1  0  0  0  0
 18 19  1  0  0  0  0
 18 22  1  0  0  0  0
 19 20  1  0  0  0  0
 20 21  1  0  0  0  0
 22 23  1  0  0  0  0
 22 24  2  0  0  0  0
 23 25  1  6  0  0  0
 23 27  1  0  0  0  0
 25 29  1  0  0  0  0
 26 27  1  0  0  0  0
 26 72  1  0  0  0  0
 28 30  1  0  0  0  0
 28 31  1  0  0  0  0
 29 31  1  0  0  0  0
 29 32  2  0  0  0  0
 30 33  2  0  0  0  0
 30 34  1  0  0  0  0
 31 35  1  1  0  0  0
 35 36  1  0  0  0  0
 36 38  2  0  0  0  0
 36 39  1  0  0  0  0
 37 42  1  0  0  0  0
 37 40  2  0  0  0  0
 37 43  1  0  0  0  0
 39 41  1  0  0  0  0
 39 44  1  1  0  0  0
 41 42  1  0  0  0  0
 44 45  1  0  0  0  0
 45 46  1  0  0  0  0
 45 47  2  0  0  0  0
 46 48  1  0  0  0  0
 46 49  1  1  0  0  0
 48 50  1  0  0  0  0
 49 56  1  0  0  0  0
 50 51  2  0  0  0  0
 50 52  1  0  0  0  0
 51 54  1  0  0  0  0
 52 53  2  0  0  0  0
 53 55  1  0  0  0  0
 54 55  2  0  0  0  0
 56 57  2  0  0  0  0
 56 58  1  0  0  0  0
 58 59  1  0  0  0  0
 58 60  1  1  0  0  0
 59 61  1  0  0  0  0
 60 68  1  0  0  0  0
 61 62  2  0  0  0  0
 61 63  1  0  0  0  0
 62 66  1  0  0  0  0
 63 64  2  0  0  0  0
 64 65  1  0  0  0  0
 65 66  2  0  0  0  0
 65 67  1  0  0  0  0
 68 69  1  0  0  0  0
 68 70  2  0  0  0  0
 69 71  1  6  0  0  0
 69 73  1  0  0  0  0
 72 73  1  0  0  0  0
M  END
> <ID>
13574

> <Formula>
C46H65N13O12S2

> <FW>
1056.2182

> <DSSTox_CID>
28501

> <DSSTox_RID>
82773

> <DSSTox_GSID>
48575

> <DSSTox_FileID_Sort>
7450

> <TS_ChemName>
Lypressin

> <TS_ChemName_Synonyms>
[Lys8]-Vasopressin; Lypressin

> <TS_CASRN>
50-57-7

> <CASRN_ChemName_Relationship>
primary

> <TS_Description>
single chemical compound

> <ChemNote>
stereochem

> <STRUCTURE_Shown>
tested chemical

> <STRUCTURE_Formula>
C46H65N13O12S2

> <STRUCTURE_MW>
1056.2182

> <STRUCTURE_ChemType>
defined organic

> <STRUCTURE_DefinedOrganicForm>
parent

> <STRUCTURE_IUPAC>
1-{[(4R,7S,10S,13S,16S,19R)-19-amino-7-(2-amino-2-oxoethyl)-10-(3-amino-3-oxopropyl)-13-benzyl-16-(4-hydroxybenzyl)-6,9,12,15,18-pentaoxo-1,2-dithia-5,8,11,14,17-pentaazacycloicosan-4-yl]carbonyl}-L-prolyl-L-lysylglycinamide

> <STRUCTURE_SMILES>
NC(=O)CNC(=O)[C@H](CCCCN)NC(=O)[C@@H]1CCCN1C(=O)[C@@H]4CSSC[C@H](N)C(=O)N[C@@H](Cc2ccc(O)cc2)C(=O)N[C@@H](Cc3ccccc3)C(=O)N[C@@H](CCC(N)=O)C(=O)N[C@@H](CC(N)=O)C(=O)N4

> <STRUCTURE_SMILES_Desalt>
NC(=O)CNC(=O)[C@H](CCCCN)NC(=O)[C@@H]1CCCN1C(=O)[C@@H]4CSSC[C@H](N)C(=O)N[C@@H](Cc2ccc(O)cc2)C(=O)N[C@@H](Cc3ccccc3)C(=O)N[C@@H](CCC(N)=O)C(=O)N[C@@H](CC(N)=O)C(=O)N4

> <Substance_modify_yyyymmdd>
20111013

$$$$
