50-65-7
ChemmineR-0915142007XD

 21 22  0  0  0  0  0  0  0  0  2 V2000
    5.9867   -1.1484    0.0000 O    0  0  0  0  0  0  0  0  0  0  0  0
    6.6460   -2.2968    0.0000 C    0  0  0  0  0  0  0  0  0  0  0  0
    7.9752   -2.2968    0.0000 C    0  0  0  0  0  0  0  0  0  0  0  0
    8.6451   -1.1484    0.0000 C    0  0  0  0  0  0  0  0  0  0  0  0
    9.9636   -1.1484    0.0000 C    0  0  0  0  0  0  0  0  0  0  0  0
   10.6335   -2.2968    0.0000 C    0  0  0  0  0  0  0  0  0  0  0  0
    9.9636   -3.4559    0.0000 C    0  0  0  0  0  0  0  0  0  0  0  0
    8.6451   -3.4559    0.0000 C    0  0  0  0  0  0  0  0  0  0  0  0
   10.6335   -4.6043    0.0000 Cl   0  0  0  0  0  0  0  0  0  0  0  0
    7.9752    0.0000    0.0000 O    0  0  0  0  0  0  0  0  0  0  0  0
    5.9867   -3.4559    0.0000 N    0  0  0  0  0  0  0  0  0  0  0  0
    4.6575   -3.4559    0.0000 C    0  0  0  0  0  0  0  0  0  0  0  0
    3.9876   -4.6043    0.0000 C    0  0  0  0  0  0  0  0  0  0  0  0
    2.6584   -4.6043    0.0000 C    0  0  0  0  0  0  0  0  0  0  0  0
    1.9885   -3.4559    0.0000 C    0  0  0  0  0  0  0  0  0  0  0  0
    2.6584   -2.2968    0.0000 C    0  0  0  0  0  0  0  0  0  0  0  0
    3.9876   -2.2968    0.0000 C    0  0  0  0  0  0  0  0  0  0  0  0
    4.6575   -1.1484    0.0000 Cl   0  0  0  0  0  0  0  0  0  0  0  0
    0.6593   -3.4559    0.0000 N    0  3  0  0  0  0  0  0  0  0  0  0
    0.0000   -4.6043    0.0000 O    0  0  0  0  0  0  0  0  0  0  0  0
    0.0000   -2.2968    0.0000 O    0  5  0  0  0  0  0  0  0  0  0  0
  1  2  2  0  0  0  0
  2  3  1  0  0  0  0
  2 11  1  0  0  0  0
  3  4  2  0  0  0  0
  3  8  1  0  0  0  0
  4  5  1  0  0  0  0
  4 10  1  0  0  0  0
  5  6  2  0  0  0  0
  6  7  1  0  0  0  0
  7  8  2  0  0  0  0
  7  9  1  0  0  0  0
 11 12  1  0  0  0  0
 12 13  2  0  0  0  0
 12 17  1  0  0  0  0
 13 14  1  0  0  0  0
 14 15  2  0  0  0  0
 15 16  1  0  0  0  0
 15 19  1  0  0  0  0
 16 17  2  0  0  0  0
 17 18  1  0  0  0  0
 19 20  2  0  0  0  0
 19 21  1  0  0  0  0
M  END
> <ID>
7718

> <Formula>
C13H8Cl2N2O4

> <FW>
327.1196

> <DSSTox_CID>
20362

> <DSSTox_RID>
79485

> <DSSTox_GSID>
40362

> <DSSTox_FileID_Sort>
4167

> <TS_ChemName>
Niclosamide

> <TS_ChemName_Synonyms>


> <TS_CASRN>
50-65-7

> <CASRN_ChemName_Relationship>
primary

> <TS_Description>
single chemical compound

> <ChemNote>


> <STRUCTURE_Shown>
tested chemical

> <STRUCTURE_Formula>
C13H8Cl2N2O4

> <STRUCTURE_MW>
327.1196

> <STRUCTURE_ChemType>
defined organic

> <STRUCTURE_DefinedOrganicForm>
parent

> <STRUCTURE_IUPAC>
5-chloro-N-(2-chloro-4-nitrophenyl)-2-hydroxybenzamide

> <STRUCTURE_SMILES>
Clc2cc(ccc2NC(=O)c1cc(Cl)ccc1O)[N+]([O-])=O

> <STRUCTURE_SMILES_Desalt>
Clc2cc(ccc2NC(=O)c1cc(Cl)ccc1O)[N+]([O-])=O

> <Substance_modify_yyyymmdd>
20080429

$$$$
