50-63-5
ChemmineR-0915142007XD

 32 31  0  0  0  0  0  0  0  0  1 V2000
    3.4439   -2.3265    0.0000 C    0  0  0  0  0  0  0  0  0  0  0  0
    4.6072   -3.0000    0.0000 C    0  0  0  0  0  0  0  0  0  0  0  0
    3.4439   -0.9949    0.0000 C    0  0  0  0  0  0  0  0  0  0  0  0
    4.6072   -4.3317    0.0000 N    0  0  0  0  0  0  0  0  0  0  0  0
    2.3112   -0.3367    0.0000 C    0  0  0  0  0  0  0  0  0  0  0  0
    2.3112   -3.0000    0.0000 C    0  0  0  0  0  0  0  0  0  0  0  0
    4.6072   -0.3367    0.0000 N    0  0  0  0  0  0  0  0  0  0  0  0
    1.1480   -0.9949    0.0000 C    0  0  0  0  0  0  0  0  0  0  0  0
    5.7551   -2.3265    0.0000 C    0  0  0  0  0  0  0  0  0  0  0  0
    1.1480   -2.3265    0.0000 C    0  0  0  0  0  0  0  0  0  0  0  0
    5.7551   -0.9949    0.0000 C    0  0  0  0  0  0  0  0  0  0  0  0
   10.3776   -4.9898    0.0000 N    0  0  0  0  0  0  0  0  0  0  0  0
    0.0000   -0.3367    0.0000 Cl   0  0  0  0  0  0  0  0  0  0  0  0
    5.7551   -4.9898    0.0000 C    0  0  0  0  0  0  0  0  0  0  0  0
    8.0664   -4.9898    0.0000 C    0  0  0  0  0  0  0  0  0  0  0  0
    9.2296   -4.3317    0.0000 C    0  0  0  0  0  0  0  0  0  0  0  0
   11.5409   -4.3317    0.0000 C    0  0  0  0  0  0  0  0  0  0  0  0
   10.3776   -6.3215    0.0000 C    0  0  0  0  0  0  0  0  0  0  0  0
    6.9184   -4.3317    0.0000 C    0  0  0  0  0  0  0  0  0  0  0  0
    5.7551   -6.3215    0.0000 C    0  0  0  0  0  0  0  0  0  0  0  0
   12.6735   -4.9898    0.0000 C    0  0  0  0  0  0  0  0  0  0  0  0
    9.2296   -6.9949    0.0000 C    0  0  0  0  0  0  0  0  0  0  0  0
    7.8980   -1.3316    0.0000 O    0  0  0  0  0  0  0  0  0  0  0  0
    9.2296   -1.3316    0.0000 P    0  0  0  0  0  0  0  0  0  0  0  0
   10.5613   -1.3316    0.0000 O    0  0  0  0  0  0  0  0  0  0  0  0
    9.2296    0.0000    0.0000 O    0  0  0  0  0  0  0  0  0  0  0  0
    9.2296   -2.6633    0.0000 O    0  0  0  0  0  0  0  0  0  0  0  0
   12.6429   -1.3316    0.0000 O    0  0  0  0  0  0  0  0  0  0  0  0
   13.9746   -1.3316    0.0000 P    0  0  0  0  0  0  0  0  0  0  0  0
   15.3062   -1.3316    0.0000 O    0  0  0  0  0  0  0  0  0  0  0  0
   13.9746    0.0000    0.0000 O    0  0  0  0  0  0  0  0  0  0  0  0
   13.9746   -2.6633    0.0000 O    0  0  0  0  0  0  0  0  0  0  0  0
  1  2  2  0  0  0  0
  1  3  1  0  0  0  0
  1  6  1  0  0  0  0
  2  4  1  0  0  0  0
  2  9  1  0  0  0  0
  3  5  1  0  0  0  0
  3  7  2  0  0  0  0
  4 14  1  0  0  0  0
  5  8  2  0  0  0  0
  6 10  2  0  0  0  0
  7 11  1  0  0  0  0
  8 10  1  0  0  0  0
  8 13  1  0  0  0  0
  9 11  2  0  0  0  0
 12 16  1  0  0  0  0
 12 17  1  0  0  0  0
 12 18  1  0  0  0  0
 14 19  1  0  0  0  0
 14 20  1  0  0  0  0
 15 19  1  0  0  0  0
 15 16  1  0  0  0  0
 17 21  1  0  0  0  0
 18 22  1  0  0  0  0
 23 24  1  0  0  0  0
 24 25  2  0  0  0  0
 24 26  1  0  0  0  0
 24 27  1  0  0  0  0
 28 29  1  0  0  0  0
 29 30  2  0  0  0  0
 29 31  1  0  0  0  0
 29 32  1  0  0  0  0
M  END
> <ID>
10333

> <Formula>
C18H32ClN3O8P2

> <FW>
515.8625 (319.8721+97.9952+97.9952)

> <DSSTox_CID>
24681

> <DSSTox_RID>
80393

> <DSSTox_GSID>
44681

> <DSSTox_FileID_Sort>
5075

> <TS_ChemName>
Chloroquine bis(phosphate)

> <TS_ChemName_Synonyms>
Chloroquine diphosphate (Chloroquine bis(phosphate))

> <TS_CASRN>
50-63-5

> <CASRN_ChemName_Relationship>
primary

> <TS_Description>
single chemical compound

> <ChemNote>
parent [54-05-7]

> <STRUCTURE_Shown>
tested chemical

> <STRUCTURE_Formula>
C18H32ClN3O8P2

> <STRUCTURE_MW>
515.8625

> <STRUCTURE_ChemType>
defined organic

> <STRUCTURE_DefinedOrganicForm>
complex

> <STRUCTURE_IUPAC>
N~4~-(7-chloroquinolin-4-yl)-N~1~,N~1~-diethylpentane-1,4-diamine phosphate (1:2)

> <STRUCTURE_SMILES>
O=P(O)(O)O.O=P(O)(O)O.CCN(CC)CCCC(C)Nc1ccnc2cc(Cl)ccc12

> <STRUCTURE_SMILES_Desalt>
CCN(CC)CCCC(C)Nc1ccnc2cc(Cl)ccc12

> <Substance_modify_yyyymmdd>
20091116

$$$$
