50-89-5
ChemmineR-0915142007XD

 17 18  0  0  1  0  0  0  0  0  1 V2000
    4.4698   -3.8554    0.0000 N   0  0  0  0  0  0  0  0  0  0  0  0
    3.3255   -3.2103    0.0000 C   0  0  0  0  0  0  0  0  0  0  0  0
    3.3255   -1.9354    0.0000 N   0  0  0  0  0  0  0  0  0  0  0  0
    4.4698   -5.3069    0.0000 C   0  0  0  0  0  0  0  0  0  0  0  0
    5.5987   -3.1949    0.0000 C   0  0  0  0  0  0  0  0  0  0  0  0
    5.5987   -1.9354    0.0000 C   0  0  0  0  0  0  0  0  0  0  0  0
    4.4698   -1.2749    0.0000 C   0  0  0  0  0  0  0  0  0  0  0  0
    3.3715   -4.5159    0.0000 O   0  0  0  0  0  0  0  0  0  0  0  0
    4.0320   -6.5971    0.0000 C   0  0  0  0  0  0  0  0  0  0  0  0
    2.2886   -5.3069    0.0000 C   0  0  0  0  0  0  0  0  0  0  0  0
    2.6957   -6.5971    0.0000 C   0  0  0  0  0  0  0  0  0  0  0  0
    2.2272   -3.8861    0.0000 O   0  0  0  0  0  0  0  0  0  0  0  0
    4.4698    0.0000    0.0000 O   0  0  0  0  0  0  0  0  0  0  0  0
    6.7738   -1.2442    0.0000 C   0  0  0  0  0  0  0  0  0  0  0  0
    1.9046   -7.6800    0.0000 O   0  0  0  0  0  0  0  0  0  0  0  0
    0.9984   -4.8922    0.0000 C   0  0  0  0  0  0  0  0  0  0  0  0
    0.0000   -5.7754    0.0000 O   0  0  0  0  0  0  0  0  0  0  0  0
  1  2  1  0  0  0  0
  4  1  1  1  0  0  0
  1  5  1  0  0  0  0
  2  3  1  0  0  0  0
  2 12  2  0  0  0  0
  3  7  1  0  0  0  0
  4  8  1  0  0  0  0
  4  9  1  0  0  0  0
  5  6  2  0  0  0  0
  6  7  1  0  0  0  0
  6 14  1  0  0  0  0
  7 13  2  0  0  0  0
  8 10  1  0  0  0  0
  9 11  1  0  0  0  0
 10 16  1  1  0  0  0
 10 11  1  0  0  0  0
 11 15  1  6  0  0  0
 16 17  1  0  0  0  0
M  END
> <ID>
3269

> <Formula>
C10H14N2O5

> <FW>
242.2286

> <DSSTox_CID>
3661

> <DSSTox_RID>
77133

> <DSSTox_GSID>
23661

> <DSSTox_FileID_Sort>
1816

> <TS_ChemName>
Thymidine

> <TS_ChemName_Synonyms>


> <TS_CASRN>
50-89-5

> <CASRN_ChemName_Relationship>
primary

> <TS_Description>
single chemical compound

> <ChemNote>
stereochem

> <STRUCTURE_Shown>
tested chemical

> <STRUCTURE_Formula>
C10H14N2O5

> <STRUCTURE_MW>
242.2286

> <STRUCTURE_ChemType>
defined organic

> <STRUCTURE_DefinedOrganicForm>
parent

> <STRUCTURE_IUPAC>
2'-deoxy-3,4-dihydrothymidine

> <STRUCTURE_SMILES>
CC1=CN(C(=O)NC1=O)[C@H]2C[C@H](O)[C@@H](CO)O2

> <STRUCTURE_SMILES_Desalt>
CC1=CN(C(=O)NC1=O)[C@H]2C[C@H](O)[C@@H](CO)O2

> <Substance_modify_yyyymmdd>
20080429

$$$$
