50-99-7
ChemmineR-0915142007XD

 12 12  0  0  1  0  0  0  0  0  1 V2000
    1.3304   -5.7594    0.0000 O   0  0  0  0  0  0  0  0  0  0  0  0
    1.9927   -4.6075    0.0000 C   0  0  0  0  0  0  0  0  0  0  0  0
    1.3304   -3.4556    0.0000 C   0  0  0  0  0  0  0  0  0  0  0  0
    0.0000   -3.4556    0.0000 O   0  0  0  0  0  0  0  0  0  0  0  0
    1.9927   -2.3037    0.0000 C   0  0  0  0  0  0  0  0  0  0  0  0
    1.3304   -1.1519    0.0000 C   0  0  0  0  0  0  0  0  0  0  0  0
    1.9927    0.0000    0.0000 O   0  0  0  0  0  0  0  0  0  0  0  0
    3.3231   -2.3037    0.0000 O   0  0  0  0  0  0  0  0  0  0  0  0
    3.9912   -3.4556    0.0000 C   0  0  0  0  0  0  0  0  0  0  0  0
    5.3216   -3.4556    0.0000 O   0  0  0  0  0  0  0  0  0  0  0  0
    3.3231   -4.6075    0.0000 C   0  0  0  0  0  0  0  0  0  0  0  0
    3.9912   -5.7594    0.0000 O   0  0  0  0  0  0  0  0  0  0  0  0
  2  1  1  1  0  0  0
  2  3  1  0  0  0  0
  2 11  1  0  0  0  0
  3  4  1  6  0  0  0
  3  5  1  0  0  0  0
  5  6  1  1  0  0  0
  5  8  1  0  0  0  0
  6  7  1  0  0  0  0
  8  9  1  0  0  0  0
  9 10  1  0  0  0  0
  9 11  1  0  0  0  0
 11 12  1  6  0  0  0
M  END
> <ID>
2624

> <Formula>
C6H12O6

> <FW>
180.1559

> <DSSTox_CID>
2910

> <DSSTox_RID>
76784

> <DSSTox_GSID>
22910

> <DSSTox_FileID_Sort>
1468

> <TS_ChemName>
D-Glucose

> <TS_ChemName_Synonyms>
D-Glucose (Dextrose)

> <TS_CASRN>
50-99-7

> <CASRN_ChemName_Relationship>
primary

> <TS_Description>
single chemical compound

> <ChemNote>
stereochem

> <STRUCTURE_Shown>
tested chemical

> <STRUCTURE_Formula>
C6H12O6

> <STRUCTURE_MW>
180.1559

> <STRUCTURE_ChemType>
defined organic

> <STRUCTURE_DefinedOrganicForm>
parent

> <STRUCTURE_IUPAC>
D-glucopyranose

> <STRUCTURE_SMILES>
O[C@H]1[C@H](O)[C@@H](CO)OC(O)[C@@H]1O

> <STRUCTURE_SMILES_Desalt>
O[C@H]1[C@H](O)[C@@H](CO)OC(O)[C@@H]1O

> <Substance_modify_yyyymmdd>
20080429

$$$$
