500-38-9
ChemmineR-0915142007XD

 22 23  0  0  0  0  0  0  0  0  1 V2000
    1.1374   -1.9875    0.0000 C   0  0  0  0  0  0  0  0  0  0  0  0
   10.3166   -0.6548    0.0000 C   0  0  0  0  0  0  0  0  0  0  0  0
    1.1374   -0.6548    0.0000 C   0  0  0  0  0  0  0  0  0  0  0  0
   10.3166   -1.9875    0.0000 C   0  0  0  0  0  0  0  0  0  0  0  0
    2.2977   -2.6653    0.0000 C   0  0  0  0  0  0  0  0  0  0  0  0
    9.1793    0.0000    0.0000 C   0  0  0  0  0  0  0  0  0  0  0  0
    8.0419   -0.6548    0.0000 C   0  0  0  0  0  0  0  0  0  0  0  0
    3.4351   -1.9875    0.0000 C   0  0  0  0  0  0  0  0  0  0  0  0
    4.5724   -2.6653    0.0000 C   0  0  0  0  0  0  0  0  0  0  0  0
    6.9046    0.0000    0.0000 C   0  0  0  0  0  0  0  0  0  0  0  0
    5.7327   -1.9875    0.0000 C   0  0  0  0  0  0  0  0  0  0  0  0
    5.7327   -0.6548    0.0000 C   0  0  0  0  0  0  0  0  0  0  0  0
    2.2977    0.0000    0.0000 C   0  0  0  0  0  0  0  0  0  0  0  0
    9.1793   -2.6653    0.0000 C   0  0  0  0  0  0  0  0  0  0  0  0
    8.0419   -1.9875    0.0000 C   0  0  0  0  0  0  0  0  0  0  0  0
    3.4351   -0.6548    0.0000 C   0  0  0  0  0  0  0  0  0  0  0  0
    0.0000   -2.6653    0.0000 O   0  0  0  0  0  0  0  0  0  0  0  0
   11.4885    0.0000    0.0000 O   0  0  0  0  0  0  0  0  0  0  0  0
    0.0000    0.0000    0.0000 O   0  0  0  0  0  0  0  0  0  0  0  0
   11.4885   -2.6653    0.0000 O   0  0  0  0  0  0  0  0  0  0  0  0
    6.9046   -2.6653    0.0000 C   0  0  0  0  0  0  0  0  0  0  0  0
    4.5724    0.0000    0.0000 C   0  0  0  0  0  0  0  0  0  0  0  0
  1  3  2  0  0  0  0
  1  5  1  0  0  0  0
  1 17  1  0  0  0  0
  2  6  2  0  0  0  0
  2 18  1  0  0  0  0
  2  4  1  0  0  0  0
  3 13  1  0  0  0  0
  3 19  1  0  0  0  0
  4 14  2  0  0  0  0
  4 20  1  0  0  0  0
  5  8  2  0  0  0  0
  6  7  1  0  0  0  0
  7 10  1  0  0  0  0
  7 15  2  0  0  0  0
  8  9  1  0  0  0  0
  8 16  1  0  0  0  0
  9 11  1  0  0  0  0
 10 12  1  0  0  0  0
 11 12  1  0  0  0  0
 11 21  1  0  0  0  0
 12 22  1  0  0  0  0
 13 16  2  0  0  0  0
 14 15  1  0  0  0  0
M  END
> <ID>
2226

> <Formula>
C18H22O4

> <FW>
302.3649

> <DSSTox_CID>
2437

> <DSSTox_RID>
76590

> <DSSTox_GSID>
22437

> <DSSTox_FileID_Sort>
1274

> <TS_ChemName>
Nordihydroguaiaretic acid

> <TS_ChemName_Synonyms>


> <TS_CASRN>
500-38-9

> <CASRN_ChemName_Relationship>
primary

> <TS_Description>
single chemical compound

> <ChemNote>


> <STRUCTURE_Shown>
tested chemical

> <STRUCTURE_Formula>
C18H22O4

> <STRUCTURE_MW>
302.3649

> <STRUCTURE_ChemType>
defined organic

> <STRUCTURE_DefinedOrganicForm>
parent

> <STRUCTURE_IUPAC>
4,4'-(2,3-dimethylbutane-1,4-diyl)dibenzene-1,2-diol

> <STRUCTURE_SMILES>
Oc2ccc(CC(C)C(C)Cc1ccc(O)c(O)c1)cc2O

> <STRUCTURE_SMILES_Desalt>
Oc2ccc(CC(C)C(C)Cc1ccc(O)c(O)c1)cc2O

> <Substance_modify_yyyymmdd>
20110526

$$$$
