500-42-5
ChemmineR-0915142007XD

 15 16  0  0  0  0  0  0  0  0  1 V2000
    6.9053   -0.0185    0.0000 N    0  0  0  0  0  0  0  0  0  0  0  0
    5.7606   -0.6739    0.0000 C    0  0  0  0  0  0  0  0  0  0  0  0
    5.7606   -1.9848    0.0000 N    0  0  0  0  0  0  0  0  0  0  0  0
    8.0685   -0.6924    0.0000 C    0  0  0  0  0  0  0  0  0  0  0  0
    8.0685   -2.0033    0.0000 N    0  0  0  0  0  0  0  0  0  0  0  0
    6.9053   -2.6772    0.0000 C    0  0  0  0  0  0  0  0  0  0  0  0
    4.6343    0.0000    0.0000 N    0  0  0  0  0  0  0  0  0  0  0  0
    9.2317   -0.0185    0.0000 N    0  0  0  0  0  0  0  0  0  0  0  0
    3.4711   -0.6739    0.0000 C    0  0  0  0  0  0  0  0  0  0  0  0
    1.1632   -1.9848    0.0000 C    0  0  0  0  0  0  0  0  0  0  0  0
    0.0000   -2.6587    0.0000 Cl   0  0  0  0  0  0  0  0  0  0  0  0
    3.4711   -1.9848    0.0000 C    0  0  0  0  0  0  0  0  0  0  0  0
    2.3264    0.0000    0.0000 C    0  0  0  0  0  0  0  0  0  0  0  0
    2.2895   -2.6587    0.0000 C    0  0  0  0  0  0  0  0  0  0  0  0
    1.1632   -0.6739    0.0000 C    0  0  0  0  0  0  0  0  0  0  0  0
  1  2  2  0  0  0  0
  1  4  1  0  0  0  0
  2  3  1  0  0  0  0
  2  7  1  0  0  0  0
  3  6  2  0  0  0  0
  4  5  2  0  0  0  0
  4  8  1  0  0  0  0
  5  6  1  0  0  0  0
  7  9  1  0  0  0  0
  9 12  1  0  0  0  0
  9 13  2  0  0  0  0
 10 15  2  0  0  0  0
 10 11  1  0  0  0  0
 10 14  1  0  0  0  0
 12 14  2  0  0  0  0
 13 15  1  0  0  0  0
M  END
> <ID>
14010

> <Formula>
C9H8ClN5

> <FW>
221.6463

> <DSSTox_CID>
28952

> <DSSTox_RID>
83217

> <DSSTox_GSID>
49026

> <DSSTox_FileID_Sort>
7893

> <TS_ChemName>
1,3,5-Triazine-2,4-diamine, N2-(4-chlorophenyl)-

> <TS_ChemName_Synonyms>
2-AMINO-4-(4-CHLOROANILINO)-1,3,5-TRIAZINE

> <TS_CASRN>
500-42-5

> <CASRN_ChemName_Relationship>
primary

> <TS_Description>
single chemical compound

> <ChemNote>


> <STRUCTURE_Shown>
tested chemical

> <STRUCTURE_Formula>
C9H8ClN5

> <STRUCTURE_MW>
221.6463

> <STRUCTURE_ChemType>
defined organic

> <STRUCTURE_DefinedOrganicForm>
parent

> <STRUCTURE_IUPAC>
N-(4-chlorophenyl)-1,3,5-triazine-2,4-diamine

> <STRUCTURE_SMILES>
Clc1ccc(cc1)Nc2ncnc(N)n2

> <STRUCTURE_SMILES_Desalt>
Clc1ccc(cc1)Nc2ncnc(N)n2

> <Substance_modify_yyyymmdd>
20111204

$$$$
