500-66-3
ChemmineR-0915142007XD

 13 13  0  0  0  0  0  0  0  0  1 V2000
    0.0000   -3.9917    0.0000 C   0  0  0  0  0  0  0  0  0  0  0  0
    1.1523   -3.3280    0.0000 C   0  0  0  0  0  0  0  0  0  0  0  0
    2.3047   -3.9917    0.0000 C   0  0  0  0  0  0  0  0  0  0  0  0
    3.4570   -3.3280    0.0000 C   0  0  0  0  0  0  0  0  0  0  0  0
    4.6093   -3.9917    0.0000 C   0  0  0  0  0  0  0  0  0  0  0  0
    5.7617   -3.3280    0.0000 C   0  0  0  0  0  0  0  0  0  0  0  0
    5.7617   -2.0005    0.0000 C   0  0  0  0  0  0  0  0  0  0  0  0
    6.9140   -1.3275    0.0000 C   0  0  0  0  0  0  0  0  0  0  0  0
    6.9140    0.0000    0.0000 O   0  0  0  0  0  0  0  0  0  0  0  0
    8.0664   -2.0005    0.0000 C   0  0  0  0  0  0  0  0  0  0  0  0
    8.0664   -3.3280    0.0000 C   0  0  0  0  0  0  0  0  0  0  0  0
    9.2187   -3.9917    0.0000 O   0  0  0  0  0  0  0  0  0  0  0  0
    6.9140   -3.9917    0.0000 C   0  0  0  0  0  0  0  0  0  0  0  0
  1  2  1  0  0  0  0
  2  3  1  0  0  0  0
  3  4  1  0  0  0  0
  4  5  1  0  0  0  0
  5  6  1  0  0  0  0
  6  7  2  0  0  0  0
  6 13  1  0  0  0  0
  7  8  1  0  0  0  0
  8  9  1  0  0  0  0
  8 10  2  0  0  0  0
 10 11  1  0  0  0  0
 11 12  1  0  0  0  0
 11 13  2  0  0  0  0
M  END
> <ID>
4418

> <Formula>
C11H16O2

> <FW>
180.2435

> <DSSTox_CID>
5812

> <DSSTox_RID>
77932

> <DSSTox_GSID>
25812

> <DSSTox_FileID_Sort>
2615

> <TS_ChemName>
Olivetol

> <TS_ChemName_Synonyms>


> <TS_CASRN>
500-66-3

> <CASRN_ChemName_Relationship>
primary

> <TS_Description>
single chemical compound

> <ChemNote>


> <STRUCTURE_Shown>
tested chemical

> <STRUCTURE_Formula>
C11H16O2

> <STRUCTURE_MW>
180.2435

> <STRUCTURE_ChemType>
defined organic

> <STRUCTURE_DefinedOrganicForm>
parent

> <STRUCTURE_IUPAC>
5-pentylbenzene-1,3-diol

> <STRUCTURE_SMILES>
Oc1cc(CCCCC)cc(O)c1

> <STRUCTURE_SMILES_Desalt>
Oc1cc(CCCCC)cc(O)c1

> <Substance_modify_yyyymmdd>
20080429

$$$$
