5003-48-5
ChemmineR-0915142007XD

 23 24  0  0  0  0  0  0  0  0  1 V2000
   10.3630   -3.3192    0.0000 C   0  0  0  0  0  0  0  0  0  0  0  0
   10.3630   -1.9890    0.0000 O   0  0  0  0  0  0  0  0  0  0  0  0
   11.5159   -1.3302    0.0000 C   0  0  0  0  0  0  0  0  0  0  0  0
   12.6688   -1.9890    0.0000 C   0  0  0  0  0  0  0  0  0  0  0  0
   11.5159    0.0000    0.0000 O   0  0  0  0  0  0  0  0  0  0  0  0
   11.5159   -3.9907    0.0000 C   0  0  0  0  0  0  0  0  0  0  0  0
   11.5159   -5.3209    0.0000 C   0  0  0  0  0  0  0  0  0  0  0  0
   10.3630   -5.9797    0.0000 C   0  0  0  0  0  0  0  0  0  0  0  0
    9.2102   -5.3209    0.0000 C   0  0  0  0  0  0  0  0  0  0  0  0
    9.2102   -3.9907    0.0000 C   0  0  0  0  0  0  0  0  0  0  0  0
    8.0573   -3.3192    0.0000 C   0  0  0  0  0  0  0  0  0  0  0  0
    8.0573   -1.9890    0.0000 O   0  0  0  0  0  0  0  0  0  0  0  0
    6.9045   -3.9907    0.0000 O   0  0  0  0  0  0  0  0  0  0  0  0
    5.7643   -3.3192    0.0000 C   0  0  0  0  0  0  0  0  0  0  0  0
    4.6114   -3.9907    0.0000 C   0  0  0  0  0  0  0  0  0  0  0  0
    3.4586   -3.3192    0.0000 C   0  0  0  0  0  0  0  0  0  0  0  0
    3.4586   -1.9890    0.0000 C   0  0  0  0  0  0  0  0  0  0  0  0
    2.3057   -1.3302    0.0000 N   0  0  0  0  0  0  0  0  0  0  0  0
    1.1529   -1.9890    0.0000 C   0  0  0  0  0  0  0  0  0  0  0  0
    0.0000   -1.3302    0.0000 C   0  0  0  0  0  0  0  0  0  0  0  0
    1.1529   -3.3192    0.0000 O   0  0  0  0  0  0  0  0  0  0  0  0
    4.6114   -1.3302    0.0000 C   0  0  0  0  0  0  0  0  0  0  0  0
    5.7643   -1.9890    0.0000 C   0  0  0  0  0  0  0  0  0  0  0  0
  1  2  1  0  0  0  0
  1  6  2  0  0  0  0
  1 10  1  0  0  0  0
  2  3  1  0  0  0  0
  3  4  1  0  0  0  0
  3  5  2  0  0  0  0
  6  7  1  0  0  0  0
  7  8  2  0  0  0  0
  8  9  1  0  0  0  0
  9 10  2  0  0  0  0
 10 11  1  0  0  0  0
 11 12  2  0  0  0  0
 11 13  1  0  0  0  0
 13 14  1  0  0  0  0
 14 15  2  0  0  0  0
 14 23  1  0  0  0  0
 15 16  1  0  0  0  0
 16 17  2  0  0  0  0
 17 18  1  0  0  0  0
 17 22  1  0  0  0  0
 18 19  1  0  0  0  0
 19 20  1  0  0  0  0
 19 21  2  0  0  0  0
 22 23  2  0  0  0  0
M  END
> <ID>
2398

> <Formula>
C17H15NO5

> <FW>
313.3047

> <DSSTox_CID>
2649

> <DSSTox_RID>
76674

> <DSSTox_GSID>
22649

> <DSSTox_FileID_Sort>
1358

> <TS_ChemName>
Benorylate

> <TS_ChemName_Synonyms>


> <TS_CASRN>
5003-48-5

> <CASRN_ChemName_Relationship>
primary

> <TS_Description>
single chemical compound

> <ChemNote>


> <STRUCTURE_Shown>
tested chemical

> <STRUCTURE_Formula>
C17H15NO5

> <STRUCTURE_MW>
313.3047

> <STRUCTURE_ChemType>
defined organic

> <STRUCTURE_DefinedOrganicForm>
parent

> <STRUCTURE_IUPAC>
4-(acetylamino)phenyl 2-(acetyloxy)benzoate

> <STRUCTURE_SMILES>
O=C(C)Oc2ccccc2C(=O)Oc1ccc(NC(C)=O)cc1

> <STRUCTURE_SMILES_Desalt>
O=C(C)Oc2ccccc2C(=O)Oc1ccc(NC(C)=O)cc1

> <Substance_modify_yyyymmdd>
20080429

$$$$
