5006-66-6
ChemmineR-0915142007XD

 10 10  0  0  0  0  0  0  0  0  1 V2000
    1.9922   -5.7577    0.0000 O   0  0  0  0  0  0  0  0  0  0  0  0
    2.6601   -4.6062    0.0000 C   0  0  0  0  0  0  0  0  0  0  0  0
    3.9901   -4.6062    0.0000 O   0  0  0  0  0  0  0  0  0  0  0  0
    1.9922   -3.4546    0.0000 C   0  0  0  0  0  0  0  0  0  0  0  0
    2.6601   -2.3031    0.0000 C   0  0  0  0  0  0  0  0  0  0  0  0
    1.9922   -1.1515    0.0000 N   0  0  0  0  0  0  0  0  0  0  0  0
    0.6621   -1.1515    0.0000 C   0  0  0  0  0  0  0  0  0  0  0  0
    0.0000    0.0000    0.0000 O   0  0  0  0  0  0  0  0  0  0  0  0
    0.0000   -2.3031    0.0000 C   0  0  0  0  0  0  0  0  0  0  0  0
    0.6621   -3.4546    0.0000 C   0  0  0  0  0  0  0  0  0  0  0  0
  1  2  1  0  0  0  0
  2  3  2  0  0  0  0
  2  4  1  0  0  0  0
  4  5  2  0  0  0  0
  4 10  1  0  0  0  0
  5  6  1  0  0  0  0
  6  7  2  0  0  0  0
  7  8  1  0  0  0  0
  7  9  1  0  0  0  0
  9 10  2  0  0  0  0
M  END
> <ID>
16154

> <Formula>
C6H5NO3

> <FW>
139.1088

> <DSSTox_CID>
31543

> <DSSTox_RID>
97428

> <DSSTox_GSID>
57754

> <DSSTox_FileID_Sort>
8495

> <TS_ChemName>
6-Hydroxynicotinic acid

> <TS_ChemName_Synonyms>


> <TS_CASRN>
5006-66-6

> <CASRN_ChemName_Relationship>
primary

> <TS_Description>
single chemical compound

> <ChemNote>


> <STRUCTURE_Shown>
tested chemical

> <STRUCTURE_Formula>
C6H5NO3

> <STRUCTURE_MW>
139.1088

> <STRUCTURE_ChemType>
defined organic

> <STRUCTURE_DefinedOrganicForm>
parent

> <STRUCTURE_IUPAC>
6-oxo-1,6-dihydropyridine-3-carboxylic acid

> <STRUCTURE_SMILES>
OC(=O)c1cnc(O)cc1

> <STRUCTURE_SMILES_Desalt>
OC(=O)c1cnc(O)cc1

> <Substance_modify_yyyymmdd>
20131018

$$$$
