501-53-1
ChemmineR-0915142007XD

 11 11  0  0  0  0  0  0  0  0  1 V2000
    5.7556   -1.3303    0.0000 C    0  0  0  0  0  0  0  0  0  0  0  0
    5.7556    0.0000    0.0000 O    0  0  0  0  0  0  0  0  0  0  0  0
    4.6183   -1.9990    0.0000 O    0  0  0  0  0  0  0  0  0  0  0  0
    6.8929   -1.9990    0.0000 Cl   0  0  0  0  0  0  0  0  0  0  0  0
    3.4465   -1.3303    0.0000 C    0  0  0  0  0  0  0  0  0  0  0  0
    2.2953   -1.9990    0.0000 C    0  0  0  0  0  0  0  0  0  0  0  0
    1.1718   -1.3303    0.0000 C    0  0  0  0  0  0  0  0  0  0  0  0
    2.2953   -3.3293    0.0000 C    0  0  0  0  0  0  0  0  0  0  0  0
    0.0000   -1.9990    0.0000 C    0  0  0  0  0  0  0  0  0  0  0  0
    1.1373   -4.0048    0.0000 C    0  0  0  0  0  0  0  0  0  0  0  0
    0.0000   -3.3293    0.0000 C    0  0  0  0  0  0  0  0  0  0  0  0
  1  2  2  0  0  0  0
  1  3  1  0  0  0  0
  1  4  1  0  0  0  0
  3  5  1  0  0  0  0
  5  6  1  0  0  0  0
  6  7  2  0  0  0  0
  6  8  1  0  0  0  0
  7  9  1  0  0  0  0
  8 10  2  0  0  0  0
  9 11  2  0  0  0  0
 10 11  1  0  0  0  0
M  END
> <ID>
4960

> <Formula>
C8H7ClO2

> <FW>
170.593

> <DSSTox_CID>
7158

> <DSSTox_RID>
78328

> <DSSTox_GSID>
27158

> <DSSTox_FileID_Sort>
3011

> <TS_ChemName>
Benzyl chloroformate

> <TS_ChemName_Synonyms>
Carbonochloridic acid, phenylmethyl ester

> <TS_CASRN>
501-53-1

> <CASRN_ChemName_Relationship>
primary

> <TS_Description>
single chemical compound

> <ChemNote>


> <STRUCTURE_Shown>
tested chemical

> <STRUCTURE_Formula>
C8H7ClO2

> <STRUCTURE_MW>
170.593

> <STRUCTURE_ChemType>
defined organic

> <STRUCTURE_DefinedOrganicForm>
parent

> <STRUCTURE_IUPAC>
benzyl carbonochloridate

> <STRUCTURE_SMILES>
ClC(=O)OCc1ccccc1

> <STRUCTURE_SMILES_Desalt>
ClC(=O)OCc1ccccc1

> <Substance_modify_yyyymmdd>
20080429

$$$$
