501-52-0
ChemmineR-0915142007XD

 11 11  0  0  0  0  0  0  0  0  1 V2000
    5.7638   -1.3237    0.0000 C   0  0  0  0  0  0  0  0  0  0  0  0
    5.7638    0.0000    0.0000 O   0  0  0  0  0  0  0  0  0  0  0  0
    4.6124   -1.9925    0.0000 C   0  0  0  0  0  0  0  0  0  0  0  0
    6.8945   -1.9925    0.0000 O   0  0  0  0  0  0  0  0  0  0  0  0
    3.4610   -1.3237    0.0000 C   0  0  0  0  0  0  0  0  0  0  0  0
    2.2959   -2.0270    0.0000 C   0  0  0  0  0  0  0  0  0  0  0  0
    2.2959   -3.3507    0.0000 C   0  0  0  0  0  0  0  0  0  0  0  0
    1.1514   -1.3513    0.0000 C   0  0  0  0  0  0  0  0  0  0  0  0
    0.0000   -2.0270    0.0000 C   0  0  0  0  0  0  0  0  0  0  0  0
    1.1514   -4.0195    0.0000 C   0  0  0  0  0  0  0  0  0  0  0  0
    0.0000   -3.3507    0.0000 C   0  0  0  0  0  0  0  0  0  0  0  0
  1  2  2  0  0  0  0
  1  3  1  0  0  0  0
  1  4  1  0  0  0  0
  3  5  1  0  0  0  0
  5  6  1  0  0  0  0
  6  7  1  0  0  0  0
  6  8  2  0  0  0  0
  7 10  2  0  0  0  0
  8  9  1  0  0  0  0
  9 11  2  0  0  0  0
 10 11  1  0  0  0  0
M  END
> <ID>
12218

> <Formula>
C9H10O2

> <FW>
150.1745

> <DSSTox_CID>
27064

> <DSSTox_RID>
82080

> <DSSTox_GSID>
47064

> <DSSTox_FileID_Sort>
6761

> <TS_ChemName>
Hydrocinnamic acid

> <TS_ChemName_Synonyms>


> <TS_CASRN>
501-52-0

> <CASRN_ChemName_Relationship>
primary

> <TS_Description>
single chemical compound

> <ChemNote>


> <STRUCTURE_Shown>
tested chemical

> <STRUCTURE_Formula>
C9H10O2

> <STRUCTURE_MW>
150.1745

> <STRUCTURE_ChemType>
defined organic

> <STRUCTURE_DefinedOrganicForm>
parent

> <STRUCTURE_IUPAC>
3-phenylpropanoic acid

> <STRUCTURE_SMILES>
O=C(O)CCc1ccccc1

> <STRUCTURE_SMILES_Desalt>
O=C(O)CCc1ccccc1

> <Substance_modify_yyyymmdd>
20100429

$$$$
