501-36-0
ChemmineR-0915142007XD

 17 18  0  0  0  0  0  0  0  0  1 V2000
   10.2988   -3.9856    0.0000 O   0  0  0  0  0  0  0  0  0  0  0  0
    9.2792   -3.3368    0.0000 C   0  0  0  0  0  0  0  0  0  0  0  0
    5.7982   -4.0474    0.0000 C   0  0  0  0  0  0  0  0  0  0  0  0
    4.6242   -3.3677    0.0000 C   0  0  0  0  0  0  0  0  0  0  0  0
    9.2792   -2.0186    0.0000 C   0  0  0  0  0  0  0  0  0  0  0  0
    6.9723   -3.3368    0.0000 C   0  0  0  0  0  0  0  0  0  0  0  0
    8.0949   -1.3285    0.0000 C   0  0  0  0  0  0  0  0  0  0  0  0
    8.0949   -4.0062    0.0000 C   0  0  0  0  0  0  0  0  0  0  0  0
    3.4810   -4.0474    0.0000 C   0  0  0  0  0  0  0  0  0  0  0  0
    6.9723   -2.0186    0.0000 C   0  0  0  0  0  0  0  0  0  0  0  0
    1.1947   -5.3966    0.0000 C   0  0  0  0  0  0  0  0  0  0  0  0
    8.0949    0.0000    0.0000 O   0  0  0  0  0  0  0  0  0  0  0  0
    2.3378   -3.3677    0.0000 C   0  0  0  0  0  0  0  0  0  0  0  0
    3.4810   -5.3966    0.0000 C   0  0  0  0  0  0  0  0  0  0  0  0
    1.1947   -4.0474    0.0000 C   0  0  0  0  0  0  0  0  0  0  0  0
    2.3378   -6.0351    0.0000 C   0  0  0  0  0  0  0  0  0  0  0  0
    0.0000   -6.0763    0.0000 O   0  0  0  0  0  0  0  0  0  0  0  0
  1  2  1  0  0  0  0
  2  5  1  0  0  0  0
  2  8  2  0  0  0  0
  3  6  1  0  0  0  0
  3  4  2  0  0  0  0
  4  9  1  0  0  0  0
  5  7  2  0  0  0  0
  6  8  1  0  0  0  0
  6 10  2  0  0  0  0
  7 12  1  0  0  0  0
  7 10  1  0  0  0  0
  9 13  1  0  0  0  0
  9 14  2  0  0  0  0
 11 16  2  0  0  0  0
 11 17  1  0  0  0  0
 11 15  1  0  0  0  0
 13 15  2  0  0  0  0
 14 16  1  0  0  0  0
M  END
> <ID>
6373

> <Formula>
C14H12O3

> <FW>
228.2433

> <DSSTox_CID>
11980

> <DSSTox_RID>
78898

> <DSSTox_GSID>
31980

> <DSSTox_FileID_Sort>
3580

> <TS_ChemName>
Resveratrol

> <TS_ChemName_Synonyms>
Prevention 8

> <TS_CASRN>
501-36-0

> <CASRN_ChemName_Relationship>
primary

> <TS_Description>
single chemical compound

> <ChemNote>
stereochem

> <STRUCTURE_Shown>
tested chemical

> <STRUCTURE_Formula>
C14H12O3

> <STRUCTURE_MW>
228.2433

> <STRUCTURE_ChemType>
defined organic

> <STRUCTURE_DefinedOrganicForm>
parent

> <STRUCTURE_IUPAC>
5-[(E)-2-(4-hydroxyphenyl)ethenyl]benzene-1,3-diol

> <STRUCTURE_SMILES>
Oc2cc(/C=C/c1ccc(O)cc1)cc(O)c2

> <STRUCTURE_SMILES_Desalt>
Oc2cc(/C=C/c1ccc(O)cc1)cc(O)c2

> <Substance_modify_yyyymmdd>
20080429

$$$$
