501027-49-2
ChemmineR-0915142007XD

 29 32  0  0  0  0  0  0  0  0  1 V2000
   11.8358   -2.8626    0.0000 C   0  0  0  0  0  0  0  0  0  0  0  0
   12.9735   -2.1837    0.0000 C   0  0  0  0  0  0  0  0  0  0  0  0
   10.6797   -2.1837    0.0000 C   0  0  0  0  0  0  0  0  0  0  0  0
   12.0927   -4.1655    0.0000 C   0  0  0  0  0  0  0  0  0  0  0  0
   13.9644   -3.0828    0.0000 N   0  0  0  0  0  0  0  0  0  0  0  0
   12.9735   -0.8625    0.0000 C   0  0  0  0  0  0  0  0  0  0  0  0
   10.6797   -0.8808    0.0000 C   0  0  0  0  0  0  0  0  0  0  0  0
    9.5237   -2.8626    0.0000 O   0  0  0  0  0  0  0  0  0  0  0  0
   13.4322   -4.3123    0.0000 C   0  0  0  0  0  0  0  0  0  0  0  0
   15.2672   -2.8076    0.0000 C   0  0  0  0  0  0  0  0  0  0  0  0
   11.8358   -0.2019    0.0000 C   0  0  0  0  0  0  0  0  0  0  0  0
    8.3860   -2.1837    0.0000 C   0  0  0  0  0  0  0  0  0  0  0  0
   16.1480   -3.7985    0.0000 C   0  0  0  0  0  0  0  0  0  0  0  0
    7.2299   -2.8626    0.0000 C   0  0  0  0  0  0  0  0  0  0  0  0
    6.0739   -2.1837    0.0000 C   0  0  0  0  0  0  0  0  0  0  0  0
    4.8628   -2.7342    0.0000 N   0  0  0  0  0  0  0  0  0  0  0  0
    5.9271   -0.8808    0.0000 C   0  0  0  0  0  0  0  0  0  0  0  0
    3.9820   -1.7616    0.0000 C   0  0  0  0  0  0  0  0  0  0  0  0
    4.6242   -0.6056    0.0000 O   0  0  0  0  0  0  0  0  0  0  0  0
    6.9180    0.0000    0.0000 C   0  0  0  0  0  0  0  0  0  0  0  0
    2.6424   -1.9084    0.0000 C   0  0  0  0  0  0  0  0  0  0  0  0
    2.0919   -3.1012    0.0000 C   0  0  0  0  0  0  0  0  0  0  0  0
    1.8534   -0.8074    0.0000 C   0  0  0  0  0  0  0  0  0  0  0  0
    0.7891   -3.2480    0.0000 C   0  0  0  0  0  0  0  0  0  0  0  0
    0.5322   -0.9542    0.0000 C   0  0  0  0  0  0  0  0  0  0  0  0
    0.0000   -2.1653    0.0000 C   0  0  0  0  0  0  0  0  0  0  0  0
   17.4509   -3.5232    0.0000 C   0  0  0  0  0  0  0  0  0  0  0  0
   17.8730   -2.2571    0.0000 O   0  0  0  0  0  0  0  0  0  0  0  0
   18.3501   -4.5141    0.0000 O   0  0  0  0  0  0  0  0  0  0  0  0
  1  2  2  0  0  0  0
  1  3  1  0  0  0  0
  1  4  1  0  0  0  0
  2  5  1  0  0  0  0
  2  6  1  0  0  0  0
  3  7  2  0  0  0  0
  3  8  1  0  0  0  0
  4  9  2  0  0  0  0
  5 10  1  0  0  0  0
  5  9  1  0  0  0  0
  6 11  2  0  0  0  0
  7 11  1  0  0  0  0
  8 12  1  0  0  0  0
 10 13  1  0  0  0  0
 12 14  1  0  0  0  0
 13 27  1  0  0  0  0
 14 15  1  0  0  0  0
 15 16  1  0  0  0  0
 15 17  2  0  0  0  0
 16 18  2  0  0  0  0
 17 19  1  0  0  0  0
 17 20  1  0  0  0  0
 18 21  1  0  0  0  0
 18 19  1  0  0  0  0
 21 22  2  0  0  0  0
 21 23  1  0  0  0  0
 22 24  1  0  0  0  0
 23 25  2  0  0  0  0
 24 26  2  0  0  0  0
 25 26  1  0  0  0  0
 27 28  2  0  0  0  0
 27 29  1  0  0  0  0
M  END
> <ID>
12449

> <Formula>
C23H22N2O4

> <FW>
390.4318

> <DSSTox_CID>
27307

> <DSSTox_RID>
82257

> <DSSTox_GSID>
47307

> <DSSTox_FileID_Sort>
6938

> <TS_ChemName>
PharmaCode_333941

> <TS_ChemName_Synonyms>
3-{4-[2-(5-methyl-2-phenyl-1,3-oxazol-4-yl)ethoxy]-1H-indol-1-yl}propanoic acid

> <TS_CASRN>
501027-49-2

> <CASRN_ChemName_Relationship>
primary

> <TS_Description>
single chemical compound

> <ChemNote>
structure provided by Pfizer C14 labelled

> <STRUCTURE_Shown>
tested chemical

> <STRUCTURE_Formula>
C23H22N2O4

> <STRUCTURE_MW>
390.4318

> <STRUCTURE_ChemType>
defined organic

> <STRUCTURE_DefinedOrganicForm>
parent

> <STRUCTURE_IUPAC>
3-{4-[2-(5-methyl-2-phenyl-1,3-oxazol-4-yl)ethoxy]-1H-indol-1-yl}propanoic acid

> <STRUCTURE_SMILES>
O=C(O)CCn4ccc3c4cccc3OCCc1nc(oc1C)c2ccccc2

> <STRUCTURE_SMILES_Desalt>
O=C(O)CCn4ccc3c4cccc3OCCc1nc(oc1C)c2ccccc2

> <Substance_modify_yyyymmdd>
20130910

$$$$
