502-61-4
ChemmineR-0915142007XD

 15 14  0  0  0  0  0  0  0  0  1 V2000
   10.3141   -0.6675    0.0000 C   0  0  0  0  0  0  0  0  0  0  0  0
   11.4475    0.0000    0.0000 C   0  0  0  0  0  0  0  0  0  0  0  0
    5.7175   -0.6675    0.0000 C   0  0  0  0  0  0  0  0  0  0  0  0
    9.1681    0.0000    0.0000 C   0  0  0  0  0  0  0  0  0  0  0  0
    1.1460   -0.6675    0.0000 C   0  0  0  0  0  0  0  0  0  0  0  0
    6.8761    0.0000    0.0000 C   0  0  0  0  0  0  0  0  0  0  0  0
    2.2794    0.0000    0.0000 C   0  0  0  0  0  0  0  0  0  0  0  0
   12.5935   -0.6675    0.0000 C   0  0  0  0  0  0  0  0  0  0  0  0
    8.0221   -0.6675    0.0000 C   0  0  0  0  0  0  0  0  0  0  0  0
    3.4254   -0.6675    0.0000 C   0  0  0  0  0  0  0  0  0  0  0  0
    4.5714    0.0000    0.0000 C   0  0  0  0  0  0  0  0  0  0  0  0
   10.3141   -2.0150    0.0000 C   0  0  0  0  0  0  0  0  0  0  0  0
    1.1460   -2.0150    0.0000 C   0  0  0  0  0  0  0  0  0  0  0  0
    0.0000    0.0000    0.0000 C   0  0  0  0  0  0  0  0  0  0  0  0
    5.7175   -2.0150    0.0000 C   0  0  0  0  0  0  0  0  0  0  0  0
  1  2  1  0  0  0  0
  1  4  2  0  0  0  0
  1 12  1  0  0  0  0
  2  8  2  0  0  0  0
  3  6  2  0  0  0  0
  3 11  1  0  0  0  0
  3 15  1  0  0  0  0
  4  9  1  0  0  0  0
  5  7  2  0  0  0  0
  5 13  1  0  0  0  0
  5 14  1  0  0  0  0
  6  9  1  0  0  0  0
  7 10  1  0  0  0  0
 10 11  1  0  0  0  0
M  END
> <ID>
12348

> <Formula>
C15H24

> <FW>
204.3511

> <DSSTox_CID>
27202

> <DSSTox_RID>
82197

> <DSSTox_GSID>
47202

> <DSSTox_FileID_Sort>
6878

> <TS_ChemName>
alpha-Farnesene

> <TS_ChemName_Synonyms>


> <TS_CASRN>
502-61-4

> <CASRN_ChemName_Relationship>
primary

> <TS_Description>
single chemical compound

> <ChemNote>
stereochem

> <STRUCTURE_Shown>
tested chemical

> <STRUCTURE_Formula>
C15H24

> <STRUCTURE_MW>
204.3511

> <STRUCTURE_ChemType>
defined organic

> <STRUCTURE_DefinedOrganicForm>
parent

> <STRUCTURE_IUPAC>
(3E,6E)-3,7,11-trimethyldodeca-1,3,6,10-tetraene

> <STRUCTURE_SMILES>
C/C(C)=C\CCC(\C)=C\C\C=C(/C)C=C

> <STRUCTURE_SMILES_Desalt>
C/C(C)=C\CCC(\C)=C\C\C=C(/C)C=C

> <Substance_modify_yyyymmdd>
20100503

$$$$
