502-85-2
ChemmineR-0915142007XD

  8  6  0  0  0  0  0  0  0  0  2 V2000
    4.6160   -1.3334    0.0000 C    0  0  0  0  0  0  0  0  0  0  0  0
    5.7870   -1.9899    0.0000 O    0  5  0  0  0  0  0  0  0  0  0  0
    4.6160    0.0000    0.0000 O    0  0  0  0  0  0  0  0  0  0  0  0
    0.0000   -1.3469    0.0000 O    0  0  0  0  0  0  0  0  0  0  0  0
    3.4654   -1.9899    0.0000 C    0  0  0  0  0  0  0  0  0  0  0  0
    1.1574   -1.9899    0.0000 C    0  0  0  0  0  0  0  0  0  0  0  0
    2.3283   -1.3334    0.0000 C    0  0  0  0  0  0  0  0  0  0  0  0
    6.7684   -0.2572    0.0000 Na   0  3  0  0  0  0  0  0  0  0  0  0
  1  2  1  0  0  0  0
  1  3  2  0  0  0  0
  1  5  1  0  0  0  0
  4  6  1  0  0  0  0
  5  7  1  0  0  0  0
  6  7  1  0  0  0  0
M  END
> <ID>
13929

> <Formula>
C4H7NaO3

> <FW>
126.0863 (103.0971+22.9892)

> <DSSTox_CID>
28866

> <DSSTox_RID>
83135

> <DSSTox_GSID>
48940

> <DSSTox_FileID_Sort>
7812

> <TS_ChemName>
Sodium 4-hydroxybutanoate

> <TS_ChemName_Synonyms>
?-Hydroxybutyric Acid, Sodium Salt

> <TS_CASRN>
502-85-2

> <CASRN_ChemName_Relationship>
primary

> <TS_Description>
single chemical compound

> <ChemNote>


> <STRUCTURE_Shown>
tested chemical

> <STRUCTURE_Formula>
C4H7NaO3

> <STRUCTURE_MW>
126.0863

> <STRUCTURE_ChemType>
defined organic

> <STRUCTURE_DefinedOrganicForm>
salt

> <STRUCTURE_IUPAC>
sodium 4-hydroxybutanoate

> <STRUCTURE_SMILES>
[Na+].[O-]C(=O)CCCO

> <STRUCTURE_SMILES_Desalt>
O=C(O)CCCO

> <Substance_modify_yyyymmdd>
20111204

$$$$
