502-72-7
ChemmineR-0915142007XD

 16 16  0  0  0  0  0  0  0  0  1 V2000
    2.9026   -4.6328    0.0000 C   0  0  0  0  0  0  0  0  0  0  0  0
    0.3739   -1.3119    0.0000 C   0  0  0  0  0  0  0  0  0  0  0  0
    1.8316   -5.4440    0.0000 C   0  0  0  0  0  0  0  0  0  0  0  0
    0.0000   -2.6048    0.0000 C   0  0  0  0  0  0  0  0  0  0  0  0
    0.7288   -4.6835    0.0000 C   0  0  0  0  0  0  0  0  0  0  0  0
    1.0711   -3.3716    0.0000 C   0  0  0  0  0  0  0  0  0  0  0  0
    4.0054   -5.3933    0.0000 C   0  0  0  0  0  0  0  0  0  0  0  0
    5.0891   -4.5504    0.0000 C   0  0  0  0  0  0  0  0  0  0  0  0
    1.7175   -1.2612    0.0000 C   0  0  0  0  0  0  0  0  0  0  0  0
    2.1548   -0.0127    0.0000 C   0  0  0  0  0  0  0  0  0  0  0  0
    4.6708   -3.2892    0.0000 C   0  0  0  0  0  0  0  0  0  0  0  0
    5.6722   -2.4590    0.0000 C   0  0  0  0  0  0  0  0  0  0  0  0
    3.4540    0.0000    0.0000 C   0  0  0  0  0  0  0  0  0  0  0  0
    3.9040   -1.2295    0.0000 C   0  0  0  0  0  0  0  0  0  0  0  0
    5.2222   -1.2295    0.0000 C   0  0  0  0  0  0  0  0  0  0  0  0
    6.3376   -0.5007    0.0000 O   0  0  0  0  0  0  0  0  0  0  0  0
  1  3  1  0  0  0  0
  1  7  1  0  0  0  0
  2  4  1  0  0  0  0
  2  9  1  0  0  0  0
  3  5  1  0  0  0  0
  4  6  1  0  0  0  0
  5  6  1  0  0  0  0
  7  8  1  0  0  0  0
  8 11  1  0  0  0  0
  9 10  1  0  0  0  0
 10 13  1  0  0  0  0
 11 12  1  0  0  0  0
 12 15  1  0  0  0  0
 13 14  1  0  0  0  0
 14 15  1  0  0  0  0
 15 16  2  0  0  0  0
M  END
> <ID>
12291

> <Formula>
C15H28O

> <FW>
224.3822

> <DSSTox_CID>
27141

> <DSSTox_RID>
82148

> <DSSTox_GSID>
47141

> <DSSTox_FileID_Sort>
6829

> <TS_ChemName>
Cyclopentadecanone

> <TS_ChemName_Synonyms>


> <TS_CASRN>
502-72-7

> <CASRN_ChemName_Relationship>
primary

> <TS_Description>
single chemical compound

> <ChemNote>


> <STRUCTURE_Shown>
tested chemical

> <STRUCTURE_Formula>
C15H28O

> <STRUCTURE_MW>
224.3822

> <STRUCTURE_ChemType>
defined organic

> <STRUCTURE_DefinedOrganicForm>
parent

> <STRUCTURE_IUPAC>
cyclopentadecanone

> <STRUCTURE_SMILES>
O=C1CCCCCCCCCCCCCC1

> <STRUCTURE_SMILES_Desalt>
O=C1CCCCCCCCCCCCCC1

> <Substance_modify_yyyymmdd>
20100502

$$$$
