502-54-5
ChemmineR-0915142007XD

 15 14  0  0  0  0  0  0  0  0  1 V2000
    8.0786   -1.3280    0.0000 C   0  0  0  0  0  0  0  0  0  0  0  0
    8.0786    0.0000    0.0000 O   0  0  0  0  0  0  0  0  0  0  0  0
    9.2268   -1.9920    0.0000 O   0  0  0  0  0  0  0  0  0  0  0  0
    6.9166   -1.9920    0.0000 C   0  0  0  0  0  0  0  0  0  0  0  0
    5.7546   -1.3280    0.0000 C   0  0  0  0  0  0  0  0  0  0  0  0
    2.3101   -1.9920    0.0000 C   0  0  0  0  0  0  0  0  0  0  0  0
    1.1620   -1.3280    0.0000 C   0  0  0  0  0  0  0  0  0  0  0  0
    0.0000   -1.9920    0.0000 C   0  0  0  0  0  0  0  0  0  0  0  0
    4.6065   -1.9920    0.0000 C   0  0  0  0  0  0  0  0  0  0  0  0
    3.4445   -1.3280    0.0000 C   0  0  0  0  0  0  0  0  0  0  0  0
   10.3888   -1.3280    0.0000 C   0  0  0  0  0  0  0  0  0  0  0  0
   11.5369   -1.9920    0.0000 C   0  0  0  0  0  0  0  0  0  0  0  0
   12.6989   -1.3280    0.0000 C   0  0  0  0  0  0  0  0  0  0  0  0
   11.5369   -3.3200    0.0000 O   0  0  0  0  0  0  0  0  0  0  0  0
   13.8332   -1.9920    0.0000 O   0  0  0  0  0  0  0  0  0  0  0  0
  1  2  2  0  0  0  0
  1  3  1  0  0  0  0
  1  4  1  0  0  0  0
  3 11  1  0  0  0  0
  4  5  1  0  0  0  0
  5  9  1  0  0  0  0
  6 10  1  0  0  0  0
  6  7  1  0  0  0  0
  7  8  1  0  0  0  0
  9 10  1  0  0  0  0
 11 12  1  0  0  0  0
 12 13  1  0  0  0  0
 12 14  1  0  0  0  0
 13 15  1  0  0  0  0
M  END
> <ID>
8940

> <Formula>
C11H22O4

> <FW>
218.29

> <DSSTox_CID>
22006

> <DSSTox_RID>
82754

> <DSSTox_GSID>
48383

> <DSSTox_FileID_Sort>
7431

> <TS_ChemName>
2,3-Dihydroxypropyl octanoate

> <TS_ChemName_Synonyms>
Monooctanoin

> <TS_CASRN>
502-54-5

> <CASRN_ChemName_Relationship>
primary

> <TS_Description>
single chemical compound

> <ChemNote>


> <STRUCTURE_Shown>
tested chemical

> <STRUCTURE_Formula>
C11H22O4

> <STRUCTURE_MW>
218.29

> <STRUCTURE_ChemType>
defined organic

> <STRUCTURE_DefinedOrganicForm>
parent

> <STRUCTURE_IUPAC>
2,3-dihydroxypropyl octanoate

> <STRUCTURE_SMILES>
OCC(O)COC(=O)CCCCCCC

> <STRUCTURE_SMILES_Desalt>
OCC(O)COC(=O)CCCCCCC

> <Substance_modify_yyyymmdd>
20110813

$$$$
