502-55-6
ChemmineR-0915142007XD

 12 11  0  0  0  0  0  0  0  0  1 V2000
    3.4553   -1.9879    0.0000 C   0  0  0  0  0  0  0  0  0  0  0  0
    6.9315   -1.3322    0.0000 C   0  0  0  0  0  0  0  0  0  0  0  0
    4.6314   -1.3426    0.0000 S   0  0  0  0  0  0  0  0  0  0  0  0
    5.7763   -1.9879    0.0000 S   0  0  0  0  0  0  0  0  0  0  0  0
    3.4553   -3.3305    0.0000 S   0  0  0  0  0  0  0  0  0  0  0  0
    6.9315    0.0000    0.0000 S   0  0  0  0  0  0  0  0  0  0  0  0
    8.0868   -1.9879    0.0000 O   0  0  0  0  0  0  0  0  0  0  0  0
    2.3105   -1.3426    0.0000 O   0  0  0  0  0  0  0  0  0  0  0  0
    1.1865   -2.0295    0.0000 C   0  0  0  0  0  0  0  0  0  0  0  0
    9.2420   -1.3322    0.0000 C   0  0  0  0  0  0  0  0  0  0  0  0
    0.0000   -1.3946    0.0000 C   0  0  0  0  0  0  0  0  0  0  0  0
   10.4077   -1.9879    0.0000 C   0  0  0  0  0  0  0  0  0  0  0  0
  1  3  1  0  0  0  0
  1  5  2  0  0  0  0
  1  8  1  0  0  0  0
  2  4  1  0  0  0  0
  2  6  2  0  0  0  0
  2  7  1  0  0  0  0
  3  4  1  0  0  0  0
  7 10  1  0  0  0  0
  8  9  1  0  0  0  0
  9 11  1  0  0  0  0
 10 12  1  0  0  0  0
M  END
> <ID>
8628

> <Formula>
C6H10O2S4

> <FW>
242.4024

> <DSSTox_CID>
21672

> <DSSTox_RID>
79812

> <DSSTox_GSID>
41672

> <DSSTox_FileID_Sort>
4494

> <TS_ChemName>
Bis(ethylxanthogen)

> <TS_ChemName_Synonyms>


> <TS_CASRN>
502-55-6

> <CASRN_ChemName_Relationship>
primary

> <TS_Description>
single chemical compound

> <ChemNote>


> <STRUCTURE_Shown>
tested chemical

> <STRUCTURE_Formula>
C6H10O2S4

> <STRUCTURE_MW>
242.4024

> <STRUCTURE_ChemType>
defined organic

> <STRUCTURE_DefinedOrganicForm>
parent

> <STRUCTURE_IUPAC>
1,1'-[disulfanediylbis(carbonothioyloxy)]diethane

> <STRUCTURE_SMILES>
CCOC(=S)SSC(=S)OCC

> <STRUCTURE_SMILES_Desalt>
CCOC(=S)SSC(=S)OCC

> <Substance_modify_yyyymmdd>
20080825

$$$$
