502-65-8
ChemmineR-0915142007XD

 40 39  0  0  0  0  0  0  0  0  1 V2000
    3.4089   -4.0382    0.0000 C   0  0  0  0  0  0  0  0  0  0  0  0
   22.7869   -4.6937    0.0000 C   0  0  0  0  0  0  0  0  0  0  0  0
    7.9977   -4.0382    0.0000 C   0  0  0  0  0  0  0  0  0  0  0  0
   18.2243   -4.6937    0.0000 C   0  0  0  0  0  0  0  0  0  0  0  0
    5.6639   -4.0382    0.0000 C   0  0  0  0  0  0  0  0  0  0  0  0
   20.5056   -4.6937    0.0000 C   0  0  0  0  0  0  0  0  0  0  0  0
   10.2528   -4.0382    0.0000 C   0  0  0  0  0  0  0  0  0  0  0  0
   15.9167   -4.6937    0.0000 C   0  0  0  0  0  0  0  0  0  0  0  0
   21.6331   -4.0382    0.0000 C   0  0  0  0  0  0  0  0  0  0  0  0
    4.5364   -4.6937    0.0000 C   0  0  0  0  0  0  0  0  0  0  0  0
    6.8439   -4.6937    0.0000 C   0  0  0  0  0  0  0  0  0  0  0  0
   19.3780   -4.0382    0.0000 C   0  0  0  0  0  0  0  0  0  0  0  0
    9.1252   -4.6937    0.0000 C   0  0  0  0  0  0  0  0  0  0  0  0
   17.0443   -4.0382    0.0000 C   0  0  0  0  0  0  0  0  0  0  0  0
    2.2813   -4.6937    0.0000 C   0  0  0  0  0  0  0  0  0  0  0  0
   23.9669   -4.0382    0.0000 C   0  0  0  0  0  0  0  0  0  0  0  0
   11.3541   -4.6937    0.0000 C   0  0  0  0  0  0  0  0  0  0  0  0
   14.7630   -4.0382    0.0000 C   0  0  0  0  0  0  0  0  0  0  0  0
   12.5079   -4.0382    0.0000 C   0  0  0  0  0  0  0  0  0  0  0  0
   13.6092   -4.6937    0.0000 C   0  0  0  0  0  0  0  0  0  0  0  0
    1.1538   -4.0382    0.0000 C   0  0  0  0  0  0  0  0  0  0  0  0
   25.1206   -4.6937    0.0000 C   0  0  0  0  0  0  0  0  0  0  0  0
    1.1538   -7.9977    0.0000 C   0  0  0  0  0  0  0  0  0  0  0  0
   25.0944   -0.6555    0.0000 C   0  0  0  0  0  0  0  0  0  0  0  0
    1.1538   -6.6604    0.0000 C   0  0  0  0  0  0  0  0  0  0  0  0
   25.0944   -1.9929    0.0000 C   0  0  0  0  0  0  0  0  0  0  0  0
    0.0000   -6.0048    0.0000 C   0  0  0  0  0  0  0  0  0  0  0  0
   26.2220   -2.6222    0.0000 C   0  0  0  0  0  0  0  0  0  0  0  0
    0.0000   -4.6937    0.0000 C   0  0  0  0  0  0  0  0  0  0  0  0
   26.2220   -4.0382    0.0000 C   0  0  0  0  0  0  0  0  0  0  0  0
    5.6639   -2.5435    0.0000 C   0  0  0  0  0  0  0  0  0  0  0  0
   20.5056   -6.0048    0.0000 C   0  0  0  0  0  0  0  0  0  0  0  0
   10.2528   -2.6222    0.0000 C   0  0  0  0  0  0  0  0  0  0  0  0
   15.9167   -6.0048    0.0000 C   0  0  0  0  0  0  0  0  0  0  0  0
    2.2813   -8.6532    0.0000 C   0  0  0  0  0  0  0  0  0  0  0  0
   23.9406    0.0000    0.0000 C   0  0  0  0  0  0  0  0  0  0  0  0
   26.2220    0.0000    0.0000 C   0  0  0  0  0  0  0  0  0  0  0  0
    0.0000   -8.6532    0.0000 C   0  0  0  0  0  0  0  0  0  0  0  0
   25.1206   -6.0048    0.0000 C   0  0  0  0  0  0  0  0  0  0  0  0
    1.1538   -2.5435    0.0000 C   0  0  0  0  0  0  0  0  0  0  0  0
  1 10  2  0  0  0  0
  1 15  1  0  0  0  0
  2  9  2  0  0  0  0
  2 16  1  0  0  0  0
  3 11  1  0  0  0  0
  3 13  2  0  0  0  0
  4 14  2  0  0  0  0
  4 12  1  0  0  0  0
  5 10  1  0  0  0  0
  5 11  2  0  0  0  0
  5 31  1  0  0  0  0
  6 12  2  0  0  0  0
  6  9  1  0  0  0  0
  6 32  1  0  0  0  0
  7 13  1  0  0  0  0
  7 17  2  0  0  0  0
  7 33  1  0  0  0  0
  8 18  2  0  0  0  0
  8 14  1  0  0  0  0
  8 34  1  0  0  0  0
 15 21  2  0  0  0  0
 16 22  2  0  0  0  0
 17 19  1  0  0  0  0
 18 20  1  0  0  0  0
 19 20  2  0  0  0  0
 21 29  1  0  0  0  0
 21 40  1  0  0  0  0
 22 30  1  0  0  0  0
 22 39  1  0  0  0  0
 23 25  2  0  0  0  0
 23 35  1  0  0  0  0
 23 38  1  0  0  0  0
 24 26  2  0  0  0  0
 24 36  1  0  0  0  0
 24 37  1  0  0  0  0
 25 27  1  0  0  0  0
 26 28  1  0  0  0  0
 27 29  1  0  0  0  0
 28 30  1  0  0  0  0
M  END
> <ID>
11815

> <Formula>
C40H56

> <FW>
536.8726

> <DSSTox_CID>
26593

> <DSSTox_RID>
81750

> <DSSTox_GSID>
46593

> <DSSTox_FileID_Sort>
6431

> <TS_ChemName>
Lycopene

> <TS_ChemName_Synonyms>


> <TS_CASRN>
502-65-8

> <CASRN_ChemName_Relationship>
primary

> <TS_Description>
single chemical compound

> <ChemNote>
stereochem

> <STRUCTURE_Shown>
tested chemical

> <STRUCTURE_Formula>
C40H56

> <STRUCTURE_MW>
536.8726

> <STRUCTURE_ChemType>
defined organic

> <STRUCTURE_DefinedOrganicForm>
parent

> <STRUCTURE_IUPAC>
psi,psi-carotene

> <STRUCTURE_SMILES>
C/C(C)=C\CCC(\C)=C\C=C\C(\C)=C\C=C\C(\C)=C\C=C\C=C(/C)\C=C\C=C(/C)\C=C\C=C(/C)CC\C=C(/C)C

> <STRUCTURE_SMILES_Desalt>
C/C(C)=C\CCC(\C)=C\C=C\C(\C)=C\C=C\C(\C)=C\C=C\C=C(/C)\C=C\C=C(/C)\C=C\C=C(/C)CC\C=C(/C)C

> <Substance_modify_yyyymmdd>
20110810

$$$$
