502-47-6
ChemmineR-0915142007XD

 12 11  0  0  0  0  0  0  0  0  1 V2000
    8.1066   -0.6485    0.0000 C   0  0  0  0  0  0  0  0  0  0  0  0
    9.2647    0.0000    0.0000 O   0  0  0  0  0  0  0  0  0  0  0  0
    1.1581   -0.7134    0.0000 C   0  0  0  0  0  0  0  0  0  0  0  0
    2.3254   -0.0371    0.0000 C   0  0  0  0  0  0  0  0  0  0  0  0
    6.9393    0.0000    0.0000 C   0  0  0  0  0  0  0  0  0  0  0  0
    8.1066   -1.9734    0.0000 O   0  0  0  0  0  0  0  0  0  0  0  0
    3.4835   -0.6856    0.0000 C   0  0  0  0  0  0  0  0  0  0  0  0
    5.7812   -0.6671    0.0000 C   0  0  0  0  0  0  0  0  0  0  0  0
    0.0000   -0.0556    0.0000 C   0  0  0  0  0  0  0  0  0  0  0  0
    1.1581   -2.0382    0.0000 C   0  0  0  0  0  0  0  0  0  0  0  0
    4.6509   -0.0371    0.0000 C   0  0  0  0  0  0  0  0  0  0  0  0
    5.7812   -2.0104    0.0000 C   0  0  0  0  0  0  0  0  0  0  0  0
  1  2  2  0  0  0  0
  1  5  1  0  0  0  0
  1  6  1  0  0  0  0
  3  4  2  0  0  0  0
  3  9  1  0  0  0  0
  3 10  1  0  0  0  0
  4  7  1  0  0  0  0
  5  8  1  0  0  0  0
  7 11  1  0  0  0  0
  8 11  1  0  0  0  0
  8 12  1  0  0  0  0
M  END
> <ID>
12256

> <Formula>
C10H18O2

> <FW>
170.2487

> <DSSTox_CID>
27106

> <DSSTox_RID>
82116

> <DSSTox_GSID>
47106

> <DSSTox_FileID_Sort>
6797

> <TS_ChemName>
Citronellic acid

> <TS_ChemName_Synonyms>


> <TS_CASRN>
502-47-6

> <CASRN_ChemName_Relationship>
primary

> <TS_Description>
single chemical compound

> <ChemNote>


> <STRUCTURE_Shown>
tested chemical

> <STRUCTURE_Formula>
C10H18O2

> <STRUCTURE_MW>
170.2487

> <STRUCTURE_ChemType>
defined organic

> <STRUCTURE_DefinedOrganicForm>
parent

> <STRUCTURE_IUPAC>
3,7-dimethyloct-6-enoic acid

> <STRUCTURE_SMILES>
O=C(O)CC(C)CC\C=C(/C)C

> <STRUCTURE_SMILES_Desalt>
O=C(O)CC(C)CC\C=C(/C)C

> <Substance_modify_yyyymmdd>
20100429

$$$$
