502-44-3
ChemmineR-0915142007XD

  8  8  0  0  0  0  0  0  0  0  1 V2000
    1.8688    0.0000    0.0000 O   0  0  0  0  0  0  0  0  0  0  0  0
    2.8748   -0.8628    0.0000 C   0  0  0  0  0  0  0  0  0  0  0  0
    2.8748   -2.2041    0.0000 C   0  0  0  0  0  0  0  0  0  0  0  0
    1.8688   -3.0016    0.0000 C   0  0  0  0  0  0  0  0  0  0  0  0
    0.5930   -2.7480    0.0000 C   0  0  0  0  0  0  0  0  0  0  0  0
    0.0000   -1.5171    0.0000 C   0  0  0  0  0  0  0  0  0  0  0  0
    0.5930   -0.2699    0.0000 C   0  0  0  0  0  0  0  0  0  0  0  0
    4.0893   -0.3026    0.0000 O   0  0  0  0  0  0  0  0  0  0  0  0
  1  2  1  0  0  0  0
  1  7  1  0  0  0  0
  2  3  1  0  0  0  0
  2  8  2  0  0  0  0
  3  4  1  0  0  0  0
  4  5  1  0  0  0  0
  5  6  1  0  0  0  0
  6  7  1  0  0  0  0
M  END
> <ID>
4961

> <Formula>
C6H10O2

> <FW>
114.1424

> <DSSTox_CID>
7159

> <DSSTox_RID>
78329

> <DSSTox_GSID>
27159

> <DSSTox_FileID_Sort>
3012

> <TS_ChemName>
2-Oxepanone

> <TS_ChemName_Synonyms>


> <TS_CASRN>
502-44-3

> <CASRN_ChemName_Relationship>
primary

> <TS_Description>
single chemical compound

> <ChemNote>


> <STRUCTURE_Shown>
tested chemical

> <STRUCTURE_Formula>
C6H10O2

> <STRUCTURE_MW>
114.1424

> <STRUCTURE_ChemType>
defined organic

> <STRUCTURE_DefinedOrganicForm>
parent

> <STRUCTURE_IUPAC>
oxepan-2-one

> <STRUCTURE_SMILES>
O=C1CCCCCO1

> <STRUCTURE_SMILES_Desalt>
O=C1CCCCCO1

> <Substance_modify_yyyymmdd>
20080429

$$$$
