50264-69-2
ChemmineR-0915142007XD

 21 23  0  0  0  0  0  0  0  0  1 V2000
    6.4864    0.0000    0.0000 O    0  0  0  0  0  0  0  0  0  0  0  0
    7.4750   -0.8877    0.0000 C    0  0  0  0  0  0  0  0  0  0  0  0
    8.7461   -0.4741    0.0000 O    0  0  0  0  0  0  0  0  0  0  0  0
    7.2027   -2.1890    0.0000 C    0  0  0  0  0  0  0  0  0  0  0  0
    5.9921   -2.7338    0.0000 N    0  0  0  0  0  0  0  0  0  0  0  0
    6.1233   -4.0553    0.0000 N    0  0  0  0  0  0  0  0  0  0  0  0
    7.4246   -4.3277    0.0000 C    0  0  0  0  0  0  0  0  0  0  0  0
    8.0904   -3.1777    0.0000 C    0  0  0  0  0  0  0  0  0  0  0  0
    9.4220   -3.1777    0.0000 C    0  0  0  0  0  0  0  0  0  0  0  0
   10.0878   -4.3277    0.0000 C    0  0  0  0  0  0  0  0  0  0  0  0
    9.4220   -5.4777    0.0000 C    0  0  0  0  0  0  0  0  0  0  0  0
    8.0904   -5.4777    0.0000 C    0  0  0  0  0  0  0  0  0  0  0  0
    5.1347   -4.9430    0.0000 C    0  0  0  0  0  0  0  0  0  0  0  0
    3.8535   -4.6000    0.0000 C    0  0  0  0  0  0  0  0  0  0  0  0
    2.9154   -5.5382    0.0000 C    0  0  0  0  0  0  0  0  0  0  0  0
    1.6241   -5.1952    0.0000 C    0  0  0  0  0  0  0  0  0  0  0  0
    1.2811   -3.9141    0.0000 C    0  0  0  0  0  0  0  0  0  0  0  0
    2.2294   -2.9658    0.0000 C    0  0  0  0  0  0  0  0  0  0  0  0
    3.5105   -3.3088    0.0000 C    0  0  0  0  0  0  0  0  0  0  0  0
    4.4487   -2.3706    0.0000 Cl   0  0  0  0  0  0  0  0  0  0  0  0
    0.0000   -3.5610    0.0000 Cl   0  0  0  0  0  0  0  0  0  0  0  0
  1  2  1  0  0  0  0
  2  3  2  0  0  0  0
  2  4  1  0  0  0  0
  4  5  2  0  0  0  0
  4  8  1  0  0  0  0
  5  6  1  0  0  0  0
  6  7  1  0  0  0  0
  6 13  1  0  0  0  0
  7  8  2  0  0  0  0
  7 12  1  0  0  0  0
  8  9  1  0  0  0  0
  9 10  2  0  0  0  0
 10 11  1  0  0  0  0
 11 12  2  0  0  0  0
 13 14  1  0  0  0  0
 14 15  2  0  0  0  0
 14 19  1  0  0  0  0
 15 16  1  0  0  0  0
 16 17  2  0  0  0  0
 17 18  1  0  0  0  0
 17 21  1  0  0  0  0
 18 19  2  0  0  0  0
 19 20  1  0  0  0  0
M  END
> <ID>
751

> <Formula>
C15H10Cl2N2O2

> <FW>
321.1581

> <DSSTox_CID>
782

> <DSSTox_RID>
75787

> <DSSTox_GSID>
20782

> <DSSTox_FileID_Sort>
471

> <TS_ChemName>
Lonidamine

> <TS_ChemName_Synonyms>


> <TS_CASRN>
50264-69-2

> <CASRN_ChemName_Relationship>
primary

> <TS_Description>
single chemical compound

> <ChemNote>


> <STRUCTURE_Shown>
tested chemical

> <STRUCTURE_Formula>
C15H10Cl2N2O2

> <STRUCTURE_MW>
321.1581

> <STRUCTURE_ChemType>
defined organic

> <STRUCTURE_DefinedOrganicForm>
parent

> <STRUCTURE_IUPAC>
1-(2,4-dichlorobenzyl)-1H-indazole-3-carboxylic acid

> <STRUCTURE_SMILES>
O=C(O)c3nn(Cc1ccc(Cl)cc1Cl)c2ccccc23

> <STRUCTURE_SMILES_Desalt>
O=C(O)c3nn(Cc1ccc(Cl)cc1Cl)c2ccccc23

> <Substance_modify_yyyymmdd>
20080429

$$$$
