503-30-0
ChemmineR-0915142007XD

  4  4  0  0  0  0  0  0  0  0  1 V2000
      1.33     -1.33      0.00 C   0  0  0  0  0  0  0  0  0  0  0  0
      0.00     -1.33      0.00 C   0  0  0  0  0  0  0  0  0  0  0  0
      0.00      0.00      0.00 O   0  0  0  0  0  0  0  0  0  0  0  0
      1.33      0.00      0.00 C   0  0  0  0  0  0  0  0  0  0  0  0
  1  2  1  0  0  0  0
  1  4  1  0  0  0  0
  2  3  1  0  0  0  0
  3  4  1  0  0  0  0
M  END
> <ID>
4485

> <Formula>
C3H6O

> <FW>
58.0791

> <DSSTox_CID>
5969

> <DSSTox_RID>
77976

> <DSSTox_GSID>
25969

> <DSSTox_FileID_Sort>
2659

> <TS_ChemName>
1,3-Propylene oxide

> <TS_ChemName_Synonyms>


> <TS_CASRN>
503-30-0

> <CASRN_ChemName_Relationship>
primary

> <TS_Description>
single chemical compound

> <ChemNote>


> <STRUCTURE_Shown>
tested chemical

> <STRUCTURE_Formula>
C3H6O

> <STRUCTURE_MW>
58.0791

> <STRUCTURE_ChemType>
defined organic

> <STRUCTURE_DefinedOrganicForm>
parent

> <STRUCTURE_IUPAC>
oxetane

> <STRUCTURE_SMILES>
C1CCO1

> <STRUCTURE_SMILES_Desalt>
C1CCO1

> <Substance_modify_yyyymmdd>
20080429

$$$$
