503-74-2
ChemmineR-0915142007XD

  7  6  0  0  0  0  0  0  0  0  1 V2000
    1.1545   -1.3346    0.0000 C   0  0  0  0  0  0  0  0  0  0  0  0
    2.3090   -1.9903    0.0000 C   0  0  0  0  0  0  0  0  0  0  0  0
    3.4634   -1.3346    0.0000 C   0  0  0  0  0  0  0  0  0  0  0  0
    4.6179   -1.9903    0.0000 C   0  0  0  0  0  0  0  0  0  0  0  0
    1.1545    0.0000    0.0000 O   0  0  0  0  0  0  0  0  0  0  0  0
    0.0000   -1.9903    0.0000 O   0  0  0  0  0  0  0  0  0  0  0  0
    3.4634    0.0000    0.0000 C   0  0  0  0  0  0  0  0  0  0  0  0
  1  2  1  0  0  0  0
  1  6  1  0  0  0  0
  1  5  2  0  0  0  0
  2  3  1  0  0  0  0
  3  4  1  0  0  0  0
  3  7  1  0  0  0  0
M  END
> <ID>
5837

> <Formula>
C5H10O2

> <FW>
102.1317

> <DSSTox_CID>
9182

> <DSSTox_RID>
78698

> <DSSTox_GSID>
29182

> <DSSTox_FileID_Sort>
3380

> <TS_ChemName>
Isovaleric acid

> <TS_ChemName_Synonyms>
3-Methylbutanoic acid

> <TS_CASRN>
503-74-2

> <CASRN_ChemName_Relationship>
primary

> <TS_Description>
single chemical compound

> <ChemNote>


> <STRUCTURE_Shown>
tested chemical

> <STRUCTURE_Formula>
C5H10O2

> <STRUCTURE_MW>
102.1317

> <STRUCTURE_ChemType>
defined organic

> <STRUCTURE_DefinedOrganicForm>
parent

> <STRUCTURE_IUPAC>
3-methylbutanoic acid

> <STRUCTURE_SMILES>
CC(C)CC(=O)O

> <STRUCTURE_SMILES_Desalt>
CC(C)CC(=O)O

> <Substance_modify_yyyymmdd>
20080429

$$$$
