50357-61-4
ChemmineR-0915142007XD

 27 26  0  0  0  0  0  0  0  0  1 V2000
    1.1291   -2.6454    0.0000 C    0  0  0  0  0  0  0  0  0  0  0  0
   14.9852   -2.6454    0.0000 C    0  0  0  0  0  0  0  0  0  0  0  0
   13.7593   -2.0002    0.0000 C    0  0  0  0  0  0  0  0  0  0  0  0
    2.2744   -2.0002    0.0000 C    0  0  0  0  0  0  0  0  0  0  0  0
    4.5649   -2.0002    0.0000 C    0  0  0  0  0  0  0  0  0  0  0  0
   11.4849   -2.0002    0.0000 C    0  0  0  0  0  0  0  0  0  0  0  0
    3.4197   -2.6454    0.0000 C    0  0  0  0  0  0  0  0  0  0  0  0
   12.6301   -2.6454    0.0000 C    0  0  0  0  0  0  0  0  0  0  0  0
    1.1291   -4.0165    0.0000 N    0  0  0  0  0  0  0  0  0  0  0  0
   16.1304   -2.0002    0.0000 N    0  0  0  0  0  0  0  0  0  0  0  0
   11.4849   -0.6452    0.0000 C    0  0  0  0  0  0  0  0  0  0  0  0
    4.5649   -0.6452    0.0000 C    0  0  0  0  0  0  0  0  0  0  0  0
    2.2744   -0.6452    0.0000 C    0  0  0  0  0  0  0  0  0  0  0  0
   13.7593   -0.6452    0.0000 C    0  0  0  0  0  0  0  0  0  0  0  0
    3.4197    0.0000    0.0000 C    0  0  0  0  0  0  0  0  0  0  0  0
   12.6301    0.0000    0.0000 C    0  0  0  0  0  0  0  0  0  0  0  0
    0.0000   -2.0002    0.0000 N    0  0  0  0  0  0  0  0  0  0  0  0
   14.9852   -4.0165    0.0000 N    0  0  0  0  0  0  0  0  0  0  0  0
    5.7747   -2.6454    0.0000 Br   0  0  0  0  0  0  0  0  0  0  0  0
   10.3396   -2.6454    0.0000 Br   0  0  0  0  0  0  0  0  0  0  0  0
    5.7747    0.0000    0.0000 O    0  0  0  0  0  0  0  0  0  0  0  0
   10.3396    0.0000    0.0000 O    0  0  0  0  0  0  0  0  0  0  0  0
    8.0652    0.0000    0.0000 C    0  0  0  0  0  0  0  0  0  0  0  0
    9.1943   -0.6452    0.0000 C    0  0  0  0  0  0  0  0  0  0  0  0
    6.9200   -0.6452    0.0000 C    0  0  0  0  0  0  0  0  0  0  0  0
    6.4683   -4.4036    0.0000 Cl   0  0  0  0  0  0  0  0  0  0  0  0
    8.5653   -4.1778    0.0000 Cl   0  0  0  0  0  0  0  0  0  0  0  0
  1  4  1  0  0  0  0
  1  9  2  0  0  0  0
  1 17  1  0  0  0  0
  2  3  1  0  0  0  0
  2 10  2  0  0  0  0
  2 18  1  0  0  0  0
  3 14  1  0  0  0  0
  3  8  2  0  0  0  0
  4  7  2  0  0  0  0
  4 13  1  0  0  0  0
  5  7  1  0  0  0  0
  5 19  1  0  0  0  0
  5 12  2  0  0  0  0
  6 11  2  0  0  0  0
  6  8  1  0  0  0  0
  6 20  1  0  0  0  0
 11 22  1  0  0  0  0
 11 16  1  0  0  0  0
 12 15  1  0  0  0  0
 12 21  1  0  0  0  0
 13 15  2  0  0  0  0
 14 16  2  0  0  0  0
 21 25  1  0  0  0  0
 22 24  1  0  0  0  0
 23 25  1  0  0  0  0
 23 24  1  0  0  0  0
M  END
> <ID>
14038

> <Formula>
C17H20Br2Cl2N4O2

> <FW>
543.0803 (470.1584+36.4609+36.4609)

> <DSSTox_CID>
28980

> <DSSTox_RID>
83245

> <DSSTox_GSID>
49054

> <DSSTox_FileID_Sort>
7920

> <TS_ChemName>
Dibromopropamidine dihydrochloride

> <TS_ChemName_Synonyms>


> <TS_CASRN>
50357-61-4

> <CASRN_ChemName_Relationship>
primary

> <TS_Description>
single chemical compound

> <ChemNote>


> <STRUCTURE_Shown>
tested chemical

> <STRUCTURE_Formula>
C17H20Br2Cl2N4O2

> <STRUCTURE_MW>
543.0803

> <STRUCTURE_ChemType>
defined organic

> <STRUCTURE_DefinedOrganicForm>
complex

> <STRUCTURE_IUPAC>
4,4'-[propane-1,3-diylbis(oxy)]bis(3-bromobenzenecarboximidamide) dihydrochloride

> <STRUCTURE_SMILES>
Cl.Cl.Brc2cc(ccc2OCCCOc1ccc(cc1Br)C(=N)N)C(=N)N

> <STRUCTURE_SMILES_Desalt>
Brc2cc(ccc2OCCCOc1ccc(cc1Br)C(=N)N)C(=N)N

> <Substance_modify_yyyymmdd>
20111204

$$$$
