5039-78-1
ChemmineR-0915142007XD

 13 11  0  0  0  0  0  0  0  0  2 V2000
    2.2999   -1.9944    0.0000 C    0  0  0  0  0  0  0  0  0  0  0  0
    3.4499   -2.6699    0.0000 C    0  0  0  0  0  0  0  0  0  0  0  0
    1.1500   -2.6699    0.0000 N    0  3  0  0  0  0  0  0  0  0  0  0
    0.0000   -3.3293    0.0000 C    0  0  0  0  0  0  0  0  0  0  0  0
    1.8255   -3.8198    0.0000 C    0  0  0  0  0  0  0  0  0  0  0  0
    0.4986   -1.5199    0.0000 C    0  0  0  0  0  0  0  0  0  0  0  0
    4.6079   -1.9944    0.0000 O    0  0  0  0  0  0  0  0  0  0  0  0
    5.7579   -2.6699    0.0000 C    0  0  0  0  0  0  0  0  0  0  0  0
    6.9079   -1.9944    0.0000 C    0  0  0  0  0  0  0  0  0  0  0  0
    6.9079   -0.6675    0.0000 C    0  0  0  0  0  0  0  0  0  0  0  0
    8.0418   -2.6699    0.0000 C    0  0  0  0  0  0  0  0  0  0  0  0
    5.7579   -3.9968    0.0000 O    0  0  0  0  0  0  0  0  0  0  0  0
    2.7664    0.0000    0.0000 Cl   0  5  0  0  0  0  0  0  0  0  0  0
  1  2  1  0  0  0  0
  1  3  1  0  0  0  0
  2  7  1  0  0  0  0
  3  4  1  0  0  0  0
  3  5  1  0  0  0  0
  3  6  1  0  0  0  0
  7  8  1  0  0  0  0
  8  9  1  0  0  0  0
  8 12  2  0  0  0  0
  9 10  2  0  0  0  0
  9 11  1  0  0  0  0
M  END
> <ID>
5270

> <Formula>
C9H18ClNO2

> <FW>
207.6977 (172.2442+35.4535)

> <DSSTox_CID>
7586

> <DSSTox_RID>
78515

> <DSSTox_GSID>
27586

> <DSSTox_FileID_Sort>
3198

> <TS_ChemName>
Ethanaminium, N,N,N-trimethyl-2-[(2-methyl-1-oxo-2-propenyl)oxy]-, chloride

> <TS_ChemName_Synonyms>


> <TS_CASRN>
5039-78-1

> <CASRN_ChemName_Relationship>
primary

> <TS_Description>
single chemical compound

> <ChemNote>
ammonium; parent [33611-56-2]

> <STRUCTURE_Shown>
tested chemical

> <STRUCTURE_Formula>
C9H18ClNO2

> <STRUCTURE_MW>
207.6977

> <STRUCTURE_ChemType>
defined organic

> <STRUCTURE_DefinedOrganicForm>
salt

> <STRUCTURE_IUPAC>
N,N,N-trimethyl-2-[(2-methylacryloyl)oxy]ethanaminium chloride

> <STRUCTURE_SMILES>
[Cl-].C[N+](C)(C)CCOC(=O)C(=C)C

> <STRUCTURE_SMILES_Desalt>
C[N+](C)(C)CCOC(=O)C(=C)C

> <Substance_modify_yyyymmdd>
20080429

$$$$
