504-24-5
ChemmineR-0915142007XD

  7  7  0  0  0  0  0  0  0  0  1 V2000
    2.6695   -1.1349    0.0000 C   0  0  0  0  0  0  0  0  0  0  0  0
    1.9981   -2.3018    0.0000 C   0  0  0  0  0  0  0  0  0  0  0  0
    1.9981    0.0000    0.0000 C   0  0  0  0  0  0  0  0  0  0  0  0
    3.9962   -1.1349    0.0000 N   0  0  0  0  0  0  0  0  0  0  0  0
    0.6714   -2.3018    0.0000 C   0  0  0  0  0  0  0  0  0  0  0  0
    0.6714    0.0000    0.0000 C   0  0  0  0  0  0  0  0  0  0  0  0
    0.0000   -1.1349    0.0000 N   0  0  0  0  0  0  0  0  0  0  0  0
  1  2  2  0  0  0  0
  1  3  1  0  0  0  0
  1  4  1  0  0  0  0
  2  5  1  0  0  0  0
  3  6  2  0  0  0  0
  5  7  2  0  0  0  0
  6  7  1  0  0  0  0
M  END
> <ID>
3396

> <Formula>
C5H6N2

> <FW>
94.1145

> <DSSTox_CID>
3870

> <DSSTox_RID>
77212

> <DSSTox_GSID>
23870

> <DSSTox_FileID_Sort>
1895

> <TS_ChemName>
4-Aminopyridine

> <TS_ChemName_Synonyms>


> <TS_CASRN>
504-24-5

> <CASRN_ChemName_Relationship>
primary

> <TS_Description>
single chemical compound

> <ChemNote>


> <STRUCTURE_Shown>
tested chemical

> <STRUCTURE_Formula>
C5H6N2

> <STRUCTURE_MW>
94.1145

> <STRUCTURE_ChemType>
defined organic

> <STRUCTURE_DefinedOrganicForm>
parent

> <STRUCTURE_IUPAC>
pyridin-4-amine

> <STRUCTURE_SMILES>
Nc1ccncc1

> <STRUCTURE_SMILES_Desalt>
Nc1ccncc1

> <Substance_modify_yyyymmdd>
20080429

$$$$
