504-88-1
ChemmineR-0915142007XD

  8  7  0  0  0  0  0  0  0  0  2 V2000
    5.7628   -1.9939    0.0000 O   0  0  0  0  0  0  0  0  0  0  0  0
    4.6103   -1.3312    0.0000 C   0  0  0  0  0  0  0  0  0  0  0  0
    4.6103    0.0000    0.0000 O   0  0  0  0  0  0  0  0  0  0  0  0
    3.4577   -1.9939    0.0000 C   0  0  0  0  0  0  0  0  0  0  0  0
    2.3051   -1.3312    0.0000 C   0  0  0  0  0  0  0  0  0  0  0  0
    1.1526   -1.9939    0.0000 N   0  3  0  0  0  0  0  0  0  0  0  0
    1.1526   -3.3252    0.0000 O   0  0  0  0  0  0  0  0  0  0  0  0
    0.0000   -1.3312    0.0000 O   0  5  0  0  0  0  0  0  0  0  0  0
  1  2  1  0  0  0  0
  2  3  2  0  0  0  0
  2  4  1  0  0  0  0
  4  5  1  0  0  0  0
  5  6  1  0  0  0  0
  6  7  2  0  0  0  0
  6  8  1  0  0  0  0
M  END
> <ID>
946

> <Formula>
C3H5NO4

> <FW>
119.0761

> <DSSTox_CID>
982

> <DSSTox_RID>
75904

> <DSSTox_GSID>
20982

> <DSSTox_FileID_Sort>
588

> <TS_ChemName>
3-Nitropropionic acid

> <TS_ChemName_Synonyms>
3-Nitropropionic acid (3-NPA)

> <TS_CASRN>
504-88-1

> <CASRN_ChemName_Relationship>
primary

> <TS_Description>
single chemical compound

> <ChemNote>


> <STRUCTURE_Shown>
tested chemical

> <STRUCTURE_Formula>
C3H5NO4

> <STRUCTURE_MW>
119.0761

> <STRUCTURE_ChemType>
defined organic

> <STRUCTURE_DefinedOrganicForm>
parent

> <STRUCTURE_IUPAC>
3-nitropropanoic acid

> <STRUCTURE_SMILES>
[O-][N+](=O)CCC(=O)O

> <STRUCTURE_SMILES_Desalt>
[O-][N+](=O)CCC(=O)O

> <Substance_modify_yyyymmdd>
20080429

$$$$
