504-63-2
ChemmineR-0915142007XD

  5  4  0  0  0  0  0  0  0  0  1 V2000
    1.1677    0.0000    0.0000 C   0  0  0  0  0  0  0  0  0  0  0  0
    2.3169   -0.6534    0.0000 C   0  0  0  0  0  0  0  0  0  0  0  0
    3.4661    0.0000    0.0000 C   0  0  0  0  0  0  0  0  0  0  0  0
    0.0000   -0.6534    0.0000 O   0  0  0  0  0  0  0  0  0  0  0  0
    4.6338   -0.6534    0.0000 O   0  0  0  0  0  0  0  0  0  0  0  0
  1  2  1  0  0  0  0
  1  4  1  0  0  0  0
  2  3  1  0  0  0  0
  3  5  1  0  0  0  0
M  END
> <ID>
8219

> <Formula>
C3H8O2

> <FW>
76.0944

> <DSSTox_CID>
21246

> <DSSTox_RID>
79660

> <DSSTox_GSID>
41246

> <DSSTox_FileID_Sort>
4342

> <TS_ChemName>
1,3-Propanediol

> <TS_ChemName_Synonyms>


> <TS_CASRN>
504-63-2

> <CASRN_ChemName_Relationship>
primary

> <TS_Description>
single chemical compound

> <ChemNote>


> <STRUCTURE_Shown>
tested chemical

> <STRUCTURE_Formula>
C3H8O2

> <STRUCTURE_MW>
76.0944

> <STRUCTURE_ChemType>
defined organic

> <STRUCTURE_DefinedOrganicForm>
parent

> <STRUCTURE_IUPAC>
propane-1,3-diol

> <STRUCTURE_SMILES>
OCCCO

> <STRUCTURE_SMILES_Desalt>
OCCCO

> <Substance_modify_yyyymmdd>
20080825

$$$$
