504-20-1
ChemmineR-0915142007XD

 10  9  0  0  0  0  0  0  0  0  1 V2000
    3.4535    0.0000    0.0000 O   0  0  0  0  0  0  0  0  0  0  0  0
    3.4535   -1.3330    0.0000 C   0  0  0  0  0  0  0  0  0  0  0  0
    4.6070   -1.9961    0.0000 C   0  0  0  0  0  0  0  0  0  0  0  0
    5.7535   -1.3330    0.0000 C   0  0  0  0  0  0  0  0  0  0  0  0
    6.9070   -1.9961    0.0000 C   0  0  0  0  0  0  0  0  0  0  0  0
    5.7535    0.0000    0.0000 C   0  0  0  0  0  0  0  0  0  0  0  0
    2.3000   -1.9961    0.0000 C   0  0  0  0  0  0  0  0  0  0  0  0
    1.1535   -1.3330    0.0000 C   0  0  0  0  0  0  0  0  0  0  0  0
    0.0000   -1.9961    0.0000 C   0  0  0  0  0  0  0  0  0  0  0  0
    1.1535    0.0000    0.0000 C   0  0  0  0  0  0  0  0  0  0  0  0
  1  2  2  0  0  0  0
  2  3  1  0  0  0  0
  2  7  1  0  0  0  0
  3  4  2  0  0  0  0
  4  5  1  0  0  0  0
  4  6  1  0  0  0  0
  7  8  2  0  0  0  0
  8  9  1  0  0  0  0
  8 10  1  0  0  0  0
M  END
> <ID>
1521

> <Formula>
C9H14O

> <FW>
138.2069

> <DSSTox_CID>
1584

> <DSSTox_RID>
76220

> <DSSTox_GSID>
21584

> <DSSTox_FileID_Sort>
904

> <TS_ChemName>
Phorone

> <TS_ChemName_Synonyms>
Phorone (2,6-Dimethyl-2,5-heptadiene-4-one)

> <TS_CASRN>
504-20-1

> <CASRN_ChemName_Relationship>
primary

> <TS_Description>
single chemical compound

> <ChemNote>


> <STRUCTURE_Shown>
tested chemical

> <STRUCTURE_Formula>
C9H14O

> <STRUCTURE_MW>
138.2069

> <STRUCTURE_ChemType>
defined organic

> <STRUCTURE_DefinedOrganicForm>
parent

> <STRUCTURE_IUPAC>
2,6-dimethylhepta-2,5-dien-4-one

> <STRUCTURE_SMILES>
C\C(C)=C/C(=O)/C=C(/C)C

> <STRUCTURE_SMILES_Desalt>
C\C(C)=C/C(=O)/C=C(/C)C

> <Substance_modify_yyyymmdd>
20080429

$$$$
