504-29-0
ChemmineR-0915142007XD

  7  7  0  0  0  0  0  0  0  0  1 V2000
    0.0000   -1.1496    0.0000 N   0  0  0  0  0  0  0  0  0  0  0  0
    1.3292   -1.1496    0.0000 C   0  0  0  0  0  0  0  0  0  0  0  0
    1.9958    0.0000    0.0000 C   0  0  0  0  0  0  0  0  0  0  0  0
    3.3250    0.0000    0.0000 C   0  0  0  0  0  0  0  0  0  0  0  0
    3.9916   -1.1496    0.0000 C   0  0  0  0  0  0  0  0  0  0  0  0
    3.3250   -2.3032    0.0000 C   0  0  0  0  0  0  0  0  0  0  0  0
    1.9958   -2.3032    0.0000 N   0  0  0  0  0  0  0  0  0  0  0  0
  1  2  1  0  0  0  0
  2  3  2  0  0  0  0
  2  7  1  0  0  0  0
  3  4  1  0  0  0  0
  4  5  2  0  0  0  0
  5  6  1  0  0  0  0
  6  7  2  0  0  0  0
M  END
> <ID>
3721

> <Formula>
C5H6N2

> <FW>
94.1145

> <DSSTox_CID>
4505

> <DSSTox_RID>
77434

> <DSSTox_GSID>
24505

> <DSSTox_FileID_Sort>
2117

> <TS_ChemName>
2-Aminopyridine

> <TS_ChemName_Synonyms>
2-Pyridinamine

> <TS_CASRN>
504-29-0

> <CASRN_ChemName_Relationship>
primary

> <TS_Description>
single chemical compound

> <ChemNote>


> <STRUCTURE_Shown>
tested chemical

> <STRUCTURE_Formula>
C5H6N2

> <STRUCTURE_MW>
94.1145

> <STRUCTURE_ChemType>
defined organic

> <STRUCTURE_DefinedOrganicForm>
parent

> <STRUCTURE_IUPAC>
pyridin-2-amine

> <STRUCTURE_SMILES>
Nc1ccccn1

> <STRUCTURE_SMILES_Desalt>
Nc1ccccn1

> <Substance_modify_yyyymmdd>
20080429

$$$$
