504-02-9
ChemmineR-0915142007XD

  8  8  0  0  0  0  0  0  0  0  1 V2000
    2.3066   -1.9850    0.0000 C   0  0  0  0  0  0  0  0  0  0  0  0
    1.1513   -1.3300    0.0000 C   0  0  0  0  0  0  0  0  0  0  0  0
    2.3066   -3.3150    0.0000 C   0  0  0  0  0  0  0  0  0  0  0  0
    1.1513    0.0000    0.0000 O   0  0  0  0  0  0  0  0  0  0  0  0
    3.4897   -3.9542    0.0000 O   0  0  0  0  0  0  0  0  0  0  0  0
    0.0000   -3.3150    0.0000 C   0  0  0  0  0  0  0  0  0  0  0  0
    0.0000   -1.9850    0.0000 C   0  0  0  0  0  0  0  0  0  0  0  0
    1.1513   -3.9701    0.0000 C   0  0  0  0  0  0  0  0  0  0  0  0
  1  2  1  0  0  0  0
  1  3  1  0  0  0  0
  2  4  2  0  0  0  0
  2  7  1  0  0  0  0
  3  5  2  0  0  0  0
  3  8  1  0  0  0  0
  6  8  1  0  0  0  0
  6  7  1  0  0  0  0
M  END
> <ID>
10090

> <Formula>
C6H8O2

> <FW>
112.1265

> <DSSTox_CID>
24433

> <DSSTox_RID>
80224

> <DSSTox_GSID>
44433

> <DSSTox_FileID_Sort>
4906

> <TS_ChemName>
1,3-Cyclohexanedione

> <TS_ChemName_Synonyms>


> <TS_CASRN>
504-02-9

> <CASRN_ChemName_Relationship>
primary

> <TS_Description>
single chemical compound

> <ChemNote>
tautomers

> <STRUCTURE_Shown>
tested chemical

> <STRUCTURE_Formula>
C6H8O2

> <STRUCTURE_MW>
112.1265

> <STRUCTURE_ChemType>
defined organic

> <STRUCTURE_DefinedOrganicForm>
parent

> <STRUCTURE_IUPAC>
cyclohexane-1,3-dione

> <STRUCTURE_SMILES>
O=C1CCCC(=O)C1

> <STRUCTURE_SMILES_Desalt>
O=C1CCCC(=O)C1

> <Substance_modify_yyyymmdd>
20091116

$$$$
