50471-44-8
ChemmineR-0915142007XD

 18 19  0  0  0  0  0  0  0  0  1 V2000
    3.9892   -2.3365    0.0000 N    0  0  0  0  0  0  0  0  0  0  0  0
    4.7708   -1.2619    0.0000 C    0  0  0  0  0  0  0  0  0  0  0  0
    6.0408   -1.6771    0.0000 O    0  0  0  0  0  0  0  0  0  0  0  0
    6.0408   -3.0041    0.0000 C    0  0  0  0  0  0  0  0  0  0  0  0
    4.7708   -3.4193    0.0000 C    0  0  0  0  0  0  0  0  0  0  0  0
    4.3637   -4.6812    0.0000 O    0  0  0  0  0  0  0  0  0  0  0  0
    7.3597   -2.8657    0.0000 C    0  0  0  0  0  0  0  0  0  0  0  0
    8.1412   -3.9404    0.0000 C    0  0  0  0  0  0  0  0  0  0  0  0
    6.3094   -4.3067    0.0000 C    0  0  0  0  0  0  0  0  0  0  0  0
    4.3637    0.0000    0.0000 O    0  0  0  0  0  0  0  0  0  0  0  0
    2.6622   -2.3365    0.0000 C    0  0  0  0  0  0  0  0  0  0  0  0
    1.9946   -3.4926    0.0000 C    0  0  0  0  0  0  0  0  0  0  0  0
    0.6676   -3.4926    0.0000 C    0  0  0  0  0  0  0  0  0  0  0  0
    0.0000   -4.6405    0.0000 Cl   0  0  0  0  0  0  0  0  0  0  0  0
    0.0000   -2.3365    0.0000 C    0  0  0  0  0  0  0  0  0  0  0  0
    0.6676   -1.1886    0.0000 C    0  0  0  0  0  0  0  0  0  0  0  0
    1.9946   -1.1886    0.0000 C    0  0  0  0  0  0  0  0  0  0  0  0
    0.0000   -0.0326    0.0000 Cl   0  0  0  0  0  0  0  0  0  0  0  0
  1  2  1  0  0  0  0
  1  5  1  0  0  0  0
  1 11  1  0  0  0  0
  2  3  1  0  0  0  0
  2 10  2  0  0  0  0
  3  4  1  0  0  0  0
  4  5  1  0  0  0  0
  4  7  1  0  0  0  0
  4  9  1  0  0  0  0
  5  6  2  0  0  0  0
  7  8  2  0  0  0  0
 11 12  2  0  0  0  0
 11 17  1  0  0  0  0
 12 13  1  0  0  0  0
 13 14  1  0  0  0  0
 13 15  2  0  0  0  0
 15 16  1  0  0  0  0
 16 17  2  0  0  0  0
 16 18  1  0  0  0  0
M  END
> <ID>
2173

> <Formula>
C12H9Cl2NO3

> <FW>
286.1108

> <DSSTox_CID>
2361

> <DSSTox_RID>
76557

> <DSSTox_GSID>
22361

> <DSSTox_FileID_Sort>
1241

> <TS_ChemName>
Vinclozolin

> <TS_ChemName_Synonyms>


> <TS_CASRN>
50471-44-8

> <CASRN_ChemName_Relationship>
primary

> <TS_Description>
single chemical compound

> <ChemNote>
mixture of (R,S) isomers; structure shown without stereochem

> <STRUCTURE_Shown>
tested chemical

> <STRUCTURE_Formula>
C12H9Cl2NO3

> <STRUCTURE_MW>
286.1108

> <STRUCTURE_ChemType>
defined organic

> <STRUCTURE_DefinedOrganicForm>
parent

> <STRUCTURE_IUPAC>
3-(3,5-dichlorophenyl)-5-ethenyl-5-methyl-1,3-oxazolidine-2,4-dione

> <STRUCTURE_SMILES>
O=C1N(C(=O)OC1(C)C=C)c2cc(Cl)cc(Cl)c2

> <STRUCTURE_SMILES_Desalt>
O=C1N(C(=O)OC1(C)C=C)c2cc(Cl)cc(Cl)c2

> <Substance_modify_yyyymmdd>
20080429

$$$$
