505-32-8
ChemmineR-0915142007XD

 21 20  0  0  0  0  0  0  0  0  1 V2000
   14.9473   -2.3019    0.0000 C   0  0  0  0  0  0  0  0  0  0  0  0
   14.2746   -3.4528    0.0000 C   0  0  0  0  0  0  0  0  0  0  0  0
   14.9473   -4.6038    0.0000 C   0  0  0  0  0  0  0  0  0  0  0  0
   12.9443   -3.4528    0.0000 C   0  0  0  0  0  0  0  0  0  0  0  0
   12.2866   -2.3019    0.0000 C   0  0  0  0  0  0  0  0  0  0  0  0
   10.9563   -2.3019    0.0000 C   0  0  0  0  0  0  0  0  0  0  0  0
   10.2837   -3.4528    0.0000 C   0  0  0  0  0  0  0  0  0  0  0  0
   10.9563   -4.6038    0.0000 C   0  0  0  0  0  0  0  0  0  0  0  0
    8.9534   -3.4528    0.0000 C   0  0  0  0  0  0  0  0  0  0  0  0
    8.2957   -2.3019    0.0000 C   0  0  0  0  0  0  0  0  0  0  0  0
    6.9654   -2.3019    0.0000 C   0  0  0  0  0  0  0  0  0  0  0  0
    6.2928   -3.4528    0.0000 C   0  0  0  0  0  0  0  0  0  0  0  0
    6.9654   -4.6038    0.0000 C   0  0  0  0  0  0  0  0  0  0  0  0
    4.9625   -3.4528    0.0000 C   0  0  0  0  0  0  0  0  0  0  0  0
    4.3048   -2.3019    0.0000 C   0  0  0  0  0  0  0  0  0  0  0  0
    2.9745   -2.3019    0.0000 C   0  0  0  0  0  0  0  0  0  0  0  0
    2.3019   -1.1509    0.0000 C   0  0  0  0  0  0  0  0  0  0  0  0
    3.4528   -0.4783    0.0000 C   0  0  0  0  0  0  0  0  0  0  0  0
    1.6442    0.0000    0.0000 O   0  0  0  0  0  0  0  0  0  0  0  0
    1.1509   -1.8086    0.0000 C   0  0  0  0  0  0  0  0  0  0  0  0
    0.0000   -1.1509    0.0000 C   0  0  0  0  0  0  0  0  0  0  0  0
  1  2  1  0  0  0  0
  2  3  1  0  0  0  0
  2  4  1  0  0  0  0
  4  5  1  0  0  0  0
  5  6  1  0  0  0  0
  6  7  1  0  0  0  0
  7  8  1  0  0  0  0
  7  9  1  0  0  0  0
  9 10  1  0  0  0  0
 10 11  1  0  0  0  0
 11 12  1  0  0  0  0
 12 13  1  0  0  0  0
 12 14  1  0  0  0  0
 14 15  1  0  0  0  0
 15 16  1  0  0  0  0
 16 17  1  0  0  0  0
 17 18  1  0  0  0  0
 17 19  1  0  0  0  0
 17 20  1  0  0  0  0
 20 21  2  0  0  0  0
M  END
> <ID>
4217

> <Formula>
C20H40O

> <FW>
296.531

> <DSSTox_CID>
5474

> <DSSTox_RID>
77800

> <DSSTox_GSID>
25474

> <DSSTox_FileID_Sort>
2483

> <TS_ChemName>
Isophytol

> <TS_ChemName_Synonyms>
Isophytol (1-Hexadecen-3-ol, 3,7,11,15-tetramethyl-)

> <TS_CASRN>
505-32-8

> <CASRN_ChemName_Relationship>
primary

> <TS_Description>
single chemical compound

> <ChemNote>


> <STRUCTURE_Shown>
tested chemical

> <STRUCTURE_Formula>
C20H40O

> <STRUCTURE_MW>
296.531

> <STRUCTURE_ChemType>
defined organic

> <STRUCTURE_DefinedOrganicForm>
parent

> <STRUCTURE_IUPAC>
3,7,11,15-tetramethylhexadec-1-en-3-ol

> <STRUCTURE_SMILES>
CC(C)CCCC(C)CCCC(C)CCCC(C)(O)C=C

> <STRUCTURE_SMILES_Desalt>
CC(C)CCCC(C)CCCC(C)CCCC(C)(O)C=C

> <Substance_modify_yyyymmdd>
20080429

$$$$
