505-79-3
ChemmineR-0915142007XD

  8  7  0  0  0  0  0  0  0  0  1 V2000
    6.9227   -0.6624    0.0000 C   0  0  0  0  0  0  0  0  0  0  0  0
    5.7676    0.0000    0.0000 N   0  0  0  0  0  0  0  0  0  0  0  0
    8.0778   -1.3167    0.0000 S   0  0  0  0  0  0  0  0  0  0  0  0
    4.6125   -0.6624    0.0000 C   0  0  0  0  0  0  0  0  0  0  0  0
    3.4654    0.0000    0.0000 C   0  0  0  0  0  0  0  0  0  0  0  0
    2.3103   -0.6624    0.0000 C   0  0  0  0  0  0  0  0  0  0  0  0
    1.1551    0.0000    0.0000 S   0  0  0  0  0  0  0  0  0  0  0  0
    0.0000   -0.6624    0.0000 C   0  0  0  0  0  0  0  0  0  0  0  0
  1  2  2  0  0  0  0
  1  3  2  0  0  0  0
  2  4  1  0  0  0  0
  4  5  1  0  0  0  0
  5  6  1  0  0  0  0
  6  7  1  0  0  0  0
  7  8  1  0  0  0  0
M  END
> <ID>
12282

> <Formula>
C5H9NS2

> <FW>
147.2617

> <DSSTox_CID>
27132

> <DSSTox_RID>
82139

> <DSSTox_GSID>
47132

> <DSSTox_FileID_Sort>
6820

> <TS_ChemName>
3-(Methylthio)propyl isothiocyanate

> <TS_ChemName_Synonyms>


> <TS_CASRN>
505-79-3

> <CASRN_ChemName_Relationship>
primary

> <TS_Description>
single chemical compound

> <ChemNote>


> <STRUCTURE_Shown>
tested chemical

> <STRUCTURE_Formula>
C5H9NS2

> <STRUCTURE_MW>
147.2617

> <STRUCTURE_ChemType>
defined organic

> <STRUCTURE_DefinedOrganicForm>
parent

> <STRUCTURE_IUPAC>
1-isothiocyanato-3-(methylsulfanyl)propane

> <STRUCTURE_SMILES>
S=C=N\CCCSC

> <STRUCTURE_SMILES_Desalt>
S=C=N\CCCSC

> <Substance_modify_yyyymmdd>
20100502

$$$$
