50505-85-6
ChemmineR-0915142007XD

 15 14  0  0  1  0  0  0  0  0  1 V2000
    3.4454   -1.9982    0.0000 C    0  0  0  0  0  0  0  0  0  0  0  0
    5.7688   -1.9650    0.0000 N    0  0  0  0  0  0  0  0  0  0  0  0
    2.3235   -2.6554    0.0000 C    0  0  0  0  0  0  0  0  0  0  0  0
    4.6071   -2.6554    0.0000 C    0  0  0  0  0  0  0  0  0  0  0  0
    1.1617   -1.9982    0.0000 C    0  0  0  0  0  0  0  0  0  0  0  0
    2.3235   -3.9831    0.0000 C    0  0  0  0  0  0  0  0  0  0  0  0
    4.6071   -3.9499    0.0000 C    0  0  0  0  0  0  0  0  0  0  0  0
    1.1617   -4.6403    0.0000 C    0  0  0  0  0  0  0  0  0  0  0  0
    0.0000   -2.6554    0.0000 C    0  0  0  0  0  0  0  0  0  0  0  0
    0.0000   -3.9831    0.0000 C    0  0  0  0  0  0  0  0  0  0  0  0
    1.1617   -0.6638    0.0000 O    0  0  0  0  0  0  0  0  0  0  0  0
    0.0000    0.0000    0.0000 C    0  0  0  0  0  0  0  0  0  0  0  0
    1.1617   -5.9746    0.0000 O    0  0  0  0  0  0  0  0  0  0  0  0
    2.3235   -6.6385    0.0000 C    0  0  0  0  0  0  0  0  0  0  0  0
    4.4013   -0.0465    0.0000 Cl   0  0  0  0  0  0  0  0  0  0  0  0
  1  3  1  0  0  0  0
  1  4  1  0  0  0  0
  2  4  1  0  0  0  0
  3  5  2  0  0  0  0
  3  6  1  0  0  0  0
  4  7  1  1  0  0  0
  5  9  1  0  0  0  0
  5 11  1  0  0  0  0
  6  8  2  0  0  0  0
  8 10  1  0  0  0  0
  8 13  1  0  0  0  0
  9 10  2  0  0  0  0
 11 12  1  0  0  0  0
 13 14  1  0  0  0  0
M  END
> <ID>
13876

> <Formula>
C11H18ClNO2

> <FW>
231.7191 (195.2582+36.4609)

> <DSSTox_CID>
28813

> <DSSTox_RID>
83082

> <DSSTox_GSID>
48887

> <DSSTox_FileID_Sort>
7759

> <TS_ChemName>
(+)-2,5-Dimethoxyamphetamine hydrochloride

> <TS_ChemName_Synonyms>


> <TS_CASRN>
50505-85-6

> <CASRN_ChemName_Relationship>
primary

> <TS_Description>
single chemical compound

> <ChemNote>
stereochem

> <STRUCTURE_Shown>
tested chemical

> <STRUCTURE_Formula>
C11H18ClNO2

> <STRUCTURE_MW>
231.7191

> <STRUCTURE_ChemType>
defined organic

> <STRUCTURE_DefinedOrganicForm>
complex

> <STRUCTURE_IUPAC>
(2S)-1-(2,5-dimethoxyphenyl)propan-2-amine hydrochloride (1:1)

> <STRUCTURE_SMILES>
Cl.COc1ccc(cc1C[C@H](C)N)OC

> <STRUCTURE_SMILES_Desalt>
COc1ccc(cc1C[C@H](C)N)OC

> <Substance_modify_yyyymmdd>
20111204

$$$$
