50505-89-0
ChemmineR-0915142007XD

 16 15  0  0  1  0  0  0  0  0  1 V2000
    3.4591   -2.0063    0.0000 C    0  0  0  0  0  0  0  0  0  0  0  0
    3.4591   -3.3346    0.0000 C    0  0  0  0  0  0  0  0  0  0  0  0
    2.3038   -1.3352    0.0000 C    0  0  0  0  0  0  0  0  0  0  0  0
    2.3038   -3.9918    0.0000 C    0  0  0  0  0  0  0  0  0  0  0  0
    1.1553   -2.0063    0.0000 C    0  0  0  0  0  0  0  0  0  0  0  0
    1.1553   -3.3346    0.0000 C    0  0  0  0  0  0  0  0  0  0  0  0
    0.0000   -3.9918    0.0000 C    0  0  0  0  0  0  0  0  0  0  0  0
    0.0000   -1.3352    0.0000 O    0  0  0  0  0  0  0  0  0  0  0  0
    0.0000    0.0000    0.0000 C    0  0  0  0  0  0  0  0  0  0  0  0
    4.6145   -1.3352    0.0000 C    0  0  0  0  0  0  0  0  0  0  0  0
    5.7629   -1.9924    0.0000 C    0  0  0  0  0  0  0  0  0  0  0  0
    4.6145   -3.9918    0.0000 O    0  0  0  0  0  0  0  0  0  0  0  0
    4.6145   -5.3201    0.0000 C    0  0  0  0  0  0  0  0  0  0  0  0
    6.9182   -1.3352    0.0000 N    0  0  0  0  0  0  0  0  0  0  0  0
    5.7629   -3.3207    0.0000 C    0  0  0  0  0  0  0  0  0  0  0  0
    2.2553   -5.0157    0.0000 Cl   0  0  0  0  0  0  0  0  0  0  0  0
  1  2  1  0  0  0  0
  1  3  2  0  0  0  0
  1 10  1  0  0  0  0
  2  4  2  0  0  0  0
  2 12  1  0  0  0  0
  3  5  1  0  0  0  0
  4  6  1  0  0  0  0
  5  6  2  0  0  0  0
  5  8  1  0  0  0  0
  6  7  1  0  0  0  0
  8  9  1  0  0  0  0
 10 11  1  0  0  0  0
 11 14  1  1  0  0  0
 11 15  1  0  0  0  0
 12 13  1  0  0  0  0
M  END
> <ID>
13874

> <Formula>
C12H20ClNO2

> <FW>
245.7457 (209.2848+36.4609)

> <DSSTox_CID>
28811

> <DSSTox_RID>
83080

> <DSSTox_GSID>
48885

> <DSSTox_FileID_Sort>
7757

> <TS_ChemName>
(S)-(+)-2,5-Dimethoxy-4-methylamphetamine hydrochloride

> <TS_ChemName_Synonyms>
(+)-2,5-Dimethoxy-4-methylamphetamine hydrochloride

> <TS_CASRN>
50505-89-0

> <CASRN_ChemName_Relationship>
primary

> <TS_Description>
single chemical compound

> <ChemNote>
stereochem; parent [43061-14-9]

> <STRUCTURE_Shown>
tested chemical

> <STRUCTURE_Formula>
C12H20ClNO2

> <STRUCTURE_MW>
245.7457

> <STRUCTURE_ChemType>
defined organic

> <STRUCTURE_DefinedOrganicForm>
complex

> <STRUCTURE_IUPAC>
(2S)-1-(2,5-dimethoxy-4-methylphenyl)propan-2-amine hydrochloride (1:1)

> <STRUCTURE_SMILES>
Cl.COc1cc(C)c(cc1C[C@H](C)N)OC

> <STRUCTURE_SMILES_Desalt>
COc1cc(C)c(cc1C[C@H](C)N)OC

> <Substance_modify_yyyymmdd>
20111204

$$$$
