5051-22-9
ChemmineR-0915142007XD

 19 20  0  0  1  0  0  0  0  0  1 V2000
   10.3795   -0.6804    0.0000 C   0  0  0  0  0  0  0  0  0  0  0  0
   10.3795   -1.9952    0.0000 C   0  0  0  0  0  0  0  0  0  0  0  0
   11.5328   -2.6641    0.0000 C   0  0  0  0  0  0  0  0  0  0  0  0
    9.2147   -2.6641    0.0000 N   0  0  0  0  0  0  0  0  0  0  0  0
    8.0845   -1.9952    0.0000 C   0  0  0  0  0  0  0  0  0  0  0  0
    6.9197   -2.6641    0.0000 C   0  0  0  0  0  0  0  0  0  0  0  0
    6.9197   -3.9903    0.0000 O   0  0  0  0  0  0  0  0  0  0  0  0
    5.7664   -1.9952    0.0000 C   0  0  0  0  0  0  0  0  0  0  0  0
    4.6131   -2.6641    0.0000 O   0  0  0  0  0  0  0  0  0  0  0  0
    3.4483   -1.9952    0.0000 C   0  0  0  0  0  0  0  0  0  0  0  0
    2.3181   -2.6641    0.0000 C   0  0  0  0  0  0  0  0  0  0  0  0
    2.3181   -3.9903    0.0000 C   0  0  0  0  0  0  0  0  0  0  0  0
    1.1533   -4.6592    0.0000 C   0  0  0  0  0  0  0  0  0  0  0  0
    0.0000   -3.9903    0.0000 C   0  0  0  0  0  0  0  0  0  0  0  0
    0.0000   -2.6641    0.0000 C   0  0  0  0  0  0  0  0  0  0  0  0
    1.1533   -1.9952    0.0000 C   0  0  0  0  0  0  0  0  0  0  0  0
    1.1533   -0.6804    0.0000 C   0  0  0  0  0  0  0  0  0  0  0  0
    2.3181    0.0000    0.0000 C   0  0  0  0  0  0  0  0  0  0  0  0
    3.4483   -0.6804    0.0000 C   0  0  0  0  0  0  0  0  0  0  0  0
  1  2  1  0  0  0  0
  2  3  1  0  0  0  0
  2  4  1  0  0  0  0
  4  5  1  0  0  0  0
  5  6  1  0  0  0  0
  6  7  1  1  0  0  0
  6  8  1  0  0  0  0
  8  9  1  0  0  0  0
  9 10  1  0  0  0  0
 10 11  2  0  0  0  0
 10 19  1  0  0  0  0
 11 12  1  0  0  0  0
 11 16  1  0  0  0  0
 12 13  2  0  0  0  0
 13 14  1  0  0  0  0
 14 15  2  0  0  0  0
 15 16  1  0  0  0  0
 16 17  2  0  0  0  0
 17 18  1  0  0  0  0
 18 19  2  0  0  0  0
M  END
> <ID>
10860

> <Formula>
C16H21NO2

> <FW>
259.3434

> <DSSTox_CID>
25304

> <DSSTox_RID>
80790

> <DSSTox_GSID>
45304

> <DSSTox_FileID_Sort>
5471

> <TS_ChemName>
Dexpropranolol

> <TS_ChemName_Synonyms>


> <TS_CASRN>
5051-22-9

> <CASRN_ChemName_Relationship>
primary

> <TS_Description>
single chemical compound

> <ChemNote>
stereochem

> <STRUCTURE_Shown>
tested chemical

> <STRUCTURE_Formula>
C16H21NO2

> <STRUCTURE_MW>
259.3434

> <STRUCTURE_ChemType>
defined organic

> <STRUCTURE_DefinedOrganicForm>
parent

> <STRUCTURE_IUPAC>
(2R)-1-(naphthalen-1-yloxy)-3-(propan-2-ylamino)propan-2-ol

> <STRUCTURE_SMILES>
CC(C)NC[C@@H](O)COc2cccc1ccccc12

> <STRUCTURE_SMILES_Desalt>
CC(C)NC[C@@H](O)COc2cccc1ccccc12

> <Substance_modify_yyyymmdd>
20110719

$$$$
