506-26-3
ChemmineR-0915142007XD

 20 19  0  0  0  0  0  0  0  0  1 V2000
    8.6518   -6.9194    0.0000 C   0  0  0  0  0  0  0  0  0  0  0  0
    7.9879   -8.0709    0.0000 C   0  0  0  0  0  0  0  0  0  0  0  0
    6.6600   -8.0709    0.0000 C   0  0  0  0  0  0  0  0  0  0  0  0
    5.9857   -9.2224    0.0000 C   0  0  0  0  0  0  0  0  0  0  0  0
    4.6579   -9.2224    0.0000 C   0  0  0  0  0  0  0  0  0  0  0  0
    3.9940  -10.3739    0.0000 C   0  0  0  0  0  0  0  0  0  0  0  0
    2.6661  -10.3739    0.0000 C   0  0  0  0  0  0  0  0  0  0  0  0
    1.9918   -9.2224    0.0000 C   0  0  0  0  0  0  0  0  0  0  0  0
    0.6639   -9.2224    0.0000 C   0  0  0  0  0  0  0  0  0  0  0  0
    0.0000   -8.0709    0.0000 C   0  0  0  0  0  0  0  0  0  0  0  0
    0.6639   -6.9194    0.0000 C   0  0  0  0  0  0  0  0  0  0  0  0
    0.0000   -5.7679    0.0000 C   0  0  0  0  0  0  0  0  0  0  0  0
    0.6639   -4.6060    0.0000 C   0  0  0  0  0  0  0  0  0  0  0  0
    1.9918   -4.6060    0.0000 C   0  0  0  0  0  0  0  0  0  0  0  0
    2.6661   -3.4545    0.0000 C   0  0  0  0  0  0  0  0  0  0  0  0
    3.9940   -3.4545    0.0000 C   0  0  0  0  0  0  0  0  0  0  0  0
    4.6579   -2.3030    0.0000 C   0  0  0  0  0  0  0  0  0  0  0  0
    3.9940   -1.1515    0.0000 C   0  0  0  0  0  0  0  0  0  0  0  0
    2.6661   -1.1515    0.0000 O   0  0  0  0  0  0  0  0  0  0  0  0
    4.6579    0.0000    0.0000 O   0  0  0  0  0  0  0  0  0  0  0  0
  1  2  1  0  0  0  0
  2  3  1  0  0  0  0
  3  4  1  0  0  0  0
  4  5  1  0  0  0  0
  5  6  1  0  0  0  0
  6  7  2  0  0  0  0
  7  8  1  0  0  0  0
  8  9  1  0  0  0  0
  9 10  2  0  0  0  0
 10 11  1  0  0  0  0
 11 12  1  0  0  0  0
 12 13  2  0  0  0  0
 13 14  1  0  0  0  0
 14 15  1  0  0  0  0
 15 16  1  0  0  0  0
 16 17  1  0  0  0  0
 17 18  1  0  0  0  0
 18 19  1  0  0  0  0
 18 20  2  0  0  0  0
M  END
> <ID>
11469

> <Formula>
C18H30O2

> <FW>
278.4296

> <DSSTox_CID>
26170

> <DSSTox_RID>
81401

> <DSSTox_GSID>
46170

> <DSSTox_FileID_Sort>
6082

> <TS_ChemName>
Gamolenic acid

> <TS_ChemName_Synonyms>


> <TS_CASRN>
506-26-3

> <CASRN_ChemName_Relationship>
primary

> <TS_Description>
single chemical compound

> <ChemNote>
stereochem

> <STRUCTURE_Shown>
tested chemical

> <STRUCTURE_Formula>
C18H30O2

> <STRUCTURE_MW>
278.4296

> <STRUCTURE_ChemType>
defined organic

> <STRUCTURE_DefinedOrganicForm>
parent

> <STRUCTURE_IUPAC>
(6Z,9Z,12Z)-octadeca-6,9,12-trienoic acid

> <STRUCTURE_SMILES>
O=C(O)CCCC\C=C/C/C=C\C/C=C\CCCCC

> <STRUCTURE_SMILES_Desalt>
O=C(O)CCCC\C=C/C/C=C\C/C=C\CCCCC

> <Substance_modify_yyyymmdd>
20110818

$$$$
