50673-97-7
ChemmineR-0915142007XD

 32 35  0  0  1  0  0  0  0  0  1 V2000
    6.9071   -3.7257    0.0000 C   0  0  0  0  0  0  0  0  0  0  0  0
    5.7629   -4.3955    0.0000 C   0  0  0  0  0  0  0  0  0  0  0  0
    6.9071   -2.4001    0.0000 C   0  0  0  0  0  0  0  0  0  0  0  0
    8.1909   -4.1443    0.0000 C   0  0  0  0  0  0  0  0  0  0  0  0
    4.6048   -3.7257    0.0000 C   0  0  0  0  0  0  0  0  0  0  0  0
    5.7629   -5.7350    0.0000 C   0  0  0  0  0  0  0  0  0  0  0  0
    8.1909   -2.0093    0.0000 C   0  0  0  0  0  0  0  0  0  0  0  0
    5.7629   -1.7442    0.0000 C   0  0  0  0  0  0  0  0  0  0  0  0
    8.9583   -3.0698    0.0000 C   0  0  0  0  0  0  0  0  0  0  0  0
    8.5955   -5.4141    0.0000 O   0  0  0  0  0  0  0  0  0  0  0  0
    3.4605   -4.3955    0.0000 C   0  0  0  0  0  0  0  0  0  0  0  0
    4.6048   -2.4001    0.0000 C   0  0  0  0  0  0  0  0  0  0  0  0
    4.6048   -6.3908    0.0000 C   0  0  0  0  0  0  0  0  0  0  0  0
    8.1909   -0.6698    0.0000 C   0  0  0  0  0  0  0  0  0  0  0  0
    3.4605   -5.7350    0.0000 C   0  0  0  0  0  0  0  0  0  0  0  0
    2.3024   -3.7257    0.0000 C   0  0  0  0  0  0  0  0  0  0  0  0
    3.4605   -3.0698    0.0000 C   0  0  0  0  0  0  0  0  0  0  0  0
    9.3491    0.0000    0.0000 C   0  0  0  0  0  0  0  0  0  0  0  0
    7.0467    0.0000    0.0000 C   0  0  0  0  0  0  0  0  0  0  0  0
    2.3024   -6.3908    0.0000 C   0  0  0  0  0  0  0  0  0  0  0  0
    1.1721   -4.3955    0.0000 C   0  0  0  0  0  0  0  0  0  0  0  0
   10.4933   -0.6698    0.0000 C   0  0  0  0  0  0  0  0  0  0  0  0
    1.1721   -5.7350    0.0000 C   0  0  0  0  0  0  0  0  0  0  0  0
   11.6514    0.0000    0.0000 C   0  0  0  0  0  0  0  0  0  0  0  0
    0.0000   -6.3908    0.0000 O   0  0  0  0  0  0  0  0  0  0  0  0
   12.7817   -0.6698    0.0000 C   0  0  0  0  0  0  0  0  0  0  0  0
   12.7817   -2.0093    0.0000 C   0  0  0  0  0  0  0  0  0  0  0  0
   13.9538   -0.0140    0.0000 C   0  0  0  0  0  0  0  0  0  0  0  0
    3.4605   -7.0606    0.0000 H   0  0  0  0  0  0  0  0  0  0  0  0
    9.3491   -1.3675    0.0000 H   0  0  0  0  0  0  0  0  0  0  0  0
    4.6048   -5.0513    0.0000 H   0  0  0  0  0  0  0  0  0  0  0  0
    6.9071   -1.0605    0.0000 C   0  0  0  0  0  0  0  0  0  0  0  0
  1  2  2  0  0  0  0
  1  3  1  0  0  0  0
  1  4  1  0  0  0  0
  2  5  1  0  0  0  0
  2  6  1  0  0  0  0
  3  7  1  0  0  0  0
  3  8  1  0  0  0  0
  3 32  1  1  0  0  0
  4  9  1  0  0  0  0
  4 10  2  0  0  0  0
  5 11  1  0  0  0  0
  5 12  1  0  0  0  0
  5 31  1  6  0  0  0
  6 13  1  0  0  0  0
  7 14  1  0  0  0  0
  7  9  1  0  0  0  0
  7 30  1  6  0  0  0
  8 12  1  0  0  0  0
 11 15  1  0  0  0  0
 11 16  1  0  0  0  0
 11 17  1  1  0  0  0
 13 15  1  0  0  0  0
 14 18  1  0  0  0  0
 14 19  1  6  0  0  0
 15 20  1  0  0  0  0
 15 29  1  6  0  0  0
 16 21  1  0  0  0  0
 18 22  1  0  0  0  0
 20 23  1  0  0  0  0
 21 23  1  0  0  0  0
 22 24  1  0  0  0  0
 23 25  1  1  0  0  0
 24 26  1  0  0  0  0
 26 27  1  0  0  0  0
 26 28  1  0  0  0  0
M  END
> <ID>
11507

> <Formula>
C27H44O2

> <FW>
400.6371

> <DSSTox_CID>
26212

> <DSSTox_RID>
81440

> <DSSTox_GSID>
46212

> <DSSTox_FileID_Sort>
6121

> <TS_ChemName>
Colestolone

> <TS_ChemName_Synonyms>


> <TS_CASRN>
50673-97-7

> <CASRN_ChemName_Relationship>
primary

> <TS_Description>
single chemical compound

> <ChemNote>
stereochem

> <STRUCTURE_Shown>
tested chemical

> <STRUCTURE_Formula>
C27H44O2

> <STRUCTURE_MW>
400.6371

> <STRUCTURE_ChemType>
defined organic

> <STRUCTURE_DefinedOrganicForm>
parent

> <STRUCTURE_IUPAC>
(3beta,5alpha)-3-hydroxycholest-8(14)-en-15-one

> <STRUCTURE_SMILES>
CC(C)CCC[C@@H](C)[C@H]2CC(=O)C1=C3CC[C@H]4C[C@@H](O)CC[C@]4(C)[C@H]3CC[C@@]12C

> <STRUCTURE_SMILES_Desalt>
CC(C)CCC[C@@H](C)[C@H]2CC(=O)C1=C3CC[C@H]4C[C@@H](O)CC[C@]4(C)[C@H]3CC[C@@]12C

> <Substance_modify_yyyymmdd>
20110817

$$$$
