50700-72-6
ChemmineR-0915142007XD

 45 49  0  0  1  0  0  0  0  0  2 V2000
    9.0724   -3.9535    0.0000 C    0  0  0  0  0  0  0  0  0  0  0  0
    5.6795   -5.8712    0.0000 C    0  0  0  0  0  0  0  0  0  0  0  0
    9.0724   -5.2369    0.0000 C    0  0  0  0  0  0  0  0  0  0  0  0
   10.2083   -3.2749    0.0000 C    0  0  0  0  0  0  0  0  0  0  0  0
   11.3589   -3.9535    0.0000 C    0  0  0  0  0  0  0  0  0  0  0  0
    6.8153   -5.2369    0.0000 C    0  0  0  0  0  0  0  0  0  0  0  0
    7.9070   -5.8712    0.0000 C    0  0  0  0  0  0  0  0  0  0  0  0
   12.4505   -3.2749    0.0000 N    0  3  0  0  0  0  0  0  0  0  0  0
    3.3929   -5.8712    0.0000 C    0  0  0  0  0  0  0  0  0  0  0  0
    3.3929   -7.1989    0.0000 C    0  0  0  0  0  0  0  0  0  0  0  0
   11.3589   -5.2369    0.0000 C    0  0  0  0  0  0  0  0  0  0  0  0
    4.5436   -5.2369    0.0000 C    0  0  0  0  0  0  0  0  0  0  0  0
    5.6795   -7.1989    0.0000 C    0  0  0  0  0  0  0  0  0  0  0  0
    2.2865   -5.2369    0.0000 N    0  0  0  0  0  0  0  0  0  0  0  0
    7.9070   -3.2749    0.0000 C    0  0  0  0  0  0  0  0  0  0  0  0
   10.2083   -1.9472    0.0000 O    0  0  0  0  0  0  0  0  0  0  0  0
    4.5436   -7.8627    0.0000 C    0  0  0  0  0  0  0  0  0  0  0  0
    6.8153   -3.9535    0.0000 C    0  0  0  0  0  0  0  0  0  0  0  0
    2.2865   -7.8627    0.0000 O    0  0  0  0  0  0  0  0  0  0  0  0
    7.9070   -7.1989    0.0000 C    0  0  0  0  0  0  0  0  0  0  0  0
    9.0724   -1.3129    0.0000 C    0  0  0  0  0  0  0  0  0  0  0  0
    2.2865   -9.1904    0.0000 C    0  0  0  0  0  0  0  0  0  0  0  0
    6.8153   -7.8627    0.0000 C    0  0  0  0  0  0  0  0  0  0  0  0
    9.0724    0.0000    0.0000 O    0  0  0  0  0  0  0  0  0  0  0  0
    1.1359   -9.8395    0.0000 O    0  0  0  0  0  0  0  0  0  0  0  0
    9.0724   -2.6553    0.0000 C    0  0  0  0  0  0  0  0  0  0  0  0
    5.6795   -4.6173    0.0000 C    0  0  0  0  0  0  0  0  0  0  0  0
   12.4505   -4.5878    0.0000 C    0  0  0  0  0  0  0  0  0  0  0  0
   12.4505   -1.9472    0.0000 C    0  0  0  0  0  0  0  0  0  0  0  0
   13.6159   -3.9535    0.0000 C    0  0  0  0  0  0  0  0  0  0  0  0
    2.2865   -3.9535    0.0000 C    0  0  0  0  0  0  0  0  0  0  0  0
    1.1359   -5.8712    0.0000 C    0  0  0  0  0  0  0  0  0  0  0  0
    3.3929   -9.8247    0.0000 C    0  0  0  0  0  0  0  0  0  0  0  0
    7.9070   -1.9472    0.0000 C    0  0  0  0  0  0  0  0  0  0  0  0
   13.6159   -1.3129    0.0000 C    0  0  0  0  0  0  0  0  0  0  0  0
   14.7518   -3.2749    0.0000 C    0  0  0  0  0  0  0  0  0  0  0  0
    1.1359   -3.2749    0.0000 C    0  0  0  0  0  0  0  0  0  0  0  0
    0.0000   -5.2369    0.0000 C    0  0  0  0  0  0  0  0  0  0  0  0
   14.7518   -1.9472    0.0000 C    0  0  0  0  0  0  0  0  0  0  0  0
    0.0000   -3.9535    0.0000 C    0  0  0  0  0  0  0  0  0  0  0  0
    7.9070   -4.5436    0.0000 H    0  0  0  0  0  0  0  0  0  0  0  0
    6.8153   -6.5646    0.0000 H    0  0  0  0  0  0  0  0  0  0  0  0
    9.0724   -6.5646    0.0000 H    0  0  0  0  0  0  0  0  0  0  0  0
    5.6795   -8.5266    0.0000 H    0  0  0  0  0  0  0  0  0  0  0  0
   12.3030   -6.5056    0.0000 Br   0  5  0  0  0  0  0  0  0  0  0  0
  1  3  1  0  0  0  0
  1  4  1  0  0  0  0
  1 15  1  0  0  0  0
  1 26  1  1  0  0  0
  2  6  1  0  0  0  0
  2 12  1  0  0  0  0
  2 13  1  0  0  0  0
  2 27  1  1  0  0  0
  3  7  1  0  0  0  0
  3 11  1  0  0  0  0
  3 43  1  6  0  0  0
  4  5  1  0  0  0  0
  4 16  1  1  0  0  0
  5  8  1  1  0  0  0
  5 11  1  0  0  0  0
  6 18  1  0  0  0  0
  6  7  1  0  0  0  0
  6 42  1  6  0  0  0
  7 20  1  0  0  0  0
  7 41  1  1  0  0  0
  8 28  1  0  0  0  0
  8 29  1  0  0  0  0
  8 30  1  0  0  0  0
  9 12  1  0  0  0  0
  9 14  1  1  0  0  0
  9 10  1  0  0  0  0
 10 17  1  0  0  0  0
 10 19  1  6  0  0  0
 13 17  1  0  0  0  0
 13 23  1  0  0  0  0
 13 44  1  6  0  0  0
 14 31  1  0  0  0  0
 14 32  1  0  0  0  0
 15 18  1  0  0  0  0
 16 21  1  0  0  0  0
 19 22  1  0  0  0  0
 20 23  1  0  0  0  0
 21 24  2  0  0  0  0
 21 34  1  0  0  0  0
 22 25  2  0  0  0  0
 22 33  1  0  0  0  0
 29 35  1  0  0  0  0
 30 36  1  0  0  0  0
 31 37  1  0  0  0  0
 32 38  1  0  0  0  0
 35 39  1  0  0  0  0
 36 39  1  0  0  0  0
 37 40  1  0  0  0  0
 38 40  1  0  0  0  0
M  END
> <ID>
3338

> <Formula>
C34H57BrN2O4

> <FW>
637.7314 (557.8268+79.9045)

> <DSSTox_CID>
3736

> <DSSTox_RID>
77174

> <DSSTox_GSID>
23736

> <DSSTox_FileID_Sort>
1857

> <TS_ChemName>
Vecuronium bromide

> <TS_ChemName_Synonyms>


> <TS_CASRN>
50700-72-6

> <CASRN_ChemName_Relationship>
primary

> <TS_Description>
single chemical compound

> <ChemNote>
ammonium; stereochem; parent [86029-43-8]

> <STRUCTURE_Shown>
tested chemical

> <STRUCTURE_Formula>
C34H57BrN2O4

> <STRUCTURE_MW>
637.7314

> <STRUCTURE_ChemType>
defined organic

> <STRUCTURE_DefinedOrganicForm>
salt

> <STRUCTURE_IUPAC>
(2beta,3alpha,5alpha,16beta,17beta)-3,17-bis(acetyloxy)-16-(1-methylpiperidinium-1-yl)-2-(piperidin-1-yl)androstane bromide

> <STRUCTURE_SMILES>
[Br-].C[N+]1(CCCCC1)[C@H]6C[C@@H]5[C@](C)(CC[C@H]2[C@H]5CC[C@H]3C[C@H](OC(C)=O)[C@H](C[C@]23C)N4CCCCC4)[C@H]6OC(C)=O

> <STRUCTURE_SMILES_Desalt>
C[N+]1(CCCCC1)[C@H]6C[C@@H]5[C@](C)(CC[C@H]2[C@H]5CC[C@H]3C[C@H](OC(C)=O)[C@H](C[C@]23C)N4CCCCC4)[C@H]6OC(C)=O

> <Substance_modify_yyyymmdd>
20080429

$$$$
