5080-50-2
ChemmineR-0915142007XD

 15 13  0  0  1  0  0  0  0  0  2 V2000
    0.9594   -6.6623    0.0000 Cl   0  0  0  0  0  0  0  0  0  0  0  0
    1.1526   -3.3311    0.0000 C    0  0  0  0  0  0  0  0  0  0  0  0
    2.3051   -2.6582    0.0000 C    0  0  0  0  0  0  0  0  0  0  0  0
    4.6103   -1.3325    0.0000 N    0  3  0  0  0  0  0  0  0  0  0  0
    0.0000   -2.6582    0.0000 O    0  5  0  0  0  0  0  0  0  0  0  0
    1.1526   -4.6636    0.0000 O    0  0  0  0  0  0  0  0  0  0  0  0
    3.4577   -3.3311    0.0000 C    0  0  0  0  0  0  0  0  0  0  0  0
    4.6103   -2.6582    0.0000 C    0  0  0  0  0  0  0  0  0  0  0  0
    3.4577   -4.6636    0.0000 O    0  0  0  0  0  0  0  0  0  0  0  0
    5.9427   -1.3325    0.0000 C    0  0  0  0  0  0  0  0  0  0  0  0
    3.2845   -1.3325    0.0000 C    0  0  0  0  0  0  0  0  0  0  0  0
    4.6103    0.0000    0.0000 C    0  0  0  0  0  0  0  0  0  0  0  0
    4.6103   -5.3165    0.0000 C    0  0  0  0  0  0  0  0  0  0  0  0
    4.6103   -6.6489    0.0000 C    0  0  0  0  0  0  0  0  0  0  0  0
    5.7495   -4.6636    0.0000 O    0  0  0  0  0  0  0  0  0  0  0  0
  2  3  1  0  0  0  0
  2  5  1  0  0  0  0
  2  6  2  0  0  0  0
  3  7  1  0  0  0  0
  4  8  1  0  0  0  0
  4 10  1  0  0  0  0
  4 11  1  0  0  0  0
  4 12  1  0  0  0  0
  7  8  1  0  0  0  0
  7  9  1  6  0  0  0
  9 13  1  0  0  0  0
 13 14  1  0  0  0  0
 13 15  2  0  0  0  0
M  END
> <ID>
7890

> <Formula>
C9H18ClNO4

> <FW>
239.6965 (36.4609+203.2356)

> <DSSTox_CID>
20693

> <DSSTox_RID>
79546

> <DSSTox_GSID>
40693

> <DSSTox_FileID_Sort>
4228

> <TS_ChemName>
Acetyl-L-carnitine hydrochloride

> <TS_ChemName_Synonyms>


> <TS_CASRN>
5080-50-2

> <CASRN_ChemName_Relationship>
primary

> <TS_Description>
single chemical compound

> <ChemNote>
stereochem; parent [3040-38-8]

> <STRUCTURE_Shown>
tested chemical

> <STRUCTURE_Formula>
C9H18ClNO4

> <STRUCTURE_MW>
239.6965

> <STRUCTURE_ChemType>
defined organic

> <STRUCTURE_DefinedOrganicForm>
complex

> <STRUCTURE_IUPAC>
(3R)-3-(acetyloxy)-4-(trimethylammonio)butanoate hydrochloride (1:1)

> <STRUCTURE_SMILES>
Cl.O=C(C)O[C@H](CC([O-])=O)C[N+](C)(C)C

> <STRUCTURE_SMILES_Desalt>
O=C(C)O[C@H](CC(=O)O)C[N+](C)(C)C

> <Substance_modify_yyyymmdd>
20080429

$$$$
