50816-18-7
ChemmineR-0915142007XD

 14 13  0  0  0  0  0  0  0  0  1 V2000
    1.1572   -1.3087    0.0000 C   0  0  0  0  0  0  0  0  0  0  0  0
    1.1572    0.0000    0.0000 O   0  0  0  0  0  0  0  0  0  0  0  0
    2.3006   -1.9838    0.0000 O   0  0  0  0  0  0  0  0  0  0  0  0
    0.0000   -1.9838    0.0000 C   0  0  0  0  0  0  0  0  0  0  0  0
    3.4440   -1.3087    0.0000 C   0  0  0  0  0  0  0  0  0  0  0  0
    4.5874   -1.9838    0.0000 C   0  0  0  0  0  0  0  0  0  0  0  0
    5.7446   -1.3087    0.0000 C   0  0  0  0  0  0  0  0  0  0  0  0
    6.9018   -1.9838    0.0000 C   0  0  0  0  0  0  0  0  0  0  0  0
    8.0315   -1.3087    0.0000 C   0  0  0  0  0  0  0  0  0  0  0  0
    9.1887   -1.9838    0.0000 C   0  0  0  0  0  0  0  0  0  0  0  0
   10.3321   -1.3087    0.0000 C   0  0  0  0  0  0  0  0  0  0  0  0
   11.4893   -1.9838    0.0000 C   0  0  0  0  0  0  0  0  0  0  0  0
   12.6189   -1.3087    0.0000 C   0  0  0  0  0  0  0  0  0  0  0  0
   13.7761   -1.9838    0.0000 C   0  0  0  0  0  0  0  0  0  0  0  0
  1  2  2  0  0  0  0
  1  3  1  0  0  0  0
  1  4  1  0  0  0  0
  3  5  1  0  0  0  0
  5  6  1  0  0  0  0
  6  7  1  0  0  0  0
  7  8  1  0  0  0  0
  8  9  1  0  0  0  0
  9 10  1  0  0  0  0
 10 11  1  0  0  0  0
 11 12  1  0  0  0  0
 12 13  1  0  0  0  0
 13 14  2  0  0  0  0
M  END
> <ID>
12275

> <Formula>
C12H22O2

> <FW>
198.3019

> <DSSTox_CID>
27125

> <DSSTox_RID>
82132

> <DSSTox_GSID>
47125

> <DSSTox_FileID_Sort>
6813

> <TS_ChemName>
9-Decenyl acetate

> <TS_ChemName_Synonyms>


> <TS_CASRN>
50816-18-7

> <CASRN_ChemName_Relationship>
primary

> <TS_Description>
single chemical compound

> <ChemNote>


> <STRUCTURE_Shown>
tested chemical

> <STRUCTURE_Formula>
C12H22O2

> <STRUCTURE_MW>
198.3019

> <STRUCTURE_ChemType>
defined organic

> <STRUCTURE_DefinedOrganicForm>
parent

> <STRUCTURE_IUPAC>
dec-9-en-1-yl acetate

> <STRUCTURE_SMILES>
CC(=O)OCCCCCCCCC=C

> <STRUCTURE_SMILES_Desalt>
CC(=O)OCCCCCCCCC=C

> <Substance_modify_yyyymmdd>
20100429

$$$$
