50838-36-3
ChemmineR-0915142007XD

 23 26  0  0  0  0  0  0  0  0  1 V2000
    1.1388   -3.9447    0.0000 C   0  0  0  0  0  0  0  0  0  0  0  0
    2.2776   -4.6007    0.0000 N   0  0  0  0  0  0  0  0  0  0  0  0
    3.4163   -3.9447    0.0000 C   0  0  0  0  0  0  0  0  0  0  0  0
    4.5551   -4.6007    0.0000 S   0  0  0  0  0  0  0  0  0  0  0  0
    3.4163   -2.6238    0.0000 O   0  0  0  0  0  0  0  0  0  0  0  0
    4.5551   -1.9678    0.0000 C   0  0  0  0  0  0  0  0  0  0  0  0
    5.6939   -2.6238    0.0000 C   0  0  0  0  0  0  0  0  0  0  0  0
    6.8327   -1.9678    0.0000 C   0  0  0  0  0  0  0  0  0  0  0  0
    6.8327   -0.6559    0.0000 C   0  0  0  0  0  0  0  0  0  0  0  0
    5.6939    0.0000    0.0000 C   0  0  0  0  0  0  0  0  0  0  0  0
    4.5551   -0.6559    0.0000 C   0  0  0  0  0  0  0  0  0  0  0  0
    7.9715    0.0000    0.0000 C   0  0  0  0  0  0  0  0  0  0  0  0
    9.1103   -0.6559    0.0000 C   0  0  0  0  0  0  0  0  0  0  0  0
    9.1103   -1.9678    0.0000 C   0  0  0  0  0  0  0  0  0  0  0  0
    7.9715   -2.6238    0.0000 C   0  0  0  0  0  0  0  0  0  0  0  0
    8.7276   -1.3119    0.0000 C   0  0  0  0  0  0  0  0  0  0  0  0
    2.2776   -5.9126    0.0000 C   0  0  0  0  0  0  0  0  0  0  0  0
    1.1388   -6.5685    0.0000 C   0  0  0  0  0  0  0  0  0  0  0  0
    1.1388   -7.8895    0.0000 C   0  0  0  0  0  0  0  0  0  0  0  0
    2.2776   -8.5454    0.0000 C   0  0  0  0  0  0  0  0  0  0  0  0
    3.4163   -7.8895    0.0000 C   0  0  0  0  0  0  0  0  0  0  0  0
    3.4163   -6.5685    0.0000 C   0  0  0  0  0  0  0  0  0  0  0  0
    0.0000   -8.5454    0.0000 C   0  0  0  0  0  0  0  0  0  0  0  0
  1  2  1  0  0  0  0
  2  3  1  0  0  0  0
  2 17  1  0  0  0  0
  3  4  2  0  0  0  0
  3  5  1  0  0  0  0
  5  6  1  0  0  0  0
  6  7  2  0  0  0  0
  6 11  1  0  0  0  0
  7  8  1  0  0  0  0
  8  9  2  0  0  0  0
  8 15  1  0  0  0  0
  9 10  1  0  0  0  0
  9 12  1  0  0  0  0
 10 11  2  0  0  0  0
 12 13  1  0  0  0  0
 12 16  1  0  0  0  0
 13 14  1  0  0  0  0
 14 15  1  0  0  0  0
 15 16  1  0  0  0  0
 17 18  2  0  0  0  0
 17 22  1  0  0  0  0
 18 19  1  0  0  0  0
 19 20  2  0  0  0  0
 19 23  1  0  0  0  0
 20 21  1  0  0  0  0
 21 22  2  0  0  0  0
M  END
> <ID>
16158

> <Formula>
C20H21NOS

> <FW>
323.4518

> <DSSTox_CID>
31547

> <DSSTox_RID>
97432

> <DSSTox_GSID>
57758

> <DSSTox_FileID_Sort>
8499

> <TS_ChemName>
Tolciclate

> <TS_ChemName_Synonyms>


> <TS_CASRN>
50838-36-3

> <CASRN_ChemName_Relationship>
primary

> <TS_Description>
single chemical compound

> <ChemNote>


> <STRUCTURE_Shown>
tested chemical

> <STRUCTURE_Formula>
C20H21NOS

> <STRUCTURE_MW>
323.4518

> <STRUCTURE_ChemType>
defined organic

> <STRUCTURE_DefinedOrganicForm>
parent

> <STRUCTURE_IUPAC>
O-(1,2,3,4-tetrahydro-1,4-methanonaphthalen-6-yl) methyl(3-methylphenyl)carbamothioate

> <STRUCTURE_SMILES>
Cc1cc(ccc1)N(C)C(=S)Oc2ccc4c(c2)C3CCC4C3

> <STRUCTURE_SMILES_Desalt>
Cc1cc(ccc1)N(C)C(=S)Oc2ccc4c(c2)C3CCC4C3

> <Substance_modify_yyyymmdd>
20131018

$$$$
