50865-01-5
ChemmineR-0915142007XD

 44 46  0  0  0  0  0  0  0  0  2 V2000
    4.8118   -7.4997    0.0000 C    0  0  0  0  0  0  0  0  0  0  0  0
    8.4596   -3.8158    0.0000 C    0  0  0  0  0  0  0  0  0  0  0  0
    7.1757   -7.4997    0.0000 C    0  0  0  0  0  0  0  0  0  0  0  0
    4.8118   -2.0159    0.0000 C    0  0  0  0  0  0  0  0  0  0  0  0
    8.4596   -5.7117    0.0000 C    0  0  0  0  0  0  0  0  0  0  0  0
    3.5278   -3.8158    0.0000 C    0  0  0  0  0  0  0  0  0  0  0  0
    7.1757   -2.0159    0.0000 C    0  0  0  0  0  0  0  0  0  0  0  0
    3.5278   -5.7117    0.0000 C    0  0  0  0  0  0  0  0  0  0  0  0
    7.1757   -3.3838    0.0000 N    0  0  0  0  0  0  0  0  0  0  0  0
    4.8118   -6.0837    0.0000 N    0  0  0  0  0  0  0  0  0  0  0  0
    4.8118   -3.3838    0.0000 N    0  0  0  0  0  0  0  0  0  0  0  0
    7.1757   -6.0837    0.0000 N    0  0  0  0  0  0  0  0  0  0  0  0
    3.5278   -7.8716    0.0000 C    0  0  0  0  0  0  0  0  0  0  0  0
    8.4596   -7.8716    0.0000 C    0  0  0  0  0  0  0  0  0  0  0  0
    9.2396   -2.7359    0.0000 C    0  0  0  0  0  0  0  0  0  0  0  0
    3.5278   -1.5719    0.0000 C    0  0  0  0  0  0  0  0  0  0  0  0
    8.8316   -4.7998    0.0000 C    0  0  0  0  0  0  0  0  0  0  0  0
    5.9877   -8.1596    0.0000 C    0  0  0  0  0  0  0  0  0  0  0  0
    3.0239   -4.7278    0.0000 C    0  0  0  0  0  0  0  0  0  0  0  0
    5.9997   -1.3199    0.0000 C    0  0  0  0  0  0  0  0  0  0  0  0
    9.2396   -6.7797    0.0000 C    0  0  0  0  0  0  0  0  0  0  0  0
    2.7359   -2.7359    0.0000 C    0  0  0  0  0  0  0  0  0  0  0  0
    2.7359   -6.7797    0.0000 C    0  0  0  0  0  0  0  0  0  0  0  0
    8.4596   -1.5719    0.0000 C    0  0  0  0  0  0  0  0  0  0  0  0
    3.0359   -9.1916    0.0000 C    0  0  0  0  0  0  0  0  0  0  0  0
    8.9156   -9.1916    0.0000 C    0  0  0  0  0  0  0  0  0  0  0  0
    3.1439   -0.3120    0.0000 C    0  0  0  0  0  0  0  0  0  0  0  0
   10.5715   -2.7359    0.0000 C    0  0  0  0  0  0  0  0  0  0  0  0
    1.3679  -10.7155    0.0000 C    0  0  0  0  0  0  0  0  0  0  0  0
   10.7035  -10.7275    0.0000 C    0  0  0  0  0  0  0  0  0  0  0  0
    0.0000  -10.9555    0.0000 O    0  0  0  0  0  0  0  0  0  0  0  0
   11.9995  -11.0035    0.0000 O    0  0  0  0  0  0  0  0  0  0  0  0
    1.7399   -9.3956    0.0000 C    0  0  0  0  0  0  0  0  0  0  0  0
   10.2595   -9.4796    0.0000 C    0  0  0  0  0  0  0  0  0  0  0  0
    1.8479    0.0000    0.0000 C    0  0  0  0  0  0  0  0  0  0  0  0
   11.2555   -1.6199    0.0000 C    0  0  0  0  0  0  0  0  0  0  0  0
    2.1479  -11.7715    0.0000 O    0  5  0  0  0  0  0  0  0  0  0  0
    9.7916  -11.7715    0.0000 O    0  5  0  0  0  0  0  0  0  0  0  0
    1.3679   -2.7359    0.0000 C    0  0  0  0  0  0  0  0  0  0  0  0
   10.6195   -6.7797    0.0000 C    0  0  0  0  0  0  0  0  0  0  0  0
    8.9156   -0.2760    0.0000 C    0  0  0  0  0  0  0  0  0  0  0  0
    1.3679   -6.7797    0.0000 C    0  0  0  0  0  0  0  0  0  0  0  0
    3.8518  -11.7115    0.0000 Na   0  3  0  0  0  0  0  0  0  0  0  0
    8.4716  -11.6635    0.0000 Na   0  3  0  0  0  0  0  0  0  0  0  0
  1 10  1  0  0  0  0
  1 13  1  0  0  0  0
  1 18  2  0  0  0  0
  2 17  2  0  0  0  0
  2  9  1  0  0  0  0
  2 15  1  0  0  0  0
  3 18  1  0  0  0  0
  3 12  1  0  0  0  0
  3 14  2  0  0  0  0
  4 11  1  0  0  0  0
  4 20  2  0  0  0  0
  4 16  1  0  0  0  0
  5 12  1  0  0  0  0
  5 17  1  0  0  0  0
  5 21  2  0  0  0  0
  6 19  2  0  0  0  0
  6 11  1  0  0  0  0
  6 22  1  0  0  0  0
  7  9  2  0  0  0  0
  7 20  1  0  0  0  0
  7 24  1  0  0  0  0
  8 10  2  0  0  0  0
  8 19  1  0  0  0  0
  8 23  1  0  0  0  0
 13 23  2  0  0  0  0
 13 25  1  0  0  0  0
 14 21  1  0  0  0  0
 14 26  1  0  0  0  0
 15 24  2  0  0  0  0
 15 28  1  0  0  0  0
 16 22  2  0  0  0  0
 16 27  1  0  0  0  0
 21 40  1  0  0  0  0
 22 39  1  0  0  0  0
 23 42  1  0  0  0  0
 24 41  1  0  0  0  0
 25 33  1  0  0  0  0
 26 34  1  0  0  0  0
 27 35  2  0  0  0  0
 28 36  2  0  0  0  0
 29 33  1  0  0  0  0
 29 31  2  0  0  0  0
 29 37  1  0  0  0  0
 30 34  1  0  0  0  0
 30 32  2  0  0  0  0
 30 38  1  0  0  0  0
M  END
> <ID>
11812

> <Formula>
C34H32N4Na2O4

> <FW>
606.6218 (560.6434+22.9892+22.9892)

> <DSSTox_CID>
26589

> <DSSTox_RID>
81747

> <DSSTox_GSID>
46589

> <DSSTox_FileID_Sort>
6428

> <TS_ChemName>
Protoporphyrin disodium

> <TS_ChemName_Synonyms>


> <TS_CASRN>
50865-01-5

> <CASRN_ChemName_Relationship>
primary

> <TS_Description>
single chemical compound

> <ChemNote>
parent [553-12-8]

> <STRUCTURE_Shown>
tested chemical

> <STRUCTURE_Formula>
C34H32N4Na2O4

> <STRUCTURE_MW>
606.6218

> <STRUCTURE_ChemType>
defined organic

> <STRUCTURE_DefinedOrganicForm>
salt

> <STRUCTURE_IUPAC>
disodium 3,3'-(7,12-diethenyl-3,8,13,17-tetramethylporphyrin-2,18-diyl)dipropanoate

> <STRUCTURE_SMILES>
[Na+].[Na+].[O-]C(=O)CCc2c(C)c1cc5nc(cc4nc(cc3nc(cc2n1)C(CCC([O-])=O)=C3C)c(C)c4C=C)C(C)=C5C=C

> <STRUCTURE_SMILES_Desalt>
O=C(O)CCc2c(C)c1cc5nc(cc4nc(cc3nc(cc2n1)C(CCC(=O)O)=C3C)c(C)c4C=C)C(C)=C5C=C

> <Substance_modify_yyyymmdd>
20110810

$$$$
