5089-70-3
ChemmineR-0915142007XD

 14 13  0  0  0  0  0  0  0  0  1 V2000
    4.6064   -3.4530    0.0000 Si   0  0  0  0  0  0  0  0  0  0  0  0
    3.4530   -2.7832    0.0000 C    0  0  0  0  0  0  0  0  0  0  0  0
    2.2997   -3.4530    0.0000 C    0  0  0  0  0  0  0  0  0  0  0  0
    1.1533   -2.7832    0.0000 C    0  0  0  0  0  0  0  0  0  0  0  0
    0.0000   -3.4530    0.0000 Cl   0  0  0  0  0  0  0  0  0  0  0  0
    3.9296   -4.6064    0.0000 O    0  0  0  0  0  0  0  0  0  0  0  0
    4.6064   -5.7528    0.0000 C    0  0  0  0  0  0  0  0  0  0  0  0
    3.9296   -6.9061    0.0000 C    0  0  0  0  0  0  0  0  0  0  0  0
    5.2624   -2.2997    0.0000 O    0  0  0  0  0  0  0  0  0  0  0  0
    4.6064   -1.1533    0.0000 C    0  0  0  0  0  0  0  0  0  0  0  0
    5.2624    0.0000    0.0000 C    0  0  0  0  0  0  0  0  0  0  0  0
    5.7528   -4.1229    0.0000 O    0  0  0  0  0  0  0  0  0  0  0  0
    5.7528   -5.4489    0.0000 C    0  0  0  0  0  0  0  0  0  0  0  0
    6.9061   -6.1050    0.0000 C    0  0  0  0  0  0  0  0  0  0  0  0
  1  2  1  0  0  0  0
  1  6  1  0  0  0  0
  1  9  1  0  0  0  0
  1 12  1  0  0  0  0
  2  3  1  0  0  0  0
  3  4  1  0  0  0  0
  4  5  1  0  0  0  0
  6  7  1  0  0  0  0
  7  8  1  0  0  0  0
  9 10  1  0  0  0  0
 10 11  1  0  0  0  0
 12 13  1  0  0  0  0
 13 14  1  0  0  0  0
M  END
> <ID>
5906

> <Formula>
C9H21ClO3Si

> <FW>
240.7997

> <DSSTox_CID>
9267

> <DSSTox_RID>
78741

> <DSSTox_GSID>
29267

> <DSSTox_FileID_Sort>
3423

> <TS_ChemName>
(3-Chloropropyl)(triethoxy)silane

> <TS_ChemName_Synonyms>


> <TS_CASRN>
5089-70-3

> <CASRN_ChemName_Relationship>
primary

> <TS_Description>
single chemical compound

> <ChemNote>


> <STRUCTURE_Shown>
tested chemical

> <STRUCTURE_Formula>
C9H21ClO3Si

> <STRUCTURE_MW>
240.7997

> <STRUCTURE_ChemType>
organometallic

> <STRUCTURE_DefinedOrganicForm>


> <STRUCTURE_IUPAC>
(3-chloropropyl)(triethoxy)silane

> <STRUCTURE_SMILES>
CCO[Si](OCC)(OCC)CCCCl

> <STRUCTURE_SMILES_Desalt>
CCO[Si](OCC)(OCC)CCCCl

> <Substance_modify_yyyymmdd>
20080429

$$$$
