509-78-4
ChemmineR-0915142007XD

 24 25  0  0  0  0  0  0  0  0  1 V2000
    0.8027   -0.3589    0.0000 C   0  0  0  0  0  0  0  0  0  0  0  0
    1.4638   -1.4921    0.0000 C   0  0  0  0  0  0  0  0  0  0  0  0
    2.7954   -1.4921    0.0000 O   0  0  0  0  0  0  0  0  0  0  0  0
    3.4564   -2.6537    0.0000 C   0  0  0  0  0  0  0  0  0  0  0  0
    4.1270   -3.8059    0.0000 C   0  0  0  0  0  0  0  0  0  0  0  0
    3.4564   -4.9675    0.0000 O   0  0  0  0  0  0  0  0  0  0  0  0
    5.4491   -3.8059    0.0000 O   0  0  0  0  0  0  0  0  0  0  0  0
    6.1007   -4.9675    0.0000 C   0  0  0  0  0  0  0  0  0  0  0  0
    7.4323   -4.9675    0.0000 C   0  0  0  0  0  0  0  0  0  0  0  0
    8.1122   -6.1102    0.0000 N   0  0  0  0  0  0  0  0  0  0  0  0
    7.4323   -7.2623    0.0000 C   0  0  0  0  0  0  0  0  0  0  0  0
    9.4438   -6.1102    0.0000 C   0  0  0  0  0  0  0  0  0  0  0  0
    2.3137   -3.3242    0.0000 C   0  0  0  0  0  0  0  0  0  0  0  0
    1.1521   -2.6537    0.0000 C   0  0  0  0  0  0  0  0  0  0  0  0
    0.0000   -3.3242    0.0000 C   0  0  0  0  0  0  0  0  0  0  0  0
    0.0000   -4.6558    0.0000 C   0  0  0  0  0  0  0  0  0  0  0  0
    1.1521   -5.3169    0.0000 C   0  0  0  0  0  0  0  0  0  0  0  0
    2.3137   -4.6464    0.0000 C   0  0  0  0  0  0  0  0  0  0  0  0
    4.6086   -1.9926    0.0000 C   0  0  0  0  0  0  0  0  0  0  0  0
    5.7702   -2.6537    0.0000 C   0  0  0  0  0  0  0  0  0  0  0  0
    6.9034   -1.9926    0.0000 C   0  0  0  0  0  0  0  0  0  0  0  0
    6.9034   -0.6611    0.0000 C   0  0  0  0  0  0  0  0  0  0  0  0
    5.7702    0.0000    0.0000 C   0  0  0  0  0  0  0  0  0  0  0  0
    4.6086   -0.6611    0.0000 C   0  0  0  0  0  0  0  0  0  0  0  0
  1  2  1  0  0  0  0
  2  3  1  0  0  0  0
  3  4  1  0  0  0  0
  4  5  1  0  0  0  0
  4 13  1  0  0  0  0
  4 19  1  0  0  0  0
  5  6  2  0  0  0  0
  5  7  1  0  0  0  0
  7  8  1  0  0  0  0
  8  9  1  0  0  0  0
  9 10  1  0  0  0  0
 10 11  1  0  0  0  0
 10 12  1  0  0  0  0
 13 14  2  0  0  0  0
 13 18  1  0  0  0  0
 14 15  1  0  0  0  0
 15 16  2  0  0  0  0
 16 17  1  0  0  0  0
 17 18  2  0  0  0  0
 19 20  2  0  0  0  0
 19 24  1  0  0  0  0
 20 21  1  0  0  0  0
 21 22  2  0  0  0  0
 22 23  1  0  0  0  0
 23 24  2  0  0  0  0
M  END
> <ID>
16159

> <Formula>
C20H25NO3

> <FW>
327.4174

> <DSSTox_CID>
31548

> <DSSTox_RID>
97433

> <DSSTox_GSID>
57759

> <DSSTox_FileID_Sort>
8500

> <TS_ChemName>
Dimenoxadol

> <TS_ChemName_Synonyms>


> <TS_CASRN>
509-78-4

> <CASRN_ChemName_Relationship>
primary

> <TS_Description>
single chemical compound

> <ChemNote>


> <STRUCTURE_Shown>
tested chemical

> <STRUCTURE_Formula>
C20H25NO3

> <STRUCTURE_MW>
327.4174

> <STRUCTURE_ChemType>
defined organic

> <STRUCTURE_DefinedOrganicForm>
parent

> <STRUCTURE_IUPAC>
2-(dimethylamino)ethyl ethoxy(diphenyl)acetate

> <STRUCTURE_SMILES>
CN(C)CCOC(=O)C(OCC)(c1ccccc1)c2ccccc2

> <STRUCTURE_SMILES_Desalt>
CN(C)CCOC(=O)C(OCC)(c1ccccc1)c2ccccc2

> <Substance_modify_yyyymmdd>
20131018

$$$$
