509-60-4
ChemmineR-0915142007XD

 22 26  0  0  1  0  0  0  0  0  1 V2000
    2.2324   -3.9116    0.0000 C   0  0  0  0  0  0  0  0  0  0  0  0
    2.2324   -2.6275    0.0000 C   0  0  0  0  0  0  0  0  0  0  0  0
    1.1261   -1.9755    0.0000 C   0  0  0  0  0  0  0  0  0  0  0  0
    1.1261   -4.6096    0.0000 C   0  0  0  0  0  0  0  0  0  0  0  0
    3.3584   -4.5767    0.0000 C   0  0  0  0  0  0  0  0  0  0  0  0
    0.3622   -3.2596    0.0000 O   0  0  0  0  0  0  0  0  0  0  0  0
    4.5108   -3.9116    0.0000 C   0  0  0  0  0  0  0  0  0  0  0  0
    3.3584   -1.9492    0.0000 C   0  0  0  0  0  0  0  0  0  0  0  0
    4.5108   -2.5945    0.0000 C   0  0  0  0  0  0  0  0  0  0  0  0
    5.1298   -4.5437    0.0000 N   0  0  0  0  0  0  0  0  0  0  0  0
    2.2653   -5.2418    0.0000 C   0  0  0  0  0  0  0  0  0  0  0  0
    3.3584   -5.9200    0.0000 C   0  0  0  0  0  0  0  0  0  0  0  0
    1.1261   -0.6651    0.0000 C   0  0  0  0  0  0  0  0  0  0  0  0
    1.1261   -5.9200    0.0000 C   0  0  0  0  0  0  0  0  0  0  0  0
    4.7676   -5.2418    0.0000 C   0  0  0  0  0  0  0  0  0  0  0  0
    3.3584   -0.6651    0.0000 C   0  0  0  0  0  0  0  0  0  0  0  0
    2.2653   -6.5522    0.0000 C   0  0  0  0  0  0  0  0  0  0  0  0
    2.2653    0.0000    0.0000 C   0  0  0  0  0  0  0  0  0  0  0  0
    0.0000    0.0000    0.0000 O   0  0  0  0  0  0  0  0  0  0  0  0
    0.0000   -6.5851    0.0000 O   0  0  0  0  0  0  0  0  0  0  0  0
    6.3481   -4.5437    0.0000 C   0  0  0  0  0  0  0  0  0  0  0  0
    3.3584   -3.2596    0.0000 H   0  0  0  0  0  0  0  0  0  0  0  0
  1  2  1  0  0  0  0
  1  4  1  0  0  0  0
  1  5  1  0  0  0  0
  1 11  1  1  0  0  0
  2  3  1  0  0  0  0
  2  8  2  0  0  0  0
  3 13  2  0  0  0  0
  3  6  1  0  0  0  0
  4  6  1  6  0  0  0
  4 14  1  0  0  0  0
  5  7  1  0  0  0  0
  5 12  1  0  0  0  0
  5 22  1  1  0  0  0
  7  9  1  0  0  0  0
  7 10  1  1  0  0  0
  8 16  1  0  0  0  0
  8  9  1  0  0  0  0
 10 15  1  0  0  0  0
 10 21  1  0  0  0  0
 11 15  1  0  0  0  0
 12 17  1  0  0  0  0
 13 19  1  0  0  0  0
 13 18  1  0  0  0  0
 14 20  1  6  0  0  0
 14 17  1  0  0  0  0
 16 18  2  0  0  0  0
M  END
> <ID>
13897

> <Formula>
C17H21NO3

> <FW>
287.3535

> <DSSTox_CID>
28834

> <DSSTox_RID>
83103

> <DSSTox_GSID>
48908

> <DSSTox_FileID_Sort>
7780

> <TS_ChemName>
Dihydromorphine

> <TS_ChemName_Synonyms>


> <TS_CASRN>
509-60-4

> <CASRN_ChemName_Relationship>
primary

> <TS_Description>
single chemical compound

> <ChemNote>


> <STRUCTURE_Shown>
tested chemical

> <STRUCTURE_Formula>
C17H21NO3

> <STRUCTURE_MW>
287.3535

> <STRUCTURE_ChemType>
defined organic

> <STRUCTURE_DefinedOrganicForm>
parent

> <STRUCTURE_IUPAC>
(5alpha,6alpha)-17-methyl-4,5-epoxymorphinan-3,6-diol

> <STRUCTURE_SMILES>
Oc1ccc2C[C@H]4N(C)CC[C@@]35[C@@H](Oc1c23)[C@@H](O)CC[C@@H]45

> <STRUCTURE_SMILES_Desalt>
Oc1ccc2C[C@H]4N(C)CC[C@@]35[C@@H](Oc1c23)[C@@H](O)CC[C@@H]45

> <Substance_modify_yyyymmdd>
20111204

$$$$
