50903-99-6
ChemmineR-0915142007XD

 16 15  0  0  1  0  0  0  0  0  2 V2000
    3.6482   -1.6537    0.0000 C   0  0  0  0  0  0  0  0  0  0  0  0
   10.4271   -1.6537    0.0000 C   0  0  0  0  0  0  0  0  0  0  0  0
    2.5247   -2.3101    0.0000 N   0  0  0  0  0  0  0  0  0  0  0  0
   10.4271   -0.3535    0.0000 O   0  0  0  0  0  0  0  0  0  0  0  0
    4.7844   -2.3101    0.0000 N   0  0  0  0  0  0  0  0  0  0  0  0
    9.3036   -2.3101    0.0000 C   0  0  0  0  0  0  0  0  0  0  0  0
    3.6482   -0.3535    0.0000 N   0  0  0  0  0  0  0  0  0  0  0  0
    9.3036   -3.6104    0.0000 N   0  0  0  0  0  0  0  0  0  0  0  0
    5.9079   -1.6537    0.0000 C   0  0  0  0  0  0  0  0  0  0  0  0
    8.1675   -1.6537    0.0000 C   0  0  0  0  0  0  0  0  0  0  0  0
    7.0440   -2.3101    0.0000 C   0  0  0  0  0  0  0  0  0  0  0  0
   11.5633   -2.3101    0.0000 O   0  0  0  0  0  0  0  0  0  0  0  0
    1.2750   -1.3760    0.0000 N   0  3  0  0  0  0  0  0  0  0  0  0
    1.4265    0.0000    0.0000 O   0  0  0  0  0  0  0  0  0  0  0  0
    0.0000   -1.9314    0.0000 O   0  5  0  0  0  0  0  0  0  0  0  0
   12.6237   -1.6285    0.0000 C   0  0  0  0  0  0  0  0  0  0  0  0
  1  3  2  0  0  0  0
  1  5  1  0  0  0  0
  1  7  1  0  0  0  0
  2  6  1  0  0  0  0
  2  4  2  0  0  0  0
  2 12  1  0  0  0  0
  3 13  1  0  0  0  0
  5  9  1  0  0  0  0
  6 10  1  0  0  0  0
  6  8  1  1  0  0  0
  9 11  1  0  0  0  0
 10 11  1  0  0  0  0
 12 16  1  0  0  0  0
 13 14  2  0  0  0  0
 13 15  1  0  0  0  0
M  END
> <ID>
7792

> <Formula>
C7H15N5O4

> <FW>
233.2251

> <DSSTox_CID>
20540

> <DSSTox_RID>
79504

> <DSSTox_GSID>
40540

> <DSSTox_FileID_Sort>
4186

> <TS_ChemName>
L-Nitroarginine methyl ester

> <TS_ChemName_Synonyms>
NG-Nitroarginine methyl ester (L-NAME)

> <TS_CASRN>
50903-99-6

> <CASRN_ChemName_Relationship>
primary

> <TS_Description>
single chemical compound

> <ChemNote>
stereochem

> <STRUCTURE_Shown>
tested chemical

> <STRUCTURE_Formula>
C7H15N5O4

> <STRUCTURE_MW>
233.2251

> <STRUCTURE_ChemType>
defined organic

> <STRUCTURE_DefinedOrganicForm>
parent

> <STRUCTURE_IUPAC>
methyl N~5~-(N'-nitrocarbamimidoyl)-L-ornithinate

> <STRUCTURE_SMILES>
N[C@@H](CCCNC(\N)=N\[N+]([O-])=O)C(=O)OC

> <STRUCTURE_SMILES_Desalt>
N[C@@H](CCCNC(\N)=N\[N+]([O-])=O)C(=O)OC

> <Substance_modify_yyyymmdd>
20080429

$$$$
