50924-49-7
ChemmineR-0915142007XD

 18 19  0  0  1  0  0  0  0  0  1 V2000
    3.3694    0.0000    0.0000 N   0  0  0  0  0  0  0  0  0  0  0  0
    2.9110   -1.2464    0.0000 C   0  0  0  0  0  0  0  0  0  0  0  0
    1.6002   -1.4716    0.0000 O   0  0  0  0  0  0  0  0  0  0  0  0
    3.6910   -2.3159    0.0000 C   0  0  0  0  0  0  0  0  0  0  0  0
    3.3131   -3.5945    0.0000 C   0  0  0  0  0  0  0  0  0  0  0  0
    2.0425   -4.0127    0.0000 O   0  0  0  0  0  0  0  0  0  0  0  0
    4.3987   -4.3504    0.0000 N   0  0  0  0  0  0  0  0  0  0  0  0
    5.4521   -3.5623    0.0000 C   0  0  0  0  0  0  0  0  0  0  0  0
    5.0178   -2.2998    0.0000 N   0  0  0  0  0  0  0  0  0  0  0  0
    4.4147   -5.6933    0.0000 C   0  0  0  0  0  0  0  0  0  0  0  0
    3.3533   -4.8731    0.0000 O   0  0  0  0  0  0  0  0  0  0  0  0
    2.2677   -5.6290    0.0000 C   0  0  0  0  0  0  0  0  0  0  0  0
    1.0052   -5.1787    0.0000 C   0  0  0  0  0  0  0  0  0  0  0  0
    0.0000   -6.0391    0.0000 O   0  0  0  0  0  0  0  0  0  0  0  0
    2.6376   -6.9076    0.0000 C   0  0  0  0  0  0  0  0  0  0  0  0
    1.8415   -7.9610    0.0000 O   0  0  0  0  0  0  0  0  0  0  0  0
    3.9805   -6.9397    0.0000 C   0  0  0  0  0  0  0  0  0  0  0  0
    4.7284   -8.0414    0.0000 O   0  0  0  0  0  0  0  0  0  0  0  0
  1  2  1  0  0  0  0
  2  3  2  0  0  0  0
  2  4  1  0  0  0  0
  4  5  2  0  0  0  0
  4  9  1  0  0  0  0
  5  6  1  0  0  0  0
  5  7  1  0  0  0  0
  7  8  1  0  0  0  0
 10  7  1  1  0  0  0
  8  9  2  0  0  0  0
 10 11  1  0  0  0  0
 10 17  1  0  0  0  0
 11 12  1  0  0  0  0
 12 13  1  1  0  0  0
 12 15  1  0  0  0  0
 13 14  1  0  0  0  0
 15 16  1  6  0  0  0
 15 17  1  0  0  0  0
 17 18  1  6  0  0  0
M  END
> <ID>
11187

> <Formula>
C9H13N3O6

> <FW>
259.216

> <DSSTox_CID>
25777

> <DSSTox_RID>
81119

> <DSSTox_GSID>
45777

> <DSSTox_FileID_Sort>
5800

> <TS_ChemName>
Mizoribine

> <TS_ChemName_Synonyms>


> <TS_CASRN>
50924-49-7

> <CASRN_ChemName_Relationship>
primary

> <TS_Description>
single chemical compound

> <ChemNote>
stereochem; tautomers

> <STRUCTURE_Shown>
tested chemical

> <STRUCTURE_Formula>
C9H13N3O6

> <STRUCTURE_MW>
259.216

> <STRUCTURE_ChemType>
defined organic

> <STRUCTURE_DefinedOrganicForm>
parent

> <STRUCTURE_IUPAC>
5-hydroxy-1-(beta-D-ribofuranosyl)-1H-imidazole-4-carboxamide

> <STRUCTURE_SMILES>
NC(=O)c2ncn([C@@H]1O[C@H](CO)[C@@H](O)[C@H]1O)c2O

> <STRUCTURE_SMILES_Desalt>
NC(=O)c2ncn([C@@H]1O[C@H](CO)[C@@H](O)[C@H]1O)c2O

> <Substance_modify_yyyymmdd>
20110902

$$$$
