50978-11-5
ChemmineR-0915142007XD

 22 20  0  0  0  0  0  0  0  0  1 V2000
    5.7504   -4.0234    0.0000 C   0  0  0  0  0  0  0  0  0  0  0  0
    5.7504   -2.6639    0.0000 C   0  0  0  0  0  0  0  0  0  0  0  0
    4.6021   -4.6572    0.0000 C   0  0  0  0  0  0  0  0  0  0  0  0
    6.9170   -4.6572    0.0000 N   0  0  0  0  0  0  0  0  0  0  0  0
    4.6021   -1.9842    0.0000 C   0  0  0  0  0  0  0  0  0  0  0  0
    6.9170   -1.9842    0.0000 I   0  0  0  0  0  0  0  0  0  0  0  0
    3.4355   -4.0234    0.0000 C   0  0  0  0  0  0  0  0  0  0  0  0
    4.6021   -5.9525    0.0000 I   0  0  0  0  0  0  0  0  0  0  0  0
    8.0376   -4.0234    0.0000 C   0  0  0  0  0  0  0  0  0  0  0  0
    3.4355   -2.6639    0.0000 C   0  0  0  0  0  0  0  0  0  0  0  0
    4.6021   -0.6889    0.0000 C   0  0  0  0  0  0  0  0  0  0  0  0
    2.2689   -4.6572    0.0000 N   0  0  0  0  0  0  0  0  0  0  0  0
    8.0376   -2.6639    0.0000 C   0  0  0  0  0  0  0  0  0  0  0  0
    9.1859   -4.6572    0.0000 O   0  0  0  0  0  0  0  0  0  0  0  0
    2.2689   -1.9842    0.0000 I   0  0  0  0  0  0  0  0  0  0  0  0
    3.4355    0.0000    0.0000 O   0  0  0  0  0  0  0  0  0  0  0  0
    5.7504    0.0000    0.0000 O   0  0  0  0  0  0  0  0  0  0  0  0
    1.1207   -4.0234    0.0000 C   0  0  0  0  0  0  0  0  0  0  0  0
    1.1207   -2.6639    0.0000 C   0  0  0  0  0  0  0  0  0  0  0  0
    0.0000   -4.6572    0.0000 O   0  0  0  0  0  0  0  0  0  0  0  0
    2.1587   -6.7792    0.0000 O   0  0  0  0  0  0  0  0  0  0  0  0
    4.6848   -6.8251    0.0000 O   0  0  0  0  0  0  0  0  0  0  0  0
  1  2  2  0  0  0  0
  1  3  1  0  0  0  0
  1  4  1  0  0  0  0
  2  5  1  0  0  0  0
  2  6  1  0  0  0  0
  3  7  2  0  0  0  0
  3  8  1  0  0  0  0
  4  9  1  0  0  0  0
  5 10  2  0  0  0  0
  5 11  1  0  0  0  0
  7 12  1  0  0  0  0
  7 10  1  0  0  0  0
  9 13  1  0  0  0  0
  9 14  2  0  0  0  0
 10 15  1  0  0  0  0
 11 16  1  0  0  0  0
 11 17  2  0  0  0  0
 12 18  1  0  0  0  0
 18 19  1  0  0  0  0
 18 20  2  0  0  0  0
M  END
> <ID>
13948

> <Formula>
C11H13I3N2O6

> <FW>
649.9441 (613.9136+18.0153+18.0153)

> <DSSTox_CID>
28886

> <DSSTox_RID>
83154

> <DSSTox_GSID>
48960

> <DSSTox_FileID_Sort>
7831

> <TS_ChemName>
Diatrizoic acid dihydrate

> <TS_ChemName_Synonyms>


> <TS_CASRN>
50978-11-5

> <CASRN_ChemName_Relationship>
primary

> <TS_Description>
single chemical compound

> <ChemNote>
parent [117-96-4]

> <STRUCTURE_Shown>
tested chemical

> <STRUCTURE_Formula>
C11H13I3N2O6

> <STRUCTURE_MW>
649.9441

> <STRUCTURE_ChemType>
defined organic

> <STRUCTURE_DefinedOrganicForm>
complex

> <STRUCTURE_IUPAC>
3,5-bis(acetylamino)-2,4,6-triiodobenzoic acid dihydrate

> <STRUCTURE_SMILES>
O.O.O=C(C)Nc1c(I)c(c(I)c(NC(C)=O)c1I)C(=O)O

> <STRUCTURE_SMILES_Desalt>
O=C(C)Nc1c(I)c(c(I)c(NC(C)=O)c1I)C(=O)O

> <Substance_modify_yyyymmdd>
20111204

$$$$
