51-05-8
ChemmineR-0915142007XD

 18 17  0  0  0  0  0  0  0  0  1 V2000
    4.6040   -1.3352    0.0000 C    0  0  0  0  0  0  0  0  0  0  0  0
    3.4622   -1.9797    0.0000 C    0  0  0  0  0  0  0  0  0  0  0  0
    4.6040    0.0000    0.0000 O    0  0  0  0  0  0  0  0  0  0  0  0
    2.3020   -1.3352    0.0000 C    0  0  0  0  0  0  0  0  0  0  0  0
    3.4622   -3.3333    0.0000 C    0  0  0  0  0  0  0  0  0  0  0  0
    5.7642   -1.9797    0.0000 O    0  0  0  0  0  0  0  0  0  0  0  0
    1.1418   -3.3333    0.0000 C    0  0  0  0  0  0  0  0  0  0  0  0
    8.0662   -3.3333    0.0000 N    0  0  0  0  0  0  0  0  0  0  0  0
    0.0000   -3.9963    0.0000 N    0  0  0  0  0  0  0  0  0  0  0  0
    2.3020   -3.9963    0.0000 C    0  0  0  0  0  0  0  0  0  0  0  0
    1.1418   -1.9797    0.0000 C    0  0  0  0  0  0  0  0  0  0  0  0
    6.9060   -1.3352    0.0000 C    0  0  0  0  0  0  0  0  0  0  0  0
    8.0662   -1.9797    0.0000 C    0  0  0  0  0  0  0  0  0  0  0  0
    6.9060   -3.9963    0.0000 C    0  0  0  0  0  0  0  0  0  0  0  0
    9.2080   -3.9963    0.0000 C    0  0  0  0  0  0  0  0  0  0  0  0
    6.9060   -5.3130    0.0000 C    0  0  0  0  0  0  0  0  0  0  0  0
    9.2080   -5.3130    0.0000 C    0  0  0  0  0  0  0  0  0  0  0  0
    4.5211   -4.8618    0.0000 Cl   0  0  0  0  0  0  0  0  0  0  0  0
  1  2  1  0  0  0  0
  1  3  2  0  0  0  0
  1  6  1  0  0  0  0
  2  4  1  0  0  0  0
  2  5  2  0  0  0  0
  4 11  2  0  0  0  0
  5 10  1  0  0  0  0
  6 12  1  0  0  0  0
  7 10  2  0  0  0  0
  7  9  1  0  0  0  0
  7 11  1  0  0  0  0
  8 13  1  0  0  0  0
  8 14  1  0  0  0  0
  8 15  1  0  0  0  0
 12 13  1  0  0  0  0
 14 16  1  0  0  0  0
 15 17  1  0  0  0  0
M  END
> <ID>
10092

> <Formula>
C13H21ClN2O2

> <FW>
272.7710 (236.3101+36.4609)

> <DSSTox_CID>
24435

> <DSSTox_RID>
80225

> <DSSTox_GSID>
44435

> <DSSTox_FileID_Sort>
4907

> <TS_ChemName>
Procaine hydrochloride

> <TS_ChemName_Synonyms>


> <TS_CASRN>
51-05-8

> <CASRN_ChemName_Relationship>
primary

> <TS_Description>
single chemical compound

> <ChemNote>
parent [59-46-1]

> <STRUCTURE_Shown>
tested chemical

> <STRUCTURE_Formula>
C13H21ClN2O2

> <STRUCTURE_MW>
272.771

> <STRUCTURE_ChemType>
defined organic

> <STRUCTURE_DefinedOrganicForm>
complex

> <STRUCTURE_IUPAC>
2-(diethylamino)ethyl 4-aminobenzoate hydrochloride (1:1)

> <STRUCTURE_SMILES>
Cl.Nc1ccc(cc1)C(=O)OCCN(CC)CC

> <STRUCTURE_SMILES_Desalt>
Nc1ccc(cc1)C(=O)OCCN(CC)CC

> <Substance_modify_yyyymmdd>
20091116

$$$$
