51-03-6
ChemmineR-0915142007XD

 24 25  0  0  0  0  0  0  0  0  1 V2000
   16.1183    0.0000    0.0000 C   0  0  0  0  0  0  0  0  0  0  0  0
   16.1183   -1.3346    0.0000 C   0  0  0  0  0  0  0  0  0  0  0  0
   14.9718   -2.0020    0.0000 C   0  0  0  0  0  0  0  0  0  0  0  0
   14.9718   -3.3195    0.0000 C   0  0  0  0  0  0  0  0  0  0  0  0
   16.1183   -3.9868    0.0000 C   0  0  0  0  0  0  0  0  0  0  0  0
   16.1183   -5.3214    0.0000 C   0  0  0  0  0  0  0  0  0  0  0  0
   14.9718   -5.9887    0.0000 C   0  0  0  0  0  0  0  0  0  0  0  0
   13.8254   -5.3214    0.0000 C   0  0  0  0  0  0  0  0  0  0  0  0
   13.8254   -3.9868    0.0000 C   0  0  0  0  0  0  0  0  0  0  0  0
   12.6619   -3.3195    0.0000 C   0  0  0  0  0  0  0  0  0  0  0  0
   11.5155   -3.9868    0.0000 O   0  0  0  0  0  0  0  0  0  0  0  0
   10.3691   -3.3195    0.0000 C   0  0  0  0  0  0  0  0  0  0  0  0
    9.2055   -3.9868    0.0000 C   0  0  0  0  0  0  0  0  0  0  0  0
    8.0591   -3.3195    0.0000 O   0  0  0  0  0  0  0  0  0  0  0  0
    6.9127   -3.9868    0.0000 C   0  0  0  0  0  0  0  0  0  0  0  0
    5.7663   -3.3195    0.0000 C   0  0  0  0  0  0  0  0  0  0  0  0
    4.6028   -3.9868    0.0000 O   0  0  0  0  0  0  0  0  0  0  0  0
    3.4564   -3.3195    0.0000 C   0  0  0  0  0  0  0  0  0  0  0  0
    2.3099   -3.9868    0.0000 C   0  0  0  0  0  0  0  0  0  0  0  0
    1.1464   -3.3195    0.0000 C   0  0  0  0  0  0  0  0  0  0  0  0
    0.0000   -3.9868    0.0000 C   0  0  0  0  0  0  0  0  0  0  0  0
   15.2456   -7.2892    0.0000 O   0  0  0  0  0  0  0  0  0  0  0  0
   16.5631   -7.4260    0.0000 C   0  0  0  0  0  0  0  0  0  0  0  0
   17.1107   -6.2112    0.0000 O   0  0  0  0  0  0  0  0  0  0  0  0
  1  2  1  0  0  0  0
  2  3  1  0  0  0  0
  3  4  1  0  0  0  0
  4  5  2  0  0  0  0
  4  9  1  0  0  0  0
  5  6  1  0  0  0  0
  6  7  2  0  0  0  0
  6 24  1  0  0  0  0
  7  8  1  0  0  0  0
  7 22  1  0  0  0  0
  8  9  2  0  0  0  0
  9 10  1  0  0  0  0
 10 11  1  0  0  0  0
 11 12  1  0  0  0  0
 12 13  1  0  0  0  0
 13 14  1  0  0  0  0
 14 15  1  0  0  0  0
 15 16  1  0  0  0  0
 16 17  1  0  0  0  0
 17 18  1  0  0  0  0
 18 19  1  0  0  0  0
 19 20  1  0  0  0  0
 20 21  1  0  0  0  0
 22 23  1  0  0  0  0
 23 24  1  0  0  0  0
M  END
> <ID>
1122

> <Formula>
C19H30O5

> <FW>
338.4385

> <DSSTox_CID>
1166

> <DSSTox_RID>
75988

> <DSSTox_GSID>
21166

> <DSSTox_FileID_Sort>
672

> <TS_ChemName>
Piperonyl butoxide

> <TS_ChemName_Synonyms>


> <TS_CASRN>
51-03-6

> <CASRN_ChemName_Relationship>
primary

> <TS_Description>
single chemical compound

> <ChemNote>


> <STRUCTURE_Shown>
tested chemical

> <STRUCTURE_Formula>
C19H30O5

> <STRUCTURE_MW>
338.4385

> <STRUCTURE_ChemType>
defined organic

> <STRUCTURE_DefinedOrganicForm>
parent

> <STRUCTURE_IUPAC>
5-{[2-(2-butoxyethoxy)ethoxy]methyl}-6-propyl-1,3-benzodioxole

> <STRUCTURE_SMILES>
CCCc1cc2OCOc2cc1COCCOCCOCCCC

> <STRUCTURE_SMILES_Desalt>
CCCc1cc2OCOc2cc1COCCOCCOCCCC

> <Substance_modify_yyyymmdd>
20080429

$$$$
