51-12-7
ChemmineR-0915142007XD

 22 23  0  0  0  0  0  0  0  0  1 V2000
    0.0000   -2.0015    0.0000 C   0  0  0  0  0  0  0  0  0  0  0  0
    0.0000   -0.6626    0.0000 N   0  0  0  0  0  0  0  0  0  0  0  0
    1.1457    0.0000    0.0000 C   0  0  0  0  0  0  0  0  0  0  0  0
    2.3051   -0.6626    0.0000 C   0  0  0  0  0  0  0  0  0  0  0  0
    2.3051   -2.0015    0.0000 C   0  0  0  0  0  0  0  0  0  0  0  0
    3.4508   -2.6640    0.0000 C   0  0  0  0  0  0  0  0  0  0  0  0
    3.4508   -3.9891    0.0000 O   0  0  0  0  0  0  0  0  0  0  0  0
    4.5964   -2.0015    0.0000 N   0  0  0  0  0  0  0  0  0  0  0  0
    5.7559   -2.6640    0.0000 N   0  0  0  0  0  0  0  0  0  0  0  0
    6.9016   -2.0015    0.0000 C   0  0  0  0  0  0  0  0  0  0  0  0
    8.0472   -2.6640    0.0000 C   0  0  0  0  0  0  0  0  0  0  0  0
    9.2067   -2.0015    0.0000 C   0  0  0  0  0  0  0  0  0  0  0  0
   10.3523   -2.6640    0.0000 O   0  0  0  0  0  0  0  0  0  0  0  0
    9.2067   -0.6626    0.0000 N   0  0  0  0  0  0  0  0  0  0  0  0
   10.3523    0.0000    0.0000 C   0  0  0  0  0  0  0  0  0  0  0  0
   11.4980   -0.6626    0.0000 C   0  0  0  0  0  0  0  0  0  0  0  0
   12.6575    0.0000    0.0000 C   0  0  0  0  0  0  0  0  0  0  0  0
   13.8031   -0.6626    0.0000 C   0  0  0  0  0  0  0  0  0  0  0  0
   13.8031   -2.0015    0.0000 C   0  0  0  0  0  0  0  0  0  0  0  0
   12.6575   -2.6640    0.0000 C   0  0  0  0  0  0  0  0  0  0  0  0
   11.4980   -2.0015    0.0000 C   0  0  0  0  0  0  0  0  0  0  0  0
    1.1457   -2.6640    0.0000 C   0  0  0  0  0  0  0  0  0  0  0  0
  1  2  2  0  0  0  0
  1 22  1  0  0  0  0
  2  3  1  0  0  0  0
  3  4  2  0  0  0  0
  4  5  1  0  0  0  0
  5  6  1  0  0  0  0
  5 22  2  0  0  0  0
  6  7  2  0  0  0  0
  6  8  1  0  0  0  0
  8  9  1  0  0  0  0
  9 10  1  0  0  0  0
 10 11  1  0  0  0  0
 11 12  1  0  0  0  0
 12 13  2  0  0  0  0
 12 14  1  0  0  0  0
 14 15  1  0  0  0  0
 15 16  1  0  0  0  0
 16 17  2  0  0  0  0
 16 21  1  0  0  0  0
 17 18  1  0  0  0  0
 18 19  2  0  0  0  0
 19 20  1  0  0  0  0
 20 21  2  0  0  0  0
M  END
> <ID>
3016

> <Formula>
C16H18N4O2

> <FW>
298.3397

> <DSSTox_CID>
3362

> <DSSTox_RID>
76991

> <DSSTox_GSID>
23362

> <DSSTox_FileID_Sort>
1675

> <TS_ChemName>
Nialamide

> <TS_ChemName_Synonyms>


> <TS_CASRN>
51-12-7

> <CASRN_ChemName_Relationship>
primary

> <TS_Description>
single chemical compound

> <ChemNote>


> <STRUCTURE_Shown>
tested chemical

> <STRUCTURE_Formula>
C16H18N4O2

> <STRUCTURE_MW>
298.3397

> <STRUCTURE_ChemType>
defined organic

> <STRUCTURE_DefinedOrganicForm>
parent

> <STRUCTURE_IUPAC>
N-benzyl-3-[2-(pyridin-4-ylcarbonyl)hydrazinyl]propanamide

> <STRUCTURE_SMILES>
O=C(NNCCC(=O)NCc1ccccc1)c2ccncc2

> <STRUCTURE_SMILES_Desalt>
O=C(NNCCC(=O)NCc1ccccc1)c2ccncc2

> <Substance_modify_yyyymmdd>
20080429

$$$$
