51-24-1
ChemmineR-0915142007XD

 21 22  0  0  0  0  0  0  0  0  1 V2000
   11.5104   -3.9941    0.0000 O   0  0  0  0  0  0  0  0  0  0  0  0
   10.3594   -3.3265    0.0000 C   0  0  0  0  0  0  0  0  0  0  0  0
   10.3594   -1.9913    0.0000 O   0  0  0  0  0  0  0  0  0  0  0  0
    9.2083   -3.9941    0.0000 C   0  0  0  0  0  0  0  0  0  0  0  0
    8.0573   -3.3265    0.0000 C   0  0  0  0  0  0  0  0  0  0  0  0
    6.9062   -3.9941    0.0000 C   0  0  0  0  0  0  0  0  0  0  0  0
    5.7552   -3.3265    0.0000 C   0  0  0  0  0  0  0  0  0  0  0  0
    5.7552   -1.9913    0.0000 C   0  0  0  0  0  0  0  0  0  0  0  0
    4.6042   -1.3352    0.0000 O   0  0  0  0  0  0  0  0  0  0  0  0
    3.4531   -1.9913    0.0000 C   0  0  0  0  0  0  0  0  0  0  0  0
    3.4531   -3.3265    0.0000 C   0  0  0  0  0  0  0  0  0  0  0  0
    2.3021   -3.9941    0.0000 C   0  0  0  0  0  0  0  0  0  0  0  0
    1.1510   -3.3265    0.0000 C   0  0  0  0  0  0  0  0  0  0  0  0
    0.0000   -3.9941    0.0000 O   0  0  0  0  0  0  0  0  0  0  0  0
    1.1510   -1.9913    0.0000 C   0  0  0  0  0  0  0  0  0  0  0  0
    2.3021   -1.3352    0.0000 C   0  0  0  0  0  0  0  0  0  0  0  0
    2.3021   -5.3178    0.0000 I   0  0  0  0  0  0  0  0  0  0  0  0
    6.9062   -1.3352    0.0000 C   0  0  0  0  0  0  0  0  0  0  0  0
    8.0573   -1.9913    0.0000 C   0  0  0  0  0  0  0  0  0  0  0  0
    6.9062    0.0000    0.0000 I   0  0  0  0  0  0  0  0  0  0  0  0
    4.6042   -3.9941    0.0000 I   0  0  0  0  0  0  0  0  0  0  0  0
  1  2  1  0  0  0  0
  2  3  2  0  0  0  0
  2  4  1  0  0  0  0
  4  5  1  0  0  0  0
  5  6  2  0  0  0  0
  5 19  1  0  0  0  0
  6  7  1  0  0  0  0
  7  8  2  0  0  0  0
  7 21  1  0  0  0  0
  8  9  1  0  0  0  0
  8 18  1  0  0  0  0
  9 10  1  0  0  0  0
 10 11  2  0  0  0  0
 10 16  1  0  0  0  0
 11 12  1  0  0  0  0
 12 13  2  0  0  0  0
 12 17  1  0  0  0  0
 13 14  1  0  0  0  0
 13 15  1  0  0  0  0
 15 16  2  0  0  0  0
 18 19  2  0  0  0  0
 18 20  1  0  0  0  0
M  END
> <ID>
10837

> <Formula>
C14H9I3O4

> <FW>
621.9323

> <DSSTox_CID>
25232

> <DSSTox_RID>
80767

> <DSSTox_GSID>
45232

> <DSSTox_FileID_Sort>
5448

> <TS_ChemName>
Tiratricol

> <TS_ChemName_Synonyms>


> <TS_CASRN>
51-24-1

> <CASRN_ChemName_Relationship>
primary

> <TS_Description>
single chemical compound

> <ChemNote>


> <STRUCTURE_Shown>
tested chemical

> <STRUCTURE_Formula>
C14H9I3O4

> <STRUCTURE_MW>
621.9323

> <STRUCTURE_ChemType>
defined organic

> <STRUCTURE_DefinedOrganicForm>
parent

> <STRUCTURE_IUPAC>
[4-(4-hydroxy-3-iodophenoxy)-3,5-diiodophenyl]acetic acid

> <STRUCTURE_SMILES>
O=C(O)Cc2cc(I)c(Oc1cc(I)c(O)cc1)c(I)c2

> <STRUCTURE_SMILES_Desalt>
O=C(O)Cc2cc(I)c(Oc1cc(I)c(O)cc1)c(I)c2

> <Substance_modify_yyyymmdd>
20100107

$$$$
