51-30-9
ChemmineR-0915142007XD

 16 15  0  0  0  0  0  0  0  0  1 V2000
    1.1522   -3.3184    0.0000 C    0  0  0  0  0  0  0  0  0  0  0  0
    1.1522   -1.9910    0.0000 C    0  0  0  0  0  0  0  0  0  0  0  0
    0.0000   -1.3274    0.0000 C    0  0  0  0  0  0  0  0  0  0  0  0
    2.3044   -1.3274    0.0000 N    0  0  0  0  0  0  0  0  0  0  0  0
    3.4567   -1.9910    0.0000 C    0  0  0  0  0  0  0  0  0  0  0  0
    4.6089   -1.3274    0.0000 C    0  0  0  0  0  0  0  0  0  0  0  0
    4.6089    0.0000    0.0000 O    0  0  0  0  0  0  0  0  0  0  0  0
    5.7611   -1.9910    0.0000 C    0  0  0  0  0  0  0  0  0  0  0  0
    6.9133   -1.3274    0.0000 C    0  0  0  0  0  0  0  0  0  0  0  0
    8.0656   -1.9910    0.0000 C    0  0  0  0  0  0  0  0  0  0  0  0
    8.0656   -3.3184    0.0000 C    0  0  0  0  0  0  0  0  0  0  0  0
    9.2178   -3.9913    0.0000 O    0  0  0  0  0  0  0  0  0  0  0  0
    6.9133   -3.9913    0.0000 C    0  0  0  0  0  0  0  0  0  0  0  0
    5.7611   -3.3184    0.0000 C    0  0  0  0  0  0  0  0  0  0  0  0
    9.2178   -1.3274    0.0000 O    0  0  0  0  0  0  0  0  0  0  0  0
    4.6550   -5.3187    0.0000 Cl   0  0  0  0  0  0  0  0  0  0  0  0
  1  2  1  0  0  0  0
  2  3  1  0  0  0  0
  2  4  1  0  0  0  0
  4  5  1  0  0  0  0
  5  6  1  0  0  0  0
  6  7  1  0  0  0  0
  6  8  1  0  0  0  0
  8  9  2  0  0  0  0
  8 14  1  0  0  0  0
  9 10  1  0  0  0  0
 10 11  2  0  0  0  0
 10 15  1  0  0  0  0
 11 12  1  0  0  0  0
 11 13  1  0  0  0  0
 13 14  2  0  0  0  0
M  END
> <ID>
4225

> <Formula>
C11H18ClNO3

> <FW>
247.7185 (211.2576+36.4609)

> <DSSTox_CID>
5486

> <DSSTox_RID>
77807

> <DSSTox_GSID>
25486

> <DSSTox_FileID_Sort>
2490

> <TS_ChemName>
Isoproterenol hydrochloride

> <TS_ChemName_Synonyms>
Isoproterenol hydrochloride (DL-4-(2-(isopropylamino)-1-hydroxyethyl)pyrocatechol hydrochloride)

> <TS_CASRN>
51-30-9

> <CASRN_ChemName_Relationship>
primary

> <TS_Description>
single chemical compound

> <ChemNote>
parent [7683-59-2]

> <STRUCTURE_Shown>
tested chemical

> <STRUCTURE_Formula>
C11H18ClNO3

> <STRUCTURE_MW>
247.7185

> <STRUCTURE_ChemType>
defined organic

> <STRUCTURE_DefinedOrganicForm>
complex

> <STRUCTURE_IUPAC>
4-[1-hydroxy-2-(propan-2-ylamino)ethyl]benzene-1,2-diol hydrochloride (1:1)

> <STRUCTURE_SMILES>
Cl.Oc1ccc(cc1O)C(O)CNC(C)C

> <STRUCTURE_SMILES_Desalt>
Oc1ccc(cc1O)C(O)CNC(C)C

> <Substance_modify_yyyymmdd>
20080429

$$$$
