51-42-3
ChemmineR-0915142007XD

 23 22  0  0  1  0  0  0  0  0  1 V2000
    2.9469   -9.5476    0.0000 C   0  0  0  0  0  0  0  0  0  0  0  0
    4.0778   -8.8842    0.0000 C   0  0  0  0  0  0  0  0  0  0  0  0
    1.7942   -8.8951    0.0000 C   0  0  0  0  0  0  0  0  0  0  0  0
    2.9469  -10.8742    0.0000 O   0  0  0  0  0  0  0  0  0  0  0  0
    5.2196   -9.5476    0.0000 C   0  0  0  0  0  0  0  0  0  0  0  0
    4.0778   -7.5793    0.0000 O   0  0  0  0  0  0  0  0  0  0  0  0
    0.6633   -9.5476    0.0000 O   0  0  0  0  0  0  0  0  0  0  0  0
    1.7942   -7.5793    0.0000 O   0  0  0  0  0  0  0  0  0  0  0  0
    6.3723   -8.8842    0.0000 O   0  0  0  0  0  0  0  0  0  0  0  0
    5.2196  -10.8742    0.0000 O   0  0  0  0  0  0  0  0  0  0  0  0
    5.4915    0.0000    0.0000 C   0  0  0  0  0  0  0  0  0  0  0  0
    1.1635   -3.2296    0.0000 C   0  0  0  0  0  0  0  0  0  0  0  0
    1.1635   -4.5563    0.0000 C   0  0  0  0  0  0  0  0  0  0  0  0
    2.2945   -2.5772    0.0000 C   0  0  0  0  0  0  0  0  0  0  0  0
    2.2945   -5.2087    0.0000 C   0  0  0  0  0  0  0  0  0  0  0  0
    3.4580   -3.2296    0.0000 C   0  0  0  0  0  0  0  0  0  0  0  0
    3.4580   -4.5563    0.0000 C   0  0  0  0  0  0  0  0  0  0  0  0
    2.2945   -1.2614    0.0000 C   0  0  0  0  0  0  0  0  0  0  0  0
    0.0000   -5.2087    0.0000 O   0  0  0  0  0  0  0  0  0  0  0  0
    4.5889   -1.2614    0.0000 N   0  0  0  0  0  0  0  0  0  0  0  0
    2.2945   -6.5245    0.0000 O   0  0  0  0  0  0  0  0  0  0  0  0
    1.1635   -0.6090    0.0000 O   0  0  0  0  0  0  0  0  0  0  0  0
    3.4580   -0.6090    0.0000 C   0  0  0  0  0  0  0  0  0  0  0  0
  1  2  1  0  0  0  0
  1  3  1  0  0  0  0
  1  4  1  1  0  0  0
  2  5  1  0  0  0  0
  2  6  1  1  0  0  0
  3  7  1  0  0  0  0
  3  8  2  0  0  0  0
  5  9  1  0  0  0  0
  5 10  2  0  0  0  0
 11 20  1  0  0  0  0
 12 13  2  0  0  0  0
 12 14  1  0  0  0  0
 13 15  1  0  0  0  0
 13 19  1  0  0  0  0
 14 16  2  0  0  0  0
 14 18  1  0  0  0  0
 15 21  1  0  0  0  0
 15 17  2  0  0  0  0
 16 17  1  0  0  0  0
 18 22  1  1  0  0  0
 18 23  1  0  0  0  0
 20 23  1  0  0  0  0
M  END
> <ID>
14279

> <Formula>
C13H19NO9

> <FW>
333.2913 (150.0868+183.2044)

> <DSSTox_CID>
29375

> <DSSTox_RID>
83490

> <DSSTox_GSID>
49415

> <DSSTox_FileID_Sort>
8165

> <TS_ChemName>
Epinephrine bitartrate

> <TS_ChemName_Synonyms>


> <TS_CASRN>
51-42-3

> <CASRN_ChemName_Relationship>
primary

> <TS_Description>
single chemical compound

> <ChemNote>


> <STRUCTURE_Shown>
tested chemical

> <STRUCTURE_Formula>
C13H19NO9

> <STRUCTURE_MW>
333.2913

> <STRUCTURE_ChemType>
defined organic

> <STRUCTURE_DefinedOrganicForm>
complex

> <STRUCTURE_IUPAC>
(2R,3R)-2,3-dihydroxybutanedioic acid - 4-[(1R)-1-hydroxy-2-(methylamino)ethyl]benzene-1,2-diol (1:1)

> <STRUCTURE_SMILES>
Oc1ccc(cc1O)[C@@H](O)CNC.O=C(O)[C@H](O)[C@@H](O)C(=O)O

> <STRUCTURE_SMILES_Desalt>
Oc1ccc(cc1O)[C@@H](O)CNC

> <Substance_modify_yyyymmdd>
20111204

$$$$
