51-48-9
ChemmineR-0915142007XD

 24 25  0  0  1  0  0  0  0  0  1 V2000
    5.7713   -3.3160    0.0000 C   0  0  0  0  0  0  0  0  0  0  0  0
    1.1517   -1.9870    0.0000 C   0  0  0  0  0  0  0  0  0  0  0  0
    2.3035   -1.3289    0.0000 C   0  0  0  0  0  0  0  0  0  0  0  0
    1.1517   -3.3160    0.0000 C   0  0  0  0  0  0  0  0  0  0  0  0
    5.7713   -1.9870    0.0000 C   0  0  0  0  0  0  0  0  0  0  0  0
    6.9230   -3.9868    0.0000 C   0  0  0  0  0  0  0  0  0  0  0  0
    3.4552   -3.3160    0.0000 C   0  0  0  0  0  0  0  0  0  0  0  0
    4.5943   -3.9868    0.0000 O   0  0  0  0  0  0  0  0  0  0  0  0
   11.5173   -1.3416    0.0000 C   0  0  0  0  0  0  0  0  0  0  0  0
    2.3035   -3.9868    0.0000 C   0  0  0  0  0  0  0  0  0  0  0  0
    3.4552   -1.9870    0.0000 C   0  0  0  0  0  0  0  0  0  0  0  0
    8.0748   -1.9870    0.0000 C   0  0  0  0  0  0  0  0  0  0  0  0
   10.3656   -1.9997    0.0000 C   0  0  0  0  0  0  0  0  0  0  0  0
    6.9230   -1.3289    0.0000 C   0  0  0  0  0  0  0  0  0  0  0  0
    8.0748   -3.3160    0.0000 C   0  0  0  0  0  0  0  0  0  0  0  0
    9.2138   -1.3289    0.0000 C   0  0  0  0  0  0  0  0  0  0  0  0
   12.6564   -2.0124    0.0000 O   0  0  0  0  0  0  0  0  0  0  0  0
    2.3035    0.0000    0.0000 I   0  0  0  0  0  0  0  0  0  0  0  0
    0.0000   -3.9868    0.0000 I   0  0  0  0  0  0  0  0  0  0  0  0
    4.5943   -1.3289    0.0000 I   0  0  0  0  0  0  0  0  0  0  0  0
    6.9230   -5.3157    0.0000 I   0  0  0  0  0  0  0  0  0  0  0  0
    0.0000   -1.3289    0.0000 O   0  0  0  0  0  0  0  0  0  0  0  0
   10.3656   -3.3286    0.0000 N   0  0  0  0  0  0  0  0  0  0  0  0
   11.5173   -0.0127    0.0000 O   0  0  0  0  0  0  0  0  0  0  0  0
  1  5  1  0  0  0  0
  1  6  2  0  0  0  0
  1  8  1  0  0  0  0
  2  3  2  0  0  0  0
  2 22  1  0  0  0  0
  2  4  1  0  0  0  0
  3 11  1  0  0  0  0
  3 18  1  0  0  0  0
  4 10  2  0  0  0  0
  4 19  1  0  0  0  0
  5 14  2  0  0  0  0
  5 20  1  0  0  0  0
  6 15  1  0  0  0  0
  6 21  1  0  0  0  0
  7  8  1  0  0  0  0
  7 10  1  0  0  0  0
  7 11  2  0  0  0  0
  9 13  1  0  0  0  0
  9 17  1  0  0  0  0
  9 24  2  0  0  0  0
 12 15  2  0  0  0  0
 12 16  1  0  0  0  0
 12 14  1  0  0  0  0
 13 16  1  0  0  0  0
 13 23  1  1  0  0  0
M  END
> <ID>
2890

> <Formula>
C15H11I4NO4

> <FW>
776.87

> <DSSTox_CID>
3214

> <DSSTox_RID>
76927

> <DSSTox_GSID>
23214

> <DSSTox_FileID_Sort>
1611

> <TS_ChemName>
Levothyroxine

> <TS_ChemName_Synonyms>
Levothyroxine (L-thyroxine) (T4)

> <TS_CASRN>
51-48-9

> <CASRN_ChemName_Relationship>
primary

> <TS_Description>
single chemical compound

> <ChemNote>
stereochem

> <STRUCTURE_Shown>
tested chemical

> <STRUCTURE_Formula>
C15H11I4NO4

> <STRUCTURE_MW>
776.87

> <STRUCTURE_ChemType>
defined organic

> <STRUCTURE_DefinedOrganicForm>
parent

> <STRUCTURE_IUPAC>
O-(4-hydroxy-3,5-diiodophenyl)-3,5-diiodo-L-tyrosine

> <STRUCTURE_SMILES>
O=C(O)[C@@H](N)Cc2cc(I)c(Oc1cc(I)c(O)c(I)c1)c(I)c2

> <STRUCTURE_SMILES_Desalt>
O=C(O)[C@@H](N)Cc2cc(I)c(Oc1cc(I)c(O)c(I)c1)c(I)c2

> <Substance_modify_yyyymmdd>
20080429

$$$$
