51-44-5
ChemmineR-0915142007XD

 11 11  0  0  0  0  0  0  0  0  1 V2000
    5.3194   -2.3037    0.0000 C    0  0  0  0  0  0  0  0  0  0  0  0
    5.9835   -1.1488    0.0000 O    0  0  0  0  0  0  0  0  0  0  0  0
    5.9835   -3.4525    0.0000 O    0  0  0  0  0  0  0  0  0  0  0  0
    3.9910   -2.3037    0.0000 C    0  0  0  0  0  0  0  0  0  0  0  0
    3.3269   -3.4525    0.0000 C    0  0  0  0  0  0  0  0  0  0  0  0
    1.9925   -3.4525    0.0000 C    0  0  0  0  0  0  0  0  0  0  0  0
    1.3283   -2.3037    0.0000 C    0  0  0  0  0  0  0  0  0  0  0  0
    0.0000   -2.3037    0.0000 Cl   0  0  0  0  0  0  0  0  0  0  0  0
    1.9925   -1.1488    0.0000 C    0  0  0  0  0  0  0  0  0  0  0  0
    1.3283    0.0000    0.0000 Cl   0  0  0  0  0  0  0  0  0  0  0  0
    3.3269   -1.1488    0.0000 C    0  0  0  0  0  0  0  0  0  0  0  0
  1  2  2  0  0  0  0
  1  3  1  0  0  0  0
  1  4  1  0  0  0  0
  4  5  2  0  0  0  0
  4 11  1  0  0  0  0
  5  6  1  0  0  0  0
  6  7  2  0  0  0  0
  7  8  1  0  0  0  0
  7  9  1  0  0  0  0
  9 10  1  0  0  0  0
  9 11  2  0  0  0  0
M  END
> <ID>
3949

> <Formula>
C7H4Cl2O2

> <FW>
191.0115

> <DSSTox_CID>
4980

> <DSSTox_RID>
77609

> <DSSTox_GSID>
24980

> <DSSTox_FileID_Sort>
2292

> <TS_ChemName>
3,4-Dichlorobenzoic acid

> <TS_ChemName_Synonyms>


> <TS_CASRN>
51-44-5

> <CASRN_ChemName_Relationship>
primary

> <TS_Description>
single chemical compound

> <ChemNote>


> <STRUCTURE_Shown>
tested chemical

> <STRUCTURE_Formula>
C7H4Cl2O2

> <STRUCTURE_MW>
191.0115

> <STRUCTURE_ChemType>
defined organic

> <STRUCTURE_DefinedOrganicForm>
parent

> <STRUCTURE_IUPAC>
3,4-dichlorobenzoic acid

> <STRUCTURE_SMILES>
Clc1ccc(cc1Cl)C(=O)O

> <STRUCTURE_SMILES_Desalt>
Clc1ccc(cc1Cl)C(=O)O

> <Substance_modify_yyyymmdd>
20080429

$$$$
