51-41-2
ChemmineR-0915142007XD

 12 12  0  0  1  0  0  0  0  0  1 V2000
    3.4597   -3.2867    0.0000 C   0  0  0  0  0  0  0  0  0  0  0  0
    2.2903   -3.9579    0.0000 C   0  0  0  0  0  0  0  0  0  0  0  0
    3.4597   -1.9928    0.0000 C   0  0  0  0  0  0  0  0  0  0  0  0
    1.1555   -3.2867    0.0000 C   0  0  0  0  0  0  0  0  0  0  0  0
    2.3388   -1.3009    0.0000 C   0  0  0  0  0  0  0  0  0  0  0  0
    1.1555   -1.9928    0.0000 C   0  0  0  0  0  0  0  0  0  0  0  0
    4.5807   -1.3355    0.0000 C   0  0  0  0  0  0  0  0  0  0  0  0
    2.2903   -5.3211    0.0000 O   0  0  0  0  0  0  0  0  0  0  0  0
    0.0000   -3.9579    0.0000 O   0  0  0  0  0  0  0  0  0  0  0  0
    6.9195   -1.3355    0.0000 N   0  0  0  0  0  0  0  0  0  0  0  0
    4.5807    0.0000    0.0000 O   0  0  0  0  0  0  0  0  0  0  0  0
    5.7501   -1.9928    0.0000 C   0  0  0  0  0  0  0  0  0  0  0  0
  1  2  2  0  0  0  0
  1  3  1  0  0  0  0
  2  4  1  0  0  0  0
  2  8  1  0  0  0  0
  3  5  2  0  0  0  0
  3  7  1  0  0  0  0
  4  9  1  0  0  0  0
  4  6  2  0  0  0  0
  5  6  1  0  0  0  0
  7 11  1  1  0  0  0
  7 12  1  0  0  0  0
 10 12  1  0  0  0  0
M  END
> <ID>
3030

> <Formula>
C8H11NO3

> <FW>
169.1778

> <DSSTox_CID>
3378

> <DSSTox_RID>
77004

> <DSSTox_GSID>
23378

> <DSSTox_FileID_Sort>
1688

> <TS_ChemName>
Norepinephrine

> <TS_ChemName_Synonyms>


> <TS_CASRN>
51-41-2

> <CASRN_ChemName_Relationship>
primary

> <TS_Description>
single chemical compound

> <ChemNote>
stereochem

> <STRUCTURE_Shown>
tested chemical

> <STRUCTURE_Formula>
C8H11NO3

> <STRUCTURE_MW>
169.1778

> <STRUCTURE_ChemType>
defined organic

> <STRUCTURE_DefinedOrganicForm>
parent

> <STRUCTURE_IUPAC>
4-[(1R)-2-amino-1-hydroxyethyl]benzene-1,2-diol

> <STRUCTURE_SMILES>
Oc1ccc(cc1O)[C@@H](O)CN

> <STRUCTURE_SMILES_Desalt>
Oc1ccc(cc1O)[C@@H](O)CN

> <Substance_modify_yyyymmdd>
20080429

$$$$
