51-43-4
ChemmineR-0915142007XD

 13 13  0  0  1  0  0  0  0  0  1 V2000
    1.1672   -2.6577    0.0000 C   0  0  0  0  0  0  0  0  0  0  0  0
    1.1672   -3.9986    0.0000 C   0  0  0  0  0  0  0  0  0  0  0  0
    2.3046   -1.9873    0.0000 C   0  0  0  0  0  0  0  0  0  0  0  0
    2.3046   -4.6391    0.0000 C   0  0  0  0  0  0  0  0  0  0  0  0
    3.4718   -2.6577    0.0000 C   0  0  0  0  0  0  0  0  0  0  0  0
    3.4718   -3.9986    0.0000 C   0  0  0  0  0  0  0  0  0  0  0  0
    2.3046   -0.6584    0.0000 C   0  0  0  0  0  0  0  0  0  0  0  0
    0.0000   -4.6391    0.0000 O   0  0  0  0  0  0  0  0  0  0  0  0
    4.6091   -0.6584    0.0000 N   0  0  0  0  0  0  0  0  0  0  0  0
    2.3046   -5.9859    0.0000 O   0  0  0  0  0  0  0  0  0  0  0  0
    1.1672    0.0000    0.0000 O   0  0  0  0  0  0  0  0  0  0  0  0
    3.4718    0.0000    0.0000 C   0  0  0  0  0  0  0  0  0  0  0  0
    5.7644    0.0000    0.0000 C   0  0  0  0  0  0  0  0  0  0  0  0
  1  2  2  0  0  0  0
  1  3  1  0  0  0  0
  2  4  1  0  0  0  0
  2  8  1  0  0  0  0
  3  5  2  0  0  0  0
  3  7  1  0  0  0  0
  4 10  1  0  0  0  0
  4  6  2  0  0  0  0
  5  6  1  0  0  0  0
  7 11  1  1  0  0  0
  7 12  1  0  0  0  0
  9 12  1  0  0  0  0
  9 13  1  0  0  0  0
M  END
> <ID>
2688

> <Formula>
C9H13NO3

> <FW>
183.2044

> <DSSTox_CID>
2986

> <DSSTox_RID>
76819

> <DSSTox_GSID>
22986

> <DSSTox_FileID_Sort>
1503

> <TS_ChemName>
Epinephrine

> <TS_ChemName_Synonyms>


> <TS_CASRN>
51-43-4

> <CASRN_ChemName_Relationship>
primary

> <TS_Description>
single chemical compound

> <ChemNote>
stereochem

> <STRUCTURE_Shown>
tested chemical

> <STRUCTURE_Formula>
C9H13NO3

> <STRUCTURE_MW>
183.2044

> <STRUCTURE_ChemType>
defined organic

> <STRUCTURE_DefinedOrganicForm>
parent

> <STRUCTURE_IUPAC>
4-[(1R)-1-hydroxy-2-(methylamino)ethyl]benzene-1,2-diol

> <STRUCTURE_SMILES>
Oc1ccc(cc1O)[C@@H](O)CNC

> <STRUCTURE_SMILES_Desalt>
Oc1ccc(cc1O)[C@@H](O)CNC

> <Substance_modify_yyyymmdd>
20080429

$$$$
