51-55-8
ChemmineR-0915142007XD

 21 23  0  0  1  0  0  0  0  0  1 V2000
    4.3964   -5.3965    0.0000 C   0  0  0  0  0  0  0  0  0  0  0  0
    4.3964   -6.7550    0.0000 C   0  0  0  0  0  0  0  0  0  0  0  0
    5.5569   -4.7549    0.0000 O   0  0  0  0  0  0  0  0  0  0  0  0
    5.5569   -7.4343    0.0000 C   0  0  0  0  0  0  0  0  0  0  0  0
    3.2454   -7.4343    0.0000 C   0  0  0  0  0  0  0  0  0  0  0  0
    2.0473   -6.7550    0.0000 O   0  0  0  0  0  0  0  0  0  0  0  0
    6.7173   -6.7550    0.0000 C   0  0  0  0  0  0  0  0  0  0  0  0
    5.5569   -8.7740    0.0000 C   0  0  0  0  0  0  0  0  0  0  0  0
    6.7173   -9.4344    0.0000 C   0  0  0  0  0  0  0  0  0  0  0  0
    7.8777   -7.4343    0.0000 C   0  0  0  0  0  0  0  0  0  0  0  0
    7.8777   -8.7740    0.0000 C   0  0  0  0  0  0  0  0  0  0  0  0
    1.5189   -2.1794    0.0000 C   0  0  0  0  0  0  0  0  0  0  0  0
    3.2454   -3.4719    0.0000 C   0  0  0  0  0  0  0  0  0  0  0  0
    2.4058   -2.7832    0.0000 C   0  0  0  0  0  0  0  0  0  0  0  0
    0.8397   -2.7832    0.0000 C   0  0  0  0  0  0  0  0  0  0  0  0
    0.6132   -1.4718    0.0000 N   0  0  0  0  0  0  0  0  0  0  0  0
    3.0190   -2.1510    0.0000 C   0  0  0  0  0  0  0  0  0  0  0  0
    0.0000   -3.9436    0.0000 C   0  0  0  0  0  0  0  0  0  0  0  0
    1.0000   -3.3304    0.0000 C   0  0  0  0  0  0  0  0  0  0  0  0
    0.4245    0.0000    0.0000 C   0  0  0  0  0  0  0  0  0  0  0  0
    3.2454   -4.4908    0.0000 O   0  0  0  0  0  0  0  0  0  0  0  0
  1  2  1  0  0  0  0
  1  3  2  0  0  0  0
  1 21  1  0  0  0  0
  2  4  1  0  0  0  0
  2  5  1  0  0  0  0
  4  7  1  0  0  0  0
  4  8  2  0  0  0  0
  5  6  1  0  0  0  0
  7 10  2  0  0  0  0
  8  9  1  0  0  0  0
  9 11  2  0  0  0  0
 10 11  1  0  0  0  0
 12 16  1  1  0  0  0
 12 17  1  0  0  0  0
 12 19  1  0  0  0  0
 13 14  1  0  0  0  0
 13 17  1  0  0  0  0
 13 21  1  6  0  0  0
 14 15  1  0  0  0  0
 15 16  1  6  0  0  0
 15 18  1  0  0  0  0
 16 20  1  0  0  0  0
 18 19  1  0  0  0  0
M  END
> <ID>
110

> <Formula>
C17H23NO3

> <FW>
289.3694

> <DSSTox_CID>
113

> <DSSTox_RID>
75375

> <DSSTox_GSID>
20113

> <DSSTox_FileID_Sort>
59

> <TS_ChemName>
Atropine

> <TS_ChemName_Synonyms>


> <TS_CASRN>
51-55-8

> <CASRN_ChemName_Relationship>
primary

> <TS_Description>
single chemical compound

> <ChemNote>
stereochem

> <STRUCTURE_Shown>
tested chemical

> <STRUCTURE_Formula>
C17H23NO3

> <STRUCTURE_MW>
289.3694

> <STRUCTURE_ChemType>
defined organic

> <STRUCTURE_DefinedOrganicForm>
parent

> <STRUCTURE_IUPAC>
(3-endo)-8-methyl-8-azabicyclo[3.2.1]oct-3-yl 3-hydroxy-2-phenylpropanoate

> <STRUCTURE_SMILES>
CN3[C@H]1CC[C@@H]3C[C@@H](C1)OC(=O)C(CO)c2ccccc2

> <STRUCTURE_SMILES_Desalt>
CN3[C@H]1CC[C@@H]3C[C@@H](C1)OC(=O)C(CO)c2ccccc2

> <Substance_modify_yyyymmdd>
20080815

$$$$
