51-66-1
ChemmineR-0915142007XD

 12 12  0  0  0  0  0  0  0  0  1 V2000
    1.1617   -0.6857    0.0000 C   0  0  0  0  0  0  0  0  0  0  0  0
    1.1617   -1.9926    0.0000 O   0  0  0  0  0  0  0  0  0  0  0  0
    0.0000    0.0000    0.0000 C   0  0  0  0  0  0  0  0  0  0  0  0
    2.2831    0.0000    0.0000 N   0  0  0  0  0  0  0  0  0  0  0  0
    3.4448   -0.6857    0.0000 C   0  0  0  0  0  0  0  0  0  0  0  0
    3.4448   -1.9926    0.0000 C   0  0  0  0  0  0  0  0  0  0  0  0
    4.5903    0.0000    0.0000 C   0  0  0  0  0  0  0  0  0  0  0  0
    4.5903   -2.6461    0.0000 C   0  0  0  0  0  0  0  0  0  0  0  0
    5.7521   -0.6535    0.0000 C   0  0  0  0  0  0  0  0  0  0  0  0
    5.7521   -1.9926    0.0000 C   0  0  0  0  0  0  0  0  0  0  0  0
    6.9057   -2.6461    0.0000 O   0  0  0  0  0  0  0  0  0  0  0  0
    8.0674   -1.9604    0.0000 C   0  0  0  0  0  0  0  0  0  0  0  0
  1  2  2  0  0  0  0
  1  4  1  0  0  0  0
  1  3  1  0  0  0  0
  4  5  1  0  0  0  0
  5  6  2  0  0  0  0
  5  7  1  0  0  0  0
  6  8  1  0  0  0  0
  7  9  2  0  0  0  0
  8 10  2  0  0  0  0
  9 10  1  0  0  0  0
 10 11  1  0  0  0  0
 11 12  1  0  0  0  0
M  END
> <ID>
4654

> <Formula>
C9H11NO2

> <FW>
165.1891

> <DSSTox_CID>
6325

> <DSSTox_RID>
78102

> <DSSTox_GSID>
26325

> <DSSTox_FileID_Sort>
2785

> <TS_ChemName>
N-(4-Methoxyphenyl)acetamide

> <TS_ChemName_Synonyms>


> <TS_CASRN>
51-66-1

> <CASRN_ChemName_Relationship>
primary

> <TS_Description>
single chemical compound

> <ChemNote>


> <STRUCTURE_Shown>
tested chemical

> <STRUCTURE_Formula>
C9H11NO2

> <STRUCTURE_MW>
165.1891

> <STRUCTURE_ChemType>
defined organic

> <STRUCTURE_DefinedOrganicForm>
parent

> <STRUCTURE_IUPAC>
N-(4-methoxyphenyl)acetamide

> <STRUCTURE_SMILES>
COc1ccc(NC(C)=O)cc1

> <STRUCTURE_SMILES_Desalt>
COc1ccc(NC(C)=O)cc1

> <Substance_modify_yyyymmdd>
20080429

$$$$
