51-79-6
ChemmineR-0915142007XD

  6  5  0  0  0  0  0  0  0  0  1 V2000
    4.6084   -1.9954    0.0000 N   0  0  0  0  0  0  0  0  0  0  0  0
    3.4563   -1.3318    0.0000 C   0  0  0  0  0  0  0  0  0  0  0  0
    3.4563    0.0000    0.0000 O   0  0  0  0  0  0  0  0  0  0  0  0
    2.3042   -1.9954    0.0000 O   0  0  0  0  0  0  0  0  0  0  0  0
    1.1521   -1.3318    0.0000 C   0  0  0  0  0  0  0  0  0  0  0  0
    0.0000   -1.9954    0.0000 C   0  0  0  0  0  0  0  0  0  0  0  0
  1  2  1  0  0  0  0
  2  3  2  0  0  0  0
  2  4  1  0  0  0  0
  4  5  1  0  0  0  0
  5  6  1  0  0  0  0
M  END
> <ID>
1371

> <Formula>
C3H7NO2

> <FW>
89.0932

> <DSSTox_CID>
1427

> <DSSTox_RID>
76156

> <DSSTox_GSID>
21427

> <DSSTox_FileID_Sort>
840

> <TS_ChemName>
Urethane

> <TS_ChemName_Synonyms>
Urethane (Ethyl carbamate)

> <TS_CASRN>
51-79-6

> <CASRN_ChemName_Relationship>
primary

> <TS_Description>
single chemical compound

> <ChemNote>


> <STRUCTURE_Shown>
tested chemical

> <STRUCTURE_Formula>
C3H7NO2

> <STRUCTURE_MW>
89.0932

> <STRUCTURE_ChemType>
defined organic

> <STRUCTURE_DefinedOrganicForm>
parent

> <STRUCTURE_IUPAC>
ethyl carbamate

> <STRUCTURE_SMILES>
NC(=O)OCC

> <STRUCTURE_SMILES_Desalt>
NC(=O)OCC

> <Substance_modify_yyyymmdd>
20080429

$$$$
