51-77-4
ChemmineR-0915142007XD

 29 28  0  0  0  0  0  0  0  0  1 V2000
   12.6915   -1.3153    0.0000 C   0  0  0  0  0  0  0  0  0  0  0  0
   12.6915    0.0000    0.0000 O   0  0  0  0  0  0  0  0  0  0  0  0
    3.4613   -1.3153    0.0000 C   0  0  0  0  0  0  0  0  0  0  0  0
    8.0764   -1.3153    0.0000 C   0  0  0  0  0  0  0  0  0  0  0  0
   17.3066   -1.3153    0.0000 C   0  0  0  0  0  0  0  0  0  0  0  0
    1.1538   -5.3304    0.0000 C   0  0  0  0  0  0  0  0  0  0  0  0
   21.9216   -1.3153    0.0000 C   0  0  0  0  0  0  0  0  0  0  0  0
   16.1528   -1.9845    0.0000 C   0  0  0  0  0  0  0  0  0  0  0  0
   20.7679   -1.9845    0.0000 C   0  0  0  0  0  0  0  0  0  0  0  0
    1.1538   -3.9920    0.0000 C   0  0  0  0  0  0  0  0  0  0  0  0
    4.6151   -1.9845    0.0000 C   0  0  0  0  0  0  0  0  0  0  0  0
    9.2302   -1.9845    0.0000 C   0  0  0  0  0  0  0  0  0  0  0  0
   13.8452   -1.9845    0.0000 O   0  0  0  0  0  0  0  0  0  0  0  0
   14.9990   -1.3153    0.0000 C   0  0  0  0  0  0  0  0  0  0  0  0
   10.3839   -1.3153    0.0000 C   0  0  0  0  0  0  0  0  0  0  0  0
    2.3075   -3.3229    0.0000 C   0  0  0  0  0  0  0  0  0  0  0  0
   19.6141   -1.3153    0.0000 C   0  0  0  0  0  0  0  0  0  0  0  0
    5.7689   -1.3153    0.0000 C   0  0  0  0  0  0  0  0  0  0  0  0
   11.5377   -1.9845    0.0000 C   0  0  0  0  0  0  0  0  0  0  0  0
    2.3075   -1.9845    0.0000 C   0  0  0  0  0  0  0  0  0  0  0  0
   18.4603   -1.9845    0.0000 C   0  0  0  0  0  0  0  0  0  0  0  0
    6.9226   -1.9845    0.0000 C   0  0  0  0  0  0  0  0  0  0  0  0
   23.0754   -1.9845    0.0000 C   0  0  0  0  0  0  0  0  0  0  0  0
    0.0000   -5.9765    0.0000 C   0  0  0  0  0  0  0  0  0  0  0  0
    3.4613    0.0000    0.0000 C   0  0  0  0  0  0  0  0  0  0  0  0
    8.0764    0.0000    0.0000 C   0  0  0  0  0  0  0  0  0  0  0  0
   17.3066    0.0000    0.0000 C   0  0  0  0  0  0  0  0  0  0  0  0
    2.3075   -5.9765    0.0000 C   0  0  0  0  0  0  0  0  0  0  0  0
   21.9216    0.0000    0.0000 C   0  0  0  0  0  0  0  0  0  0  0  0
  1  2  2  0  0  0  0
  1 13  1  0  0  0  0
  1 19  1  0  0  0  0
  3 11  2  0  0  0  0
  3 20  1  0  0  0  0
  3 25  1  0  0  0  0
  4 12  2  0  0  0  0
  4 22  1  0  0  0  0
  4 26  1  0  0  0  0
  5  8  2  0  0  0  0
  5 21  1  0  0  0  0
  5 27  1  0  0  0  0
  6 10  2  0  0  0  0
  6 24  1  0  0  0  0
  6 28  1  0  0  0  0
  7  9  2  0  0  0  0
  7 23  1  0  0  0  0
  7 29  1  0  0  0  0
  8 14  1  0  0  0  0
  9 17  1  0  0  0  0
 10 16  1  0  0  0  0
 11 18  1  0  0  0  0
 12 15  1  0  0  0  0
 13 14  1  0  0  0  0
 15 19  1  0  0  0  0
 16 20  1  0  0  0  0
 17 21  1  0  0  0  0
 18 22  1  0  0  0  0
M  END
> <ID>
13633

> <Formula>
C27H44O2

> <FW>
400.6371

> <DSSTox_CID>
28562

> <DSSTox_RID>
82834

> <DSSTox_GSID>
48636

> <DSSTox_FileID_Sort>
7511

> <TS_ChemName>
Gefarnate

> <TS_ChemName_Synonyms>
Geranyl farnesylacetate

> <TS_CASRN>
51-77-4

> <CASRN_ChemName_Relationship>
primary

> <TS_Description>
single chemical compound

> <ChemNote>
stereochem

> <STRUCTURE_Shown>
tested chemical

> <STRUCTURE_Formula>
C27H44O2

> <STRUCTURE_MW>
400.6371

> <STRUCTURE_ChemType>
defined organic

> <STRUCTURE_DefinedOrganicForm>
parent

> <STRUCTURE_IUPAC>
(2E)-3,7-dimethylocta-2,6-dien-1-yl (4E,8E)-5,9,13-trimethyltetradeca-4,8,12-trienoate

> <STRUCTURE_SMILES>
C\C(C)=C\CCC(\C)=C\COC(=O)CC\C=C(/C)CC\C=C(/C)CC\C=C(/C)C

> <STRUCTURE_SMILES_Desalt>
C\C(C)=C\CCC(\C)=C\COC(=O)CC\C=C(/C)CC\C=C(/C)CC\C=C(/C)C

> <Substance_modify_yyyymmdd>
20111015

$$$$
