51-98-9
ChemmineR-0915142007XD

 29 32  0  0  1  0  0  0  0  0  1 V2000
    6.9103   -3.7535    0.0000 C   0  0  0  0  0  0  0  0  0  0  0  0
    6.9103   -5.0770    0.0000 C   0  0  0  0  0  0  0  0  0  0  0  0
    3.4714   -7.0839    0.0000 C   0  0  0  0  0  0  0  0  0  0  0  0
    5.7821   -5.7278    0.0000 C   0  0  0  0  0  0  0  0  0  0  0  0
    4.6213   -5.0770    0.0000 C   0  0  0  0  0  0  0  0  0  0  0  0
    3.4714   -5.7278    0.0000 C   0  0  0  0  0  0  0  0  0  0  0  0
    8.1687   -3.3412    0.0000 C   0  0  0  0  0  0  0  0  0  0  0  0
    2.3324   -7.7348    0.0000 C   0  0  0  0  0  0  0  0  0  0  0  0
    9.4922   -3.3629    0.0000 C   0  0  0  0  0  0  0  0  0  0  0  0
    5.7821   -3.0809    0.0000 C   0  0  0  0  0  0  0  0  0  0  0  0
    4.6213   -3.7535    0.0000 C   0  0  0  0  0  0  0  0  0  0  0  0
    5.7821   -7.0839    0.0000 C   0  0  0  0  0  0  0  0  0  0  0  0
    8.1687   -5.4892    0.0000 C   0  0  0  0  0  0  0  0  0  0  0  0
   10.8482   -3.3629    0.0000 C   0  0  0  0  0  0  0  0  0  0  0  0
    2.3324   -5.0770    0.0000 C   0  0  0  0  0  0  0  0  0  0  0  0
    4.6213   -7.7348    0.0000 C   0  0  0  0  0  0  0  0  0  0  0  0
    1.1825   -7.0839    0.0000 C   0  0  0  0  0  0  0  0  0  0  0  0
    8.9498   -4.4152    0.0000 C   0  0  0  0  0  0  0  0  0  0  0  0
    0.0000   -7.7565    0.0000 O   0  0  0  0  0  0  0  0  0  0  0  0
    1.1825   -5.7278    0.0000 C   0  0  0  0  0  0  0  0  0  0  0  0
    8.1687   -2.0178    0.0000 O   0  0  0  0  0  0  0  0  0  0  0  0
    6.9103   -2.4083    0.0000 C   0  0  0  0  0  0  0  0  0  0  0  0
    5.7821   -4.4152    0.0000 H   0  0  0  0  0  0  0  0  0  0  0  0
    4.6213   -6.4004    0.0000 H   0  0  0  0  0  0  0  0  0  0  0  0
    6.9103   -6.4004    0.0000 H   0  0  0  0  0  0  0  0  0  0  0  0
    3.4714   -4.3935    0.0000 H   0  0  0  0  0  0  0  0  0  0  0  0
    9.3078   -1.3343    0.0000 C   0  0  0  0  0  0  0  0  0  0  0  0
    9.3078    0.0000    0.0000 O   0  0  0  0  0  0  0  0  0  0  0  0
   10.4685   -2.0178    0.0000 C   0  0  0  0  0  0  0  0  0  0  0  0
  1  2  1  0  0  0  0
  1  7  1  0  0  0  0
  1 10  1  0  0  0  0
  1 22  1  1  0  0  0
  2  4  1  0  0  0  0
  2 13  1  0  0  0  0
  2 25  1  6  0  0  0
  3  6  1  0  0  0  0
  3  8  2  0  0  0  0
  3 16  1  0  0  0  0
  4 12  1  0  0  0  0
  4  5  1  0  0  0  0
  4 23  1  1  0  0  0
  5 11  1  0  0  0  0
  5  6  1  0  0  0  0
  5 24  1  6  0  0  0
  6 15  1  0  0  0  0
  6 26  1  1  0  0  0
  7  9  1  6  0  0  0
  7 18  1  0  0  0  0
  7 21  1  1  0  0  0
  8 17  1  0  0  0  0
  9 14  3  0  0  0  0
 10 11  1  0  0  0  0
 12 16  1  0  0  0  0
 13 18  1  0  0  0  0
 15 20  1  0  0  0  0
 17 20  1  0  0  0  0
 17 19  2  0  0  0  0
 21 27  1  0  0  0  0
 27 28  2  0  0  0  0
 27 29  1  0  0  0  0
M  END
> <ID>
1034

> <Formula>
C22H28O3

> <FW>
340.4559

> <DSSTox_CID>
1071

> <DSSTox_RID>
77006

> <DSSTox_GSID>
23381

> <DSSTox_FileID_Sort>
1690

> <TS_ChemName>
Norethindrone acetate

> <TS_ChemName_Synonyms>


> <TS_CASRN>
51-98-9

> <CASRN_ChemName_Relationship>
primary

> <TS_Description>
single chemical compound

> <ChemNote>
stereochem

> <STRUCTURE_Shown>
tested chemical

> <STRUCTURE_Formula>
C22H28O3

> <STRUCTURE_MW>
340.4559

> <STRUCTURE_ChemType>
defined organic

> <STRUCTURE_DefinedOrganicForm>
parent

> <STRUCTURE_IUPAC>
(17beta)-17-ethynyl-3-oxoestr-4-en-17-yl acetate

> <STRUCTURE_SMILES>
CC(=O)O[C@@]3(C#C)CC[C@H]2[C@@H]4CCC1=CC(=O)CC[C@@H]1[C@H]4CC[C@@]23C

> <STRUCTURE_SMILES_Desalt>
CC(=O)O[C@@]3(C#C)CC[C@H]2[C@@H]4CCC1=CC(=O)CC[C@@H]1[C@H]4CC[C@@]23C

> <Substance_modify_yyyymmdd>
20080429

$$$$
