510-35-0
ChemmineR-0915142007XD

 19 21  0  0  0  0  0  0  0  0  1 V2000
    1.5922   -3.0159    0.0000 C   0  0  0  0  0  0  0  0  0  0  0  0
    2.2666   -1.9294    0.0000 C   0  0  0  0  0  0  0  0  0  0  0  0
    2.8785   -3.5529    0.0000 C   0  0  0  0  0  0  0  0  0  0  0  0
    2.2666   -0.6556    0.0000 C   0  0  0  0  0  0  0  0  0  0  0  0
    3.3530   -2.5725    0.0000 C   0  0  0  0  0  0  0  0  0  0  0  0
    4.4520   -0.6556    0.0000 C   0  0  0  0  0  0  0  0  0  0  0  0
    3.3530   -0.0125    0.0000 C   0  0  0  0  0  0  0  0  0  0  0  0
    4.4520   -1.9294    0.0000 C   0  0  0  0  0  0  0  0  0  0  0  0
    1.5922   -4.2834    0.0000 C   0  0  0  0  0  0  0  0  0  0  0  0
    0.0000   -3.3843    0.0000 C   0  0  0  0  0  0  0  0  0  0  0  0
    0.4870   -2.3290    0.0000 C   0  0  0  0  0  0  0  0  0  0  0  0
    2.3540   -5.2325    0.0000 C   0  0  0  0  0  0  0  0  0  0  0  0
    3.6403   -4.2834    0.0000 O   0  0  0  0  0  0  0  0  0  0  0  0
    5.5697    0.0000    0.0000 O   0  0  0  0  0  0  0  0  0  0  0  0
    3.6902   -5.2325    0.0000 O   0  0  0  0  0  0  0  0  0  0  0  0
    3.1220   -1.3924    0.0000 C   0  0  0  0  0  0  0  0  0  0  0  0
    1.7920   -6.2440    0.0000 O   0  0  0  0  0  0  0  0  0  0  0  0
    5.5697   -2.5850    0.0000 C   0  0  0  0  0  0  0  0  0  0  0  0
    0.6119   -4.8204    0.0000 C   0  0  0  0  0  0  0  0  0  0  0  0
  1  3  1  0  0  0  0
  1  4  1  0  0  0  0
  1  9  1  0  0  0  0
  1 10  1  0  0  0  0
  2  4  1  0  0  0  0
  2 16  1  0  0  0  0
  2 11  1  0  0  0  0
  2  5  1  0  0  0  0
  3  5  1  0  0  0  0
  3 13  2  0  0  0  0
  4  7  1  0  0  0  0
  5  8  1  0  0  0  0
  6  7  1  0  0  0  0
  6 14  2  0  0  0  0
  6  8  1  0  0  0  0
  8 18  1  0  0  0  0
  9 12  1  0  0  0  0
  9 19  1  0  0  0  0
 10 11  1  0  0  0  0
 12 15  2  0  0  0  0
 12 17  1  0  0  0  0
M  END
> <ID>
12041

> <Formula>
C15H20O4

> <FW>
264.3169

> <DSSTox_CID>
26871

> <DSSTox_RID>
81978

> <DSSTox_GSID>
46871

> <DSSTox_FileID_Sort>
6659

> <TS_ChemName>
Santonic acid

> <TS_ChemName_Synonyms>


> <TS_CASRN>
510-35-0

> <CASRN_ChemName_Relationship>
primary

> <TS_Description>
single chemical compound

> <ChemNote>


> <STRUCTURE_Shown>
tested chemical

> <STRUCTURE_Formula>
C15H20O4

> <STRUCTURE_MW>
264.3169

> <STRUCTURE_ChemType>
defined organic

> <STRUCTURE_DefinedOrganicForm>
parent

> <STRUCTURE_IUPAC>
2-(3a,5-dimethyl-6,8-dioxooctahydro-1H-1,4-methanoinden-1-yl)propanoic acid

> <STRUCTURE_SMILES>
O=C(O)C(C)C13CCC2(C)C(C(C)C(=O)CC12)C3=O

> <STRUCTURE_SMILES_Desalt>
O=C(O)C(C)C13CCC2(C)C(C(C)C(=O)CC12)C3=O

> <Substance_modify_yyyymmdd>
20110728

$$$$
