510-74-7
ChemmineR-0915142007XD

 28 31  0  0  0  0  0  0  0  0  1 V2000
   11.9264   -4.8713    0.0000 C   0  0  0  0  0  0  0  0  0  0  0  0
   11.2685   -6.0192    0.0000 C   0  0  0  0  0  0  0  0  0  0  0  0
    9.9527   -6.0052    0.0000 C   0  0  0  0  0  0  0  0  0  0  0  0
    9.2667   -4.8713    0.0000 N   0  0  0  0  0  0  0  0  0  0  0  0
    7.9509   -4.8713    0.0000 C   0  0  0  0  0  0  0  0  0  0  0  0
    7.2930   -6.0192    0.0000 C   0  0  0  0  0  0  0  0  0  0  0  0
    5.9632   -6.0332    0.0000 C   0  0  0  0  0  0  0  0  0  0  0  0
    5.3193   -7.1810    0.0000 O   0  0  0  0  0  0  0  0  0  0  0  0
    3.9895   -7.2090    0.0000 C   0  0  0  0  0  0  0  0  0  0  0  0
    3.3315   -8.3569    0.0000 C   0  0  0  0  0  0  0  0  0  0  0  0
    2.0017   -8.3569    0.0000 C   0  0  0  0  0  0  0  0  0  0  0  0
    1.3298   -7.2230    0.0000 C   0  0  0  0  0  0  0  0  0  0  0  0
    0.0000   -7.2230    0.0000 F   0  0  0  0  0  0  0  0  0  0  0  0
    1.9877   -6.0612    0.0000 C   0  0  0  0  0  0  0  0  0  0  0  0
    3.3176   -6.0612    0.0000 C   0  0  0  0  0  0  0  0  0  0  0  0
    9.9527   -3.7095    0.0000 C   0  0  0  0  0  0  0  0  0  0  0  0
   11.2685   -3.7095    0.0000 C   0  0  0  0  0  0  0  0  0  0  0  0
   12.7103   -3.7935    0.0000 N   0  0  0  0  0  0  0  0  0  0  0  0
   12.7103   -5.9492    0.0000 C   0  0  0  0  0  0  0  0  0  0  0  0
   13.9981   -4.2134    0.0000 C   0  0  0  0  0  0  0  0  0  0  0  0
   13.9981   -5.5433    0.0000 N   0  0  0  0  0  0  0  0  0  0  0  0
   12.2903   -7.2230    0.0000 O   0  0  0  0  0  0  0  0  0  0  0  0
   12.3183   -2.5477    0.0000 C   0  0  0  0  0  0  0  0  0  0  0  0
   11.0165   -2.2397    0.0000 C   0  0  0  0  0  0  0  0  0  0  0  0
   13.2142   -1.5538    0.0000 C   0  0  0  0  0  0  0  0  0  0  0  0
   10.5966   -0.9939    0.0000 C   0  0  0  0  0  0  0  0  0  0  0  0
   12.7943   -0.2660    0.0000 C   0  0  0  0  0  0  0  0  0  0  0  0
   11.5064    0.0000    0.0000 C   0  0  0  0  0  0  0  0  0  0  0  0
  1  2  1  0  0  0  0
  1 17  1  0  0  0  0
  1 18  1  0  0  0  0
  1 19  1  0  0  0  0
  2  3  1  0  0  0  0
  3  4  1  0  0  0  0
  4  5  1  0  0  0  0
  4 16  1  0  0  0  0
  5  6  1  0  0  0  0
  6  7  1  0  0  0  0
  7  8  1  0  0  0  0
  8  9  1  0  0  0  0
  9 10  1  0  0  0  0
  9 15  2  0  0  0  0
 10 11  2  0  0  0  0
 11 12  1  0  0  0  0
 12 13  1  0  0  0  0
 12 14  2  0  0  0  0
 14 15  1  0  0  0  0
 16 17  1  0  0  0  0
 18 20  1  0  0  0  0
 18 23  1  0  0  0  0
 19 21  1  0  0  0  0
 19 22  2  0  0  0  0
 20 21  1  0  0  0  0
 23 24  1  0  0  0  0
 23 25  2  0  0  0  0
 24 26  2  0  0  0  0
 25 27  1  0  0  0  0
 26 28  1  0  0  0  0
 27 28  2  0  0  0  0
M  END
> <ID>
9451

> <Formula>
C22H26FN3O2

> <FW>
383.4591

> <DSSTox_CID>
22579

> <DSSTox_RID>
80051

> <DSSTox_GSID>
42579

> <DSSTox_FileID_Sort>
4733

> <TS_ChemName>
AMI-193

> <TS_ChemName_Synonyms>


> <TS_CASRN>
510-74-7

> <CASRN_ChemName_Relationship>
primary

> <TS_Description>
single chemical compound

> <ChemNote>


> <STRUCTURE_Shown>
tested chemical

> <STRUCTURE_Formula>
C22H26FN3O2

> <STRUCTURE_MW>
383.4591

> <STRUCTURE_ChemType>
defined organic

> <STRUCTURE_DefinedOrganicForm>
parent

> <STRUCTURE_IUPAC>
8-[3-(4-fluorophenoxy)propyl]-1-phenyl-1,3,8-triazaspiro[4.5]decan-4-one

> <STRUCTURE_SMILES>
Fc1ccc(cc1)OCCCN2CCC4(CC2)C(=O)NCN4c3ccccc3

> <STRUCTURE_SMILES_Desalt>
Fc1ccc(cc1)OCCCN2CCC4(CC2)C(=O)NCN4c3ccccc3

> <Substance_modify_yyyymmdd>
20081003

$$$$
