510-15-6
ChemmineR-0915142007XD

 21 22  0  0  0  0  0  0  0  0  1 V2000
    0.0000   -5.3155    0.0000 O    0  0  0  0  0  0  0  0  0  0  0  0
    1.3312   -5.3155    0.0000 C    0  0  0  0  0  0  0  0  0  0  0  0
    1.3312   -3.9936    0.0000 C    0  0  0  0  0  0  0  0  0  0  0  0
    0.1769   -3.3233    0.0000 C    0  0  0  0  0  0  0  0  0  0  0  0
    0.1769   -1.9921    0.0000 C    0  0  0  0  0  0  0  0  0  0  0  0
    1.3312   -1.3312    0.0000 C    0  0  0  0  0  0  0  0  0  0  0  0
    2.4855   -1.9921    0.0000 C    0  0  0  0  0  0  0  0  0  0  0  0
    2.4855   -3.3233    0.0000 C    0  0  0  0  0  0  0  0  0  0  0  0
    1.3312    0.0000    0.0000 Cl   0  0  0  0  0  0  0  0  0  0  0  0
    2.6624   -5.3155    0.0000 C    0  0  0  0  0  0  0  0  0  0  0  0
    3.3233   -4.1705    0.0000 C    0  0  0  0  0  0  0  0  0  0  0  0
    4.6545   -4.1705    0.0000 C    0  0  0  0  0  0  0  0  0  0  0  0
    5.3155   -5.3155    0.0000 C    0  0  0  0  0  0  0  0  0  0  0  0
    4.6545   -6.4698    0.0000 C    0  0  0  0  0  0  0  0  0  0  0  0
    3.3233   -6.4698    0.0000 C    0  0  0  0  0  0  0  0  0  0  0  0
    6.6467   -5.3155    0.0000 Cl   0  0  0  0  0  0  0  0  0  0  0  0
    1.3312   -6.6467    0.0000 C    0  0  0  0  0  0  0  0  0  0  0  0
    0.1769   -7.3169    0.0000 O    0  0  0  0  0  0  0  0  0  0  0  0
    2.4855   -7.3169    0.0000 O    0  0  0  0  0  0  0  0  0  0  0  0
    2.4855   -8.6481    0.0000 C    0  0  0  0  0  0  0  0  0  0  0  0
    3.6305   -9.3091    0.0000 C    0  0  0  0  0  0  0  0  0  0  0  0
  1  2  1  0  0  0  0
  2  3  1  0  0  0  0
  2 10  1  0  0  0  0
  2 17  1  0  0  0  0
  3  4  2  0  0  0  0
  3  8  1  0  0  0  0
  4  5  1  0  0  0  0
  5  6  2  0  0  0  0
  6  7  1  0  0  0  0
  6  9  1  0  0  0  0
  7  8  2  0  0  0  0
 10 11  2  0  0  0  0
 10 15  1  0  0  0  0
 11 12  1  0  0  0  0
 12 13  2  0  0  0  0
 13 14  1  0  0  0  0
 13 16  1  0  0  0  0
 14 15  2  0  0  0  0
 17 18  2  0  0  0  0
 17 19  1  0  0  0  0
 19 20  1  0  0  0  0
 20 21  1  0  0  0  0
M  END
> <ID>
290

> <Formula>
C16H14Cl2O3

> <FW>
325.1866

> <DSSTox_CID>
299

> <DSSTox_RID>
75498

> <DSSTox_GSID>
20299

> <DSSTox_FileID_Sort>
182

> <TS_ChemName>
Chlorobenzilate

> <TS_ChemName_Synonyms>


> <TS_CASRN>
510-15-6

> <CASRN_ChemName_Relationship>
primary

> <TS_Description>
single chemical compound

> <ChemNote>


> <STRUCTURE_Shown>
tested chemical

> <STRUCTURE_Formula>
C16H14Cl2O3

> <STRUCTURE_MW>
325.1866

> <STRUCTURE_ChemType>
defined organic

> <STRUCTURE_DefinedOrganicForm>
parent

> <STRUCTURE_IUPAC>
ethyl bis(4-chlorophenyl)(hydroxy)acetate

> <STRUCTURE_SMILES>
OC(c1ccc(Cl)cc1)(c2ccc(Cl)cc2)C(=O)OCC

> <STRUCTURE_SMILES_Desalt>
OC(c1ccc(Cl)cc1)(c2ccc(Cl)cc2)C(=O)OCC

> <Substance_modify_yyyymmdd>
20080429

$$$$
