51012-33-0
ChemmineR-0915142007XD

 23 22  0  0  0  0  0  0  0  0  1 V2000
   14.7852   -2.3656    0.0000 Cl   0  0  0  0  0  0  0  0  0  0  0  0
    2.3065   -3.3267    0.0000 C    0  0  0  0  0  0  0  0  0  0  0  0
    1.1532   -4.0068    0.0000 S    0  0  0  0  0  0  0  0  0  0  0  0
    1.8186   -5.1600    0.0000 O    0  0  0  0  0  0  0  0  0  0  0  0
    0.4879   -2.8388    0.0000 O    0  0  0  0  0  0  0  0  0  0  0  0
    0.0000   -4.6573    0.0000 C    0  0  0  0  0  0  0  0  0  0  0  0
    2.3065   -2.0108    0.0000 C    0  0  0  0  0  0  0  0  0  0  0  0
    3.4450   -1.3307    0.0000 C    0  0  0  0  0  0  0  0  0  0  0  0
    4.5982   -2.0108    0.0000 C    0  0  0  0  0  0  0  0  0  0  0  0
    5.7514   -1.3307    0.0000 O    0  0  0  0  0  0  0  0  0  0  0  0
    5.7514    0.0000    0.0000 C    0  0  0  0  0  0  0  0  0  0  0  0
    4.5982   -3.3267    0.0000 C    0  0  0  0  0  0  0  0  0  0  0  0
    5.7514   -4.0068    0.0000 C    0  0  0  0  0  0  0  0  0  0  0  0
    5.7514   -5.3079    0.0000 O    0  0  0  0  0  0  0  0  0  0  0  0
    6.9047   -3.3267    0.0000 N    0  0  0  0  0  0  0  0  0  0  0  0
    8.0727   -4.0068    0.0000 C    0  0  0  0  0  0  0  0  0  0  0  0
    9.2112   -3.3267    0.0000 C    0  0  0  0  0  0  0  0  0  0  0  0
   10.3644   -4.0068    0.0000 N    0  0  0  0  0  0  0  0  0  0  0  0
   10.3644   -5.3079    0.0000 C    0  0  0  0  0  0  0  0  0  0  0  0
   11.5177   -5.9880    0.0000 C    0  0  0  0  0  0  0  0  0  0  0  0
   11.5177   -3.3267    0.0000 C    0  0  0  0  0  0  0  0  0  0  0  0
   11.5177   -2.0108    0.0000 C    0  0  0  0  0  0  0  0  0  0  0  0
    3.4450   -4.0068    0.0000 C    0  0  0  0  0  0  0  0  0  0  0  0
  2  3  1  0  0  0  0
  2  7  2  0  0  0  0
  2 23  1  0  0  0  0
  3  4  2  0  0  0  0
  3  5  2  0  0  0  0
  3  6  1  0  0  0  0
  7  8  1  0  0  0  0
  8  9  2  0  0  0  0
  9 10  1  0  0  0  0
  9 12  1  0  0  0  0
 10 11  1  0  0  0  0
 12 13  1  0  0  0  0
 12 23  2  0  0  0  0
 13 14  2  0  0  0  0
 13 15  1  0  0  0  0
 15 16  1  0  0  0  0
 16 17  1  0  0  0  0
 17 18  1  0  0  0  0
 18 19  1  0  0  0  0
 18 21  1  0  0  0  0
 19 20  1  0  0  0  0
 21 22  1  0  0  0  0
M  END
> <ID>
10823

> <Formula>
C15H25ClN2O4S

> <FW>
364.8880 (36.4609+328.4271)

> <DSSTox_CID>
25210

> <DSSTox_RID>
80753

> <DSSTox_GSID>
45210

> <DSSTox_FileID_Sort>
5434

> <TS_ChemName>
Tiapride hydrochloride

> <TS_ChemName_Synonyms>


> <TS_CASRN>
51012-33-0

> <CASRN_ChemName_Relationship>
primary

> <TS_Description>
single chemical compound

> <ChemNote>
parent [51012-32-9]

> <STRUCTURE_Shown>
tested chemical

> <STRUCTURE_Formula>
C15H25ClN2O4S

> <STRUCTURE_MW>
364.888

> <STRUCTURE_ChemType>
defined organic

> <STRUCTURE_DefinedOrganicForm>
complex

> <STRUCTURE_IUPAC>
N-[2-(diethylamino)ethyl]-2-methoxy-5-(methylsulfonyl)benzamide hydrochloride (1:1)

> <STRUCTURE_SMILES>
Cl.O=S(C)(=O)c1cc(c(OC)cc1)C(=O)NCCN(CC)CC

> <STRUCTURE_SMILES_Desalt>
O=S(C)(=O)c1cc(c(OC)cc1)C(=O)NCCN(CC)CC

> <Substance_modify_yyyymmdd>
20100107

$$$$
