51022-69-6
ChemmineR-0915142007XD

 38 43  0  0  1  0  0  0  0  0  1 V2000
    8.0421   -3.8515    0.0000 C   0  0  0  0  0  0  0  0  0  0  0  0
    6.7946   -4.2269    0.0000 C   0  0  0  0  0  0  0  0  0  0  0  0
    4.5540   -5.5713    0.0000 C   0  0  0  0  0  0  0  0  0  0  0  0
    3.4034   -6.2254    0.0000 C   0  0  0  0  0  0  0  0  0  0  0  0
    6.7946   -5.5713    0.0000 C   0  0  0  0  0  0  0  0  0  0  0  0
    5.6803   -6.2254    0.0000 C   0  0  0  0  0  0  0  0  0  0  0  0
    8.8051   -4.8689    0.0000 C   0  0  0  0  0  0  0  0  0  0  0  0
    3.4034   -7.5334    0.0000 C   0  0  0  0  0  0  0  0  0  0  0  0
    8.7688   -2.7614    0.0000 O   0  0  0  0  0  0  0  0  0  0  0  0
    4.5540   -4.2269    0.0000 C   0  0  0  0  0  0  0  0  0  0  0  0
    5.6803   -3.6093    0.0000 C   0  0  0  0  0  0  0  0  0  0  0  0
   10.0768   -3.1490    0.0000 C   0  0  0  0  0  0  0  0  0  0  0  0
   10.0768   -4.4328    0.0000 O   0  0  0  0  0  0  0  0  0  0  0  0
    2.3012   -5.5713    0.0000 C   0  0  0  0  0  0  0  0  0  0  0  0
    8.0421   -5.9468    0.0000 C   0  0  0  0  0  0  0  0  0  0  0  0
    8.0421   -1.9984    0.0000 C   0  0  0  0  0  0  0  0  0  0  0  0
    2.3012   -8.1874    0.0000 C   0  0  0  0  0  0  0  0  0  0  0  0
    5.6803   -7.5334    0.0000 C   0  0  0  0  0  0  0  0  0  0  0  0
    1.1506   -6.2254    0.0000 C   0  0  0  0  0  0  0  0  0  0  0  0
    1.1506   -7.5334    0.0000 C   0  0  0  0  0  0  0  0  0  0  0  0
    4.5540   -8.1874    0.0000 C   0  0  0  0  0  0  0  0  0  0  0  0
    4.5540   -1.2717    0.0000 C   0  0  0  0  0  0  0  0  0  0  0  0
    4.5540   -6.8552    0.0000 F   0  0  0  0  0  0  0  0  0  0  0  0
    6.9278   -1.3081    0.0000 C   0  0  0  0  0  0  0  0  0  0  0  0
    9.0474   -1.1506    0.0000 O   0  0  0  0  0  0  0  0  0  0  0  0
    5.8015   -1.9742    0.0000 O   0  0  0  0  0  0  0  0  0  0  0  0
    4.5540    0.0000    0.0000 O   0  0  0  0  0  0  0  0  0  0  0  0
    0.0000   -8.1995    0.0000 O   0  0  0  0  0  0  0  0  0  0  0  0
    6.7946   -3.0400    0.0000 C   0  0  0  0  0  0  0  0  0  0  0  0
    3.4034   -3.5729    0.0000 O   0  0  0  0  0  0  0  0  0  0  0  0
    3.4034   -4.7356    0.0000 C   0  0  0  0  0  0  0  0  0  0  0  0
   10.0768   -1.8410    0.0000 C   0  0  0  0  0  0  0  0  0  0  0  0
   11.3728   -3.5487    0.0000 C   0  0  0  0  0  0  0  0  0  0  0  0
    3.4034   -1.9500    0.0000 C   0  0  0  0  0  0  0  0  0  0  0  0
   12.1116   -2.4102    0.0000 C   0  0  0  0  0  0  0  0  0  0  0  0
   11.2638   -1.4292    0.0000 C   0  0  0  0  0  0  0  0  0  0  0  0
    6.7946   -7.0126    0.0000 H   0  0  0  0  0  0  0  0  0  0  0  0
    5.6803   -4.9173    0.0000 H   0  0  0  0  0  0  0  0  0  0  0  0
  1  2  1  0  0  0  0
  1  7  1  0  0  0  0
  1  9  1  6  0  0  0
  1 16  1  1  0  0  0
  2  5  1  0  0  0  0
  2 11  1  0  0  0  0
  2 29  1  1  0  0  0
  3 10  1  0  0  0  0
  3  4  1  0  0  0  0
  3 23  1  6  0  0  0
  3  6  1  0  0  0  0
  4  8  1  0  0  0  0
  4 14  1  0  0  0  0
  4 31  1  1  0  0  0
  5  6  1  0  0  0  0
  5 37  1  6  0  0  0
  5 15  1  0  0  0  0
  6 18  1  0  0  0  0
  6 38  1  1  0  0  0
  7 13  1  6  0  0  0
  7 15  1  0  0  0  0
  8 17  2  0  0  0  0
  8 21  1  0  0  0  0
  9 12  1  0  0  0  0
 10 11  1  0  0  0  0
 10 30  1  1  0  0  0
 12 32  1  0  0  0  0
 12 33  1  0  0  0  0
 12 13  1  0  0  0  0
 14 19  2  0  0  0  0
 16 24  1  0  0  0  0
 16 25  2  0  0  0  0
 17 20  1  0  0  0  0
 18 21  1  0  0  0  0
 19 20  1  0  0  0  0
 20 28  2  0  0  0  0
 22 26  1  0  0  0  0
 22 27  2  0  0  0  0
 22 34  1  0  0  0  0
 24 26  1  0  0  0  0
 32 36  1  0  0  0  0
 33 35  1  0  0  0  0
 35 36  1  0  0  0  0
M  END
> <ID>
11285

> <Formula>
C28H35FO7

> <FW>
502.5717

> <DSSTox_CID>
25905

> <DSSTox_RID>
81217

> <DSSTox_GSID>
45905

> <DSSTox_FileID_Sort>
5898

> <TS_ChemName>
Amcinonide

> <TS_ChemName_Synonyms>


> <TS_CASRN>
51022-69-6

> <CASRN_ChemName_Relationship>
primary

> <TS_Description>
single chemical compound

> <ChemNote>
stereochem; tautomers

> <STRUCTURE_Shown>
tested chemical

> <STRUCTURE_Formula>
C28H35FO7

> <STRUCTURE_MW>
502.5717

> <STRUCTURE_ChemType>
defined organic

> <STRUCTURE_DefinedOrganicForm>
parent

> <STRUCTURE_IUPAC>
2-[(4a'S,4b'R,5'S,6a'S,6b'S,9a'R,10a'S,10b'S)-4b'-fluoro-5'-hydroxy-4a',6a'-dimethyl-2'-oxo-2',4a',4b',5',6',6a',9a',10',10a',10b',11',12'-dodecahydro-6b'H-spiro[cyclopentane-1,8'-naphtho[2',1':4,5]indeno[1,2-d][1,3]dioxol]-6b'-yl]-2-oxoethyl acetate

> <STRUCTURE_SMILES>
CC(=O)OCC(=O)[C@@]65OC1(CCCC1)O[C@@H]6C[C@@H]4[C@]5(C)C[C@H](O)[C@@]3(F)[C@H]4CCC2=CC(=O)C=C[C@@]23C

> <STRUCTURE_SMILES_Desalt>
CC(=O)OCC(=O)[C@@]65OC1(CCCC1)O[C@@H]6C[C@@H]4[C@]5(C)C[C@H](O)[C@@]3(F)[C@H]4CCC2=CC(=O)C=C[C@@]23C

> <Substance_modify_yyyymmdd>
20110922

$$$$
