51022-98-1
ChemmineR-0915142007XD

 48 48  0  0  1  0  0  0  0  0  1 V2000
   10.0082   -1.8776    0.0000 C   0  0  0  0  0  0  0  0  0  0  0  0
   10.0082   -3.1179    0.0000 C   0  0  0  0  0  0  0  0  0  0  0  0
    8.9402   -1.2575    0.0000 C   0  0  0  0  0  0  0  0  0  0  0  0
    8.9402   -3.7380    0.0000 C   0  0  0  0  0  0  0  0  0  0  0  0
    7.8550   -1.8776    0.0000 C   0  0  0  0  0  0  0  0  0  0  0  0
    7.8550   -3.1179    0.0000 C   0  0  0  0  0  0  0  0  0  0  0  0
    8.9402    0.0000    0.0000 N   0  0  0  0  0  0  0  0  0  0  0  0
   11.0935   -3.7380    0.0000 N   0  0  0  0  0  0  0  0  0  0  0  0
    8.9402   -4.9955    0.0000 O   0  0  0  0  0  0  0  0  0  0  0  0
    6.7870   -3.7380    0.0000 O   0  0  0  0  0  0  0  0  0  0  0  0
    5.7534   -1.0680    0.0000 O   0  0  0  0  0  0  0  0  0  0  0  0
    3.2557   -1.8776    0.0000 C   0  0  0  0  0  0  0  0  0  0  0  0
    3.2557   -3.1179    0.0000 C   0  0  0  0  0  0  0  0  0  0  0  0
    2.1532   -1.2575    0.0000 O   0  0  0  0  0  0  0  0  0  0  0  0
    2.1532   -3.7380    0.0000 C   0  0  0  0  0  0  0  0  0  0  0  0
    1.0680   -1.8776    0.0000 C   0  0  0  0  0  0  0  0  0  0  0  0
    1.0680   -3.1179    0.0000 C   0  0  0  0  0  0  0  0  0  0  0  0
    4.3237   -3.7380    0.0000 N   0  0  0  0  0  0  0  0  0  0  0  0
    2.1532   -4.9955    0.0000 O   0  0  0  0  0  0  0  0  0  0  0  0
    0.0000   -3.7380    0.0000 O   0  0  0  0  0  0  0  0  0  0  0  0
    0.0000   -1.2575    0.0000 C   0  0  0  0  0  0  0  0  0  0  0  0
    0.0000    0.0000    0.0000 N   0  0  0  0  0  0  0  0  0  0  0  0
   12.1787   -3.1179    0.0000 C   0  0  0  0  0  0  0  0  0  0  0  0
   12.1787   -1.8776    0.0000 O   0  0  0  0  0  0  0  0  0  0  0  0
   13.2467   -3.7380    0.0000 C   0  0  0  0  0  0  0  0  0  0  0  0
   13.2467   -4.9955    0.0000 O   0  0  0  0  0  0  0  0  0  0  0  0
   14.3491   -3.1179    0.0000 C   0  0  0  0  0  0  0  0  0  0  0  0
   15.4171   -3.7380    0.0000 C   0  0  0  0  0  0  0  0  0  0  0  0
   16.4851   -3.1179    0.0000 N   0  0  0  0  0  0  0  0  0  0  0  0
    3.8758   -6.4425    0.0000 C   0  0  0  0  0  0  0  0  0  0  0  0
    4.8577   -5.6845    0.0000 O   0  0  0  0  0  0  0  0  0  0  0  0
    4.2203   -7.5966    0.0000 C   0  0  0  0  0  0  0  0  0  0  0  0
    5.8740   -6.4425    0.0000 C   0  0  0  0  0  0  0  0  0  0  0  0
    5.5123   -7.5966    0.0000 C   0  0  0  0  0  0  0  0  0  0  0  0
    6.2358   -8.6129    0.0000 O   0  0  0  0  0  0  0  0  0  0  0  0
    3.4968   -8.6129    0.0000 O   0  0  0  0  0  0  0  0  0  0  0  0
    2.6700   -6.0290    0.0000 C   0  0  0  0  0  0  0  0  0  0  0  0
    1.7226   -6.8214    0.0000 O   0  0  0  0  0  0  0  0  0  0  0  0
   11.8858   -7.2865    0.0000 S   0  0  0  0  0  0  0  0  0  0  0  0
   13.1261   -7.2865    0.0000 O   0  0  0  0  0  0  0  0  0  0  0  0
   10.6284   -7.2865    0.0000 O   0  0  0  0  0  0  0  0  0  0  0  0
   11.8858   -8.5440    0.0000 O   0  0  0  0  0  0  0  0  0  0  0  0
   11.8858   -6.0463    0.0000 O   0  0  0  0  0  0  0  0  0  0  0  0
   15.9856   -7.0626    0.0000 S   0  0  0  0  0  0  0  0  0  0  0  0
   17.2259   -7.0626    0.0000 O   0  0  0  0  0  0  0  0  0  0  0  0
   14.7281   -7.0626    0.0000 O   0  0  0  0  0  0  0  0  0  0  0  0
   15.9856   -8.3201    0.0000 O   0  0  0  0  0  0  0  0  0  0  0  0
   15.9856   -5.8223    0.0000 O   0  0  0  0  0  0  0  0  0  0  0  0
  1  2  1  0  0  0  0
  1  3  1  0  0  0  0
  2  4  1  0  0  0  0
  2  8  1  1  0  0  0
  3  5  1  0  0  0  0
  3  7  1  1  0  0  0
  4  6  1  0  0  0  0
  4  9  1  6  0  0  0
  5  6  1  0  0  0  0
  5 11  1  6  0  0  0
  6 10  1  1  0  0  0
  8 23  1  0  0  0  0
 33 10  1  1  0  0  0
 12 11  1  6  0  0  0
 12 13  1  0  0  0  0
 12 14  1  0  0  0  0
 13 15  1  0  0  0  0
 13 18  1  6  0  0  0
 14 16  1  0  0  0  0
 15 17  1  0  0  0  0
 15 19  1  1  0  0  0
 16 17  1  0  0  0  0
 16 21  1  1  0  0  0
 17 20  1  6  0  0  0
 21 22  1  0  0  0  0
 23 24  2  0  0  0  0
 23 25  1  0  0  0  0
 25 26  1  6  0  0  0
 25 27  1  0  0  0  0
 27 28  1  0  0  0  0
 28 29  1  0  0  0  0
 30 31  1  0  0  0  0
 30 32  1  0  0  0  0
 30 37  1  1  0  0  0
 31 33  1  0  0  0  0
 32 34  1  0  0  0  0
 32 36  1  6  0  0  0
 33 34  1  0  0  0  0
 34 35  1  6  0  0  0
 37 38  1  0  0  0  0
 39 40  2  0  0  0  0
 39 41  2  0  0  0  0
 39 42  1  0  0  0  0
 39 43  1  0  0  0  0
 44 45  2  0  0  0  0
 44 46  2  0  0  0  0
 44 47  1  0  0  0  0
 44 48  1  0  0  0  0
M  END
> <ID>
10971

> <Formula>
C21H45N5O20S2

> <FW>
751.7335 (555.5765+98.0785+98.0785)

> <DSSTox_CID>
25476

> <DSSTox_RID>
80903

> <DSSTox_GSID>
45476

> <DSSTox_FileID_Sort>
5584

> <TS_ChemName>
Butirosin disulfate

> <TS_ChemName_Synonyms>


> <TS_CASRN>
51022-98-1

> <CASRN_ChemName_Relationship>
primary

> <TS_Description>
single chemical compound

> <ChemNote>
Butirosin A [34291-02-6]; Butirosin B [34291-03-7]

> <STRUCTURE_Shown>
tested chemical

> <STRUCTURE_Formula>
C21H45N5O20S2

> <STRUCTURE_MW>
751.7335

> <STRUCTURE_ChemType>
defined organic

> <STRUCTURE_DefinedOrganicForm>
complex

> <STRUCTURE_IUPAC>
(2S)-4-amino-N-[(1R,2S,3R,4R,5S)-5-amino-4-[(2,6-diamino-2,6-dideoxy-alpha-D-glucopyranosyl)oxy]-2-hydroxy-3-(beta-D-ribofuranosyloxy)cyclohexyl]-2-hydroxybutanamide sulfate (1:2)

> <STRUCTURE_SMILES>
O=S(=O)(O)O.O=S(=O)(O)O.NCC[C@H](O)C(=O)N[C@@H]3C[C@H](N)[C@@H](O[C@H]1O[C@H](CN)[C@@H](O)[C@H](O)[C@H]1N)[C@H](O[C@@H]2O[C@H](CO)[C@@H](O)[C@H]2O)[C@H]3O

> <STRUCTURE_SMILES_Desalt>
NCC[C@H](O)C(=O)N[C@@H]3C[C@H](N)[C@@H](O[C@H]1O[C@H](CN)[C@@H](O)[C@H](O)[C@H]1N)[C@H](O[C@@H]2O[C@H](CO)[C@@H](O)[C@H]2O)[C@H]3O

> <Substance_modify_yyyymmdd>
20100107

$$$$
