51022-74-3
ChemmineR-0915142007XD

 39 40  0  0  0  0  0  0  0  0  1 V2000
    3.4288   -4.0041    0.0000 C   0  0  0  0  0  0  0  0  0  0  0  0
    3.4288   -2.6464    0.0000 C   0  0  0  0  0  0  0  0  0  0  0  0
    2.3012   -4.6715    0.0000 C   0  0  0  0  0  0  0  0  0  0  0  0
    2.3012   -2.0021    0.0000 C   0  0  0  0  0  0  0  0  0  0  0  0
    1.1506   -4.0041    0.0000 C   0  0  0  0  0  0  0  0  0  0  0  0
    1.1506   -2.6464    0.0000 C   0  0  0  0  0  0  0  0  0  0  0  0
    2.3012   -0.6674    0.0000 C   0  0  0  0  0  0  0  0  0  0  0  0
    3.4288    0.0000    0.0000 O   0  0  0  0  0  0  0  0  0  0  0  0
    1.1276   -0.0230    0.0000 O   0  0  0  0  0  0  0  0  0  0  0  0
    0.0000   -2.0021    0.0000 I   0  0  0  0  0  0  0  0  0  0  0  0
    2.3012   -6.0062    0.0000 I   0  0  0  0  0  0  0  0  0  0  0  0
    4.6255   -2.0021    0.0000 I   0  0  0  0  0  0  0  0  0  0  0  0
    4.6255   -4.6715    0.0000 N   0  0  0  0  0  0  0  0  0  0  0  0
    5.7531   -4.0272    0.0000 C   0  0  0  0  0  0  0  0  0  0  0  0
    5.7531   -2.6694    0.0000 O   0  0  0  0  0  0  0  0  0  0  0  0
    6.9037   -4.6715    0.0000 C   0  0  0  0  0  0  0  0  0  0  0  0
    8.0543   -4.0272    0.0000 O   0  0  0  0  0  0  0  0  0  0  0  0
    9.2049   -4.6715    0.0000 C   0  0  0  0  0  0  0  0  0  0  0  0
   10.3785   -4.0272    0.0000 C   0  0  0  0  0  0  0  0  0  0  0  0
   11.5292   -4.6715    0.0000 O   0  0  0  0  0  0  0  0  0  0  0  0
   12.6798   -4.0272    0.0000 C   0  0  0  0  0  0  0  0  0  0  0  0
   13.8074   -4.6715    0.0000 C   0  0  0  0  0  0  0  0  0  0  0  0
   14.9810   -4.0272    0.0000 O   0  0  0  0  0  0  0  0  0  0  0  0
   16.1316   -4.6715    0.0000 C   0  0  0  0  0  0  0  0  0  0  0  0
   17.2822   -4.0272    0.0000 C   0  0  0  0  0  0  0  0  0  0  0  0
   18.4098   -4.6715    0.0000 N   0  0  0  0  0  0  0  0  0  0  0  0
   17.2822   -2.6694    0.0000 O   0  0  0  0  0  0  0  0  0  0  0  0
   19.5604   -4.0272    0.0000 C   0  0  0  0  0  0  0  0  0  0  0  0
   19.5604   -2.6694    0.0000 C   0  0  0  0  0  0  0  0  0  0  0  0
   20.7111   -4.6715    0.0000 C   0  0  0  0  0  0  0  0  0  0  0  0
   20.7111   -2.0021    0.0000 C   0  0  0  0  0  0  0  0  0  0  0  0
   21.8847   -4.0272    0.0000 C   0  0  0  0  0  0  0  0  0  0  0  0
   21.8847   -2.6694    0.0000 C   0  0  0  0  0  0  0  0  0  0  0  0
   20.7111   -0.6674    0.0000 C   0  0  0  0  0  0  0  0  0  0  0  0
   19.5604   -0.0230    0.0000 O   0  0  0  0  0  0  0  0  0  0  0  0
   21.8847   -0.0230    0.0000 O   0  0  0  0  0  0  0  0  0  0  0  0
   23.0123   -2.0021    0.0000 I   0  0  0  0  0  0  0  0  0  0  0  0
   20.7111   -6.0062    0.0000 I   0  0  0  0  0  0  0  0  0  0  0  0
   18.4098   -2.0021    0.0000 I   0  0  0  0  0  0  0  0  0  0  0  0
  1  2  1  0  0  0  0
  1  3  2  0  0  0  0
  1 13  1  0  0  0  0
  2  4  2  0  0  0  0
  2 12  1  0  0  0  0
  3  5  1  0  0  0  0
  3 11  1  0  0  0  0
  4  6  1  0  0  0  0
  4  7  1  0  0  0  0
  5  6  2  0  0  0  0
  6 10  1  0  0  0  0
  7  8  2  0  0  0  0
  7  9  1  0  0  0  0
 13 14  1  0  0  0  0
 14 15  2  0  0  0  0
 14 16  1  0  0  0  0
 16 17  1  0  0  0  0
 17 18  1  0  0  0  0
 18 19  1  0  0  0  0
 19 20  1  0  0  0  0
 20 21  1  0  0  0  0
 21 22  1  0  0  0  0
 22 23  1  0  0  0  0
 23 24  1  0  0  0  0
 24 25  1  0  0  0  0
 25 26  1  0  0  0  0
 25 27  2  0  0  0  0
 26 28  1  0  0  0  0
 28 29  1  0  0  0  0
 28 30  2  0  0  0  0
 29 31  2  0  0  0  0
 29 39  1  0  0  0  0
 30 32  1  0  0  0  0
 30 38  1  0  0  0  0
 31 33  1  0  0  0  0
 31 34  1  0  0  0  0
 32 33  2  0  0  0  0
 33 37  1  0  0  0  0
 34 35  2  0  0  0  0
 34 36  1  0  0  0  0
M  END
> <ID>
13771

> <Formula>
C22H18I6N2O9

> <FW>
1215.8131

> <DSSTox_CID>
28708

> <DSSTox_RID>
82977

> <DSSTox_GSID>
48782

> <DSSTox_FileID_Sort>
7654

> <TS_ChemName>
Biliscopin

> <TS_ChemName_Synonyms>


> <TS_CASRN>
51022-74-3

> <CASRN_ChemName_Relationship>
primary

> <TS_Description>
single chemical compound

> <ChemNote>


> <STRUCTURE_Shown>
tested chemical

> <STRUCTURE_Formula>
C22H18I6N2O9

> <STRUCTURE_MW>
1215.8131

> <STRUCTURE_ChemType>
defined organic

> <STRUCTURE_DefinedOrganicForm>
parent

> <STRUCTURE_IUPAC>
3,3'-{oxybis[ethane-2,1-diyloxy(1-oxoethane-2,1-diyl)imino]}bis(2,4,6-triiodobenzoic acid)

> <STRUCTURE_SMILES>
O=C(Nc1c(I)c(c(I)cc1I)C(=O)O)COCCOCCOCC(=O)Nc2c(I)c(C(=O)O)c(I)cc2I

> <STRUCTURE_SMILES_Desalt>
O=C(Nc1c(I)c(c(I)cc1I)C(=O)O)COCCOCCOCC(=O)Nc2c(I)c(C(=O)O)c(I)cc2I

> <Substance_modify_yyyymmdd>
20111204

$$$$
