51037-30-0
ChemmineR-0915142007XD

 11 11  0  0  0  0  0  0  0  0  2 V2000
    2.3088   -4.0188    0.0000 N   0  3  0  0  0  0  0  0  0  0  0  0
    3.4488   -2.0267    0.0000 C   0  0  0  0  0  0  0  0  0  0  0  0
    3.4488   -3.3567    0.0000 C   0  0  0  0  0  0  0  0  0  0  0  0
    2.3088   -1.3761    0.0000 N   0  0  0  0  0  0  0  0  0  0  0  0
    4.6176   -1.3473    0.0000 C   0  0  0  0  0  0  0  0  0  0  0  0
    1.1688   -3.3567    0.0000 C   0  0  0  0  0  0  0  0  0  0  0  0
    2.3088   -5.3488    0.0000 O   0  5  0  0  0  0  0  0  0  0  0  0
    1.1688   -2.0267    0.0000 C   0  0  0  0  0  0  0  0  0  0  0  0
    4.6176    0.0000    0.0000 O   0  0  0  0  0  0  0  0  0  0  0  0
    5.7576   -2.0094    0.0000 O   0  0  0  0  0  0  0  0  0  0  0  0
    0.0000   -4.0533    0.0000 C   0  0  0  0  0  0  0  0  0  0  0  0
  1  3  1  0  0  0  0
  1  6  2  0  0  0  0
  1  7  1  0  0  0  0
  2  3  2  0  0  0  0
  2  5  1  0  0  0  0
  2  4  1  0  0  0  0
  4  8  2  0  0  0  0
  5  9  2  0  0  0  0
  5 10  1  0  0  0  0
  6  8  1  0  0  0  0
  6 11  1  0  0  0  0
M  END
> <ID>
11500

> <Formula>
C6H6N2O3

> <FW>
154.1234

> <DSSTox_CID>
26202

> <DSSTox_RID>
81433

> <DSSTox_GSID>
46202

> <DSSTox_FileID_Sort>
6114

> <TS_ChemName>
Acipimox

> <TS_ChemName_Synonyms>


> <TS_CASRN>
51037-30-0

> <CASRN_ChemName_Relationship>
primary

> <TS_Description>
single chemical compound

> <ChemNote>
ammonium

> <STRUCTURE_Shown>
tested chemical

> <STRUCTURE_Formula>
C6H6N2O3

> <STRUCTURE_MW>
154.1234

> <STRUCTURE_ChemType>
defined organic

> <STRUCTURE_DefinedOrganicForm>
parent

> <STRUCTURE_IUPAC>
5-methylpyrazine-2-carboxylic acid 4-oxide

> <STRUCTURE_SMILES>
[O-][n+]1cc(ncc1C)C(O)=O

> <STRUCTURE_SMILES_Desalt>
O[n+]1cc(ncc1C)C(O)=O

> <Substance_modify_yyyymmdd>
20110817

$$$$
