5104-49-4
ChemmineR-0915142007XD

 18 19  0  0  0  0  0  0  0  0  1 V2000
    4.6136   -4.6622    0.0000 C   0  0  0  0  0  0  0  0  0  0  0  0
    5.7731   -2.6676    0.0000 C   0  0  0  0  0  0  0  0  0  0  0  0
    3.4622   -4.0055    0.0000 C   0  0  0  0  0  0  0  0  0  0  0  0
    6.9487   -0.6730    0.0000 C   0  0  0  0  0  0  0  0  0  0  0  0
    5.7731   -4.0055    0.0000 C   0  0  0  0  0  0  0  0  0  0  0  0
    6.9487   -1.9946    0.0000 C   0  0  0  0  0  0  0  0  0  0  0  0
    3.4622   -2.6676    0.0000 C   0  0  0  0  0  0  0  0  0  0  0  0
    4.5974   -2.0108    0.0000 C   0  0  0  0  0  0  0  0  0  0  0  0
    5.8055   -0.0162    0.0000 O   0  0  0  0  0  0  0  0  0  0  0  0
    2.3027   -4.6622    0.0000 C   0  0  0  0  0  0  0  0  0  0  0  0
    4.6136   -6.0001    0.0000 F   0  0  0  0  0  0  0  0  0  0  0  0
    8.1082    0.0000    0.0000 O   0  0  0  0  0  0  0  0  0  0  0  0
    8.0920   -2.6514    0.0000 C   0  0  0  0  0  0  0  0  0  0  0  0
    2.3027   -6.0001    0.0000 C   0  0  0  0  0  0  0  0  0  0  0  0
    1.1595   -4.0217    0.0000 C   0  0  0  0  0  0  0  0  0  0  0  0
    0.0000   -4.6622    0.0000 C   0  0  0  0  0  0  0  0  0  0  0  0
    1.1595   -6.6569    0.0000 C   0  0  0  0  0  0  0  0  0  0  0  0
    0.0000   -5.9839    0.0000 C   0  0  0  0  0  0  0  0  0  0  0  0
  1  3  1  0  0  0  0
  1  5  2  0  0  0  0
  1 11  1  0  0  0  0
  2  5  1  0  0  0  0
  2  6  1  0  0  0  0
  2  8  2  0  0  0  0
  3  7  2  0  0  0  0
  3 10  1  0  0  0  0
  4  6  1  0  0  0  0
  4  9  2  0  0  0  0
  4 12  1  0  0  0  0
  6 13  1  0  0  0  0
  7  8  1  0  0  0  0
 10 14  2  0  0  0  0
 10 15  1  0  0  0  0
 14 17  1  0  0  0  0
 15 16  2  0  0  0  0
 16 18  1  0  0  0  0
 17 18  2  0  0  0  0
M  END
> <ID>
7278

> <Formula>
C15H13FO2

> <FW>
244.2609

> <DSSTox_CID>
17231

> <DSSTox_RID>
79310

> <DSSTox_GSID>
37231

> <DSSTox_FileID_Sort>
3992

> <TS_ChemName>
Flurbiprofen

> <TS_ChemName_Synonyms>


> <TS_CASRN>
5104-49-4

> <CASRN_ChemName_Relationship>
primary

> <TS_Description>
single chemical compound

> <ChemNote>


> <STRUCTURE_Shown>
tested chemical

> <STRUCTURE_Formula>
C15H13FO2

> <STRUCTURE_MW>
244.2609

> <STRUCTURE_ChemType>
defined organic

> <STRUCTURE_DefinedOrganicForm>
parent

> <STRUCTURE_IUPAC>
2-(2-fluorobiphenyl-4-yl)propanoic acid

> <STRUCTURE_SMILES>
Fc2cc(ccc2c1ccccc1)C(C)C(=O)O

> <STRUCTURE_SMILES_Desalt>
Fc2cc(ccc2c1ccccc1)C(C)C(=O)O

> <Substance_modify_yyyymmdd>
20080429

$$$$
