511-45-5
ChemmineR-0915142007XD

 22 24  0  0  0  0  0  0  0  0  1 V2000
    3.9931   -5.3208    0.0000 O   0  0  0  0  0  0  0  0  0  0  0  0
    3.9931   -3.9931    0.0000 C   0  0  0  0  0  0  0  0  0  0  0  0
    5.3208   -3.9931    0.0000 C   0  0  0  0  0  0  0  0  0  0  0  0
    5.9896   -5.1510    0.0000 C   0  0  0  0  0  0  0  0  0  0  0  0
    7.3173   -5.1510    0.0000 N   0  0  0  0  0  0  0  0  0  0  0  0
    7.9861   -3.9931    0.0000 C   0  0  0  0  0  0  0  0  0  0  0  0
    9.3138   -3.9931    0.0000 C   0  0  0  0  0  0  0  0  0  0  0  0
    9.9827   -5.1510    0.0000 C   0  0  0  0  0  0  0  0  0  0  0  0
    9.3138   -6.2991    0.0000 C   0  0  0  0  0  0  0  0  0  0  0  0
    7.9861   -6.2991    0.0000 C   0  0  0  0  0  0  0  0  0  0  0  0
    2.6654   -3.9931    0.0000 C   0  0  0  0  0  0  0  0  0  0  0  0
    1.9965   -5.1510    0.0000 C   0  0  0  0  0  0  0  0  0  0  0  0
    0.6688   -5.1510    0.0000 C   0  0  0  0  0  0  0  0  0  0  0  0
    0.0000   -3.9931    0.0000 C   0  0  0  0  0  0  0  0  0  0  0  0
    0.6688   -2.8451    0.0000 C   0  0  0  0  0  0  0  0  0  0  0  0
    1.9965   -2.8451    0.0000 C   0  0  0  0  0  0  0  0  0  0  0  0
    3.9931   -2.6654    0.0000 C   0  0  0  0  0  0  0  0  0  0  0  0
    2.8451   -1.9965    0.0000 C   0  0  0  0  0  0  0  0  0  0  0  0
    2.8451   -0.6688    0.0000 C   0  0  0  0  0  0  0  0  0  0  0  0
    3.9931    0.0000    0.0000 C   0  0  0  0  0  0  0  0  0  0  0  0
    5.1411   -0.6688    0.0000 C   0  0  0  0  0  0  0  0  0  0  0  0
    5.1411   -1.9965    0.0000 C   0  0  0  0  0  0  0  0  0  0  0  0
  1  2  1  0  0  0  0
  2  3  1  0  0  0  0
  2 11  1  0  0  0  0
  2 17  1  0  0  0  0
  3  4  1  0  0  0  0
  4  5  1  0  0  0  0
  5  6  1  0  0  0  0
  5 10  1  0  0  0  0
  6  7  1  0  0  0  0
  7  8  1  0  0  0  0
  8  9  1  0  0  0  0
  9 10  1  0  0  0  0
 11 12  2  0  0  0  0
 11 16  1  0  0  0  0
 12 13  1  0  0  0  0
 13 14  2  0  0  0  0
 14 15  1  0  0  0  0
 15 16  2  0  0  0  0
 17 18  2  0  0  0  0
 17 22  1  0  0  0  0
 18 19  1  0  0  0  0
 19 20  2  0  0  0  0
 20 21  1  0  0  0  0
 21 22  2  0  0  0  0
M  END
> <ID>
10733

> <Formula>
C20H25NO

> <FW>
295.4186

> <DSSTox_CID>
25090

> <DSSTox_RID>
80664

> <DSSTox_GSID>
45090

> <DSSTox_FileID_Sort>
5346

> <TS_ChemName>
Pridinol

> <TS_ChemName_Synonyms>


> <TS_CASRN>
511-45-5

> <CASRN_ChemName_Relationship>
primary

> <TS_Description>
single chemical compound

> <ChemNote>


> <STRUCTURE_Shown>
tested chemical

> <STRUCTURE_Formula>
C20H25NO

> <STRUCTURE_MW>
295.4186

> <STRUCTURE_ChemType>
defined organic

> <STRUCTURE_DefinedOrganicForm>
parent

> <STRUCTURE_IUPAC>
1,1-diphenyl-3-(piperidin-1-yl)propan-1-ol

> <STRUCTURE_SMILES>
OC(CCN1CCCCC1)(c2ccccc2)c3ccccc3

> <STRUCTURE_SMILES_Desalt>
OC(CCN1CCCCC1)(c2ccccc2)c3ccccc3

> <Substance_modify_yyyymmdd>
20100107

$$$$
