511-12-6
ChemmineR-0915142007XD

 46 53  0  0  1  0  0  0  0  0  1 V2000
   11.9277   -2.1687    0.0000 C   0  0  0  0  0  0  0  0  0  0  0  0
   11.9277   -3.5366    0.0000 N   0  0  0  0  0  0  0  0  0  0  0  0
   13.1121   -1.4513    0.0000 C   0  0  0  0  0  0  0  0  0  0  0  0
   10.6265   -1.7349    0.0000 O   0  0  0  0  0  0  0  0  0  0  0  0
   11.9443   -0.7674    0.0000 O   0  0  0  0  0  0  0  0  0  0  0  0
   13.1121   -4.2039    0.0000 C   0  0  0  0  0  0  0  0  0  0  0  0
   10.6265   -3.9536    0.0000 C   0  0  0  0  0  0  0  0  0  0  0  0
   14.2798   -2.1687    0.0000 N   0  0  0  0  0  0  0  0  0  0  0  0
   13.3957   -0.1335    0.0000 C   0  0  0  0  0  0  0  0  0  0  0  0
    9.7924   -2.8359    0.0000 C   0  0  0  0  0  0  0  0  0  0  0  0
   14.2798   -3.5366    0.0000 C   0  0  0  0  0  0  0  0  0  0  0  0
   13.1121   -5.6052    0.0000 C   0  0  0  0  0  0  0  0  0  0  0  0
   10.1927   -5.2548    0.0000 O   0  0  0  0  0  0  0  0  0  0  0  0
   15.3308   -1.2345    0.0000 C   0  0  0  0  0  0  0  0  0  0  0  0
   14.7636    0.0000    0.0000 C   0  0  0  0  0  0  0  0  0  0  0  0
    8.6246   -3.5366    0.0000 N   0  0  0  0  0  0  0  0  0  0  0  0
    8.9749   -1.7683    0.0000 C   0  0  0  0  0  0  0  0  0  0  0  0
   15.4976   -4.2039    0.0000 O   0  0  0  0  0  0  0  0  0  0  0  0
   14.2798   -6.2558    0.0000 C   0  0  0  0  0  0  0  0  0  0  0  0
    7.5069   -2.8693    0.0000 C   0  0  0  0  0  0  0  0  0  0  0  0
   14.2798   -7.6237    0.0000 C   0  0  0  0  0  0  0  0  0  0  0  0
   15.4976   -5.6052    0.0000 C   0  0  0  0  0  0  0  0  0  0  0  0
    6.4226   -3.5366    0.0000 C   0  0  0  0  0  0  0  0  0  0  0  0
    7.5069   -1.6182    0.0000 O   0  0  0  0  0  0  0  0  0  0  0  0
   15.4976   -8.3243    0.0000 C   0  0  0  0  0  0  0  0  0  0  0  0
   16.6820   -6.2558    0.0000 C   0  0  0  0  0  0  0  0  0  0  0  0
    5.3049   -2.8693    0.0000 C   0  0  0  0  0  0  0  0  0  0  0  0
    6.4226   -4.7877    0.0000 C   0  0  0  0  0  0  0  0  0  0  0  0
   16.6820   -7.6237    0.0000 C   0  0  0  0  0  0  0  0  0  0  0  0
    4.2039   -3.5366    0.0000 C   0  0  0  0  0  0  0  0  0  0  0  0
    5.3049   -5.4383    0.0000 N   0  0  0  0  0  0  0  0  0  0  0  0
    3.1029   -2.8693    0.0000 C   0  0  0  0  0  0  0  0  0  0  0  0
    4.2039   -4.7877    0.0000 C   0  0  0  0  0  0  0  0  0  0  0  0
    5.3049   -6.6895    0.0000 C   0  0  0  0  0  0  0  0  0  0  0  0
    2.0018   -3.5366    0.0000 C   0  0  0  0  0  0  0  0  0  0  0  0
    3.1029   -1.6182    0.0000 C   0  0  0  0  0  0  0  0  0  0  0  0
    3.1029   -5.4383    0.0000 C   0  0  0  0  0  0  0  0  0  0  0  0
    2.0018   -4.7877    0.0000 C   0  0  0  0  0  0  0  0  0  0  0  0
    0.9008   -2.8693    0.0000 C   0  0  0  0  0  0  0  0  0  0  0  0
    2.0018   -0.9676    0.0000 C   0  0  0  0  0  0  0  0  0  0  0  0
    0.7841   -5.1381    0.0000 C   0  0  0  0  0  0  0  0  0  0  0  0
    0.0000   -3.8035    0.0000 N   0  0  0  0  0  0  0  0  0  0  0  0
    0.9008   -1.6182    0.0000 C   0  0  0  0  0  0  0  0  0  0  0  0
   13.1121   -2.7525    0.0000 H   0  0  0  0  0  0  0  0  0  0  0  0
    4.2039   -2.2688    0.0000 H   0  0  0  0  0  0  0  0  0  0  0  0
    4.2039   -6.0723    0.0000 H   0  0  0  0  0  0  0  0  0  0  0  0
  1  2  1  0  0  0  0
  1  3  1  0  0  0  0
  1  4  1  0  0  0  0
  1  5  1  6  0  0  0
  2  6  1  0  0  0  0
  2  7  1  0  0  0  0
  3  8  1  0  0  0  0
  3  9  1  0  0  0  0
  3 44  1  1  0  0  0
  4 10  1  0  0  0  0
  6 11  1  0  0  0  0
  6 12  1  6  0  0  0
  7 13  2  0  0  0  0
  7 10  1  0  0  0  0
  8 14  1  0  0  0  0
  8 11  1  0  0  0  0
  9 15  1  0  0  0  0
 10 16  1  6  0  0  0
 10 17  1  0  0  0  0
 11 18  2  0  0  0  0
 12 19  1  0  0  0  0
 14 15  1  0  0  0  0
 16 20  1  0  0  0  0
 19 21  2  0  0  0  0
 19 22  1  0  0  0  0
 23 20  1  1  0  0  0
 20 24  2  0  0  0  0
 21 25  1  0  0  0  0
 22 26  2  0  0  0  0
 23 27  1  0  0  0  0
 23 28  1  0  0  0  0
 25 29  2  0  0  0  0
 26 29  1  0  0  0  0
 27 30  1  0  0  0  0
 28 31  1  0  0  0  0
 30 32  1  0  0  0  0
 30 33  1  0  0  0  0
 30 45  1  6  0  0  0
 31 34  1  0  0  0  0
 31 33  1  0  0  0  0
 32 35  2  0  0  0  0
 32 36  1  0  0  0  0
 33 37  1  0  0  0  0
 33 46  1  1  0  0  0
 35 38  1  0  0  0  0
 35 39  1  0  0  0  0
 36 40  2  0  0  0  0
 37 38  1  0  0  0  0
 38 41  2  0  0  0  0
 39 42  1  0  0  0  0
 39 43  2  0  0  0  0
 40 43  1  0  0  0  0
 41 42  1  0  0  0  0
M  END
> <ID>
11071

> <Formula>
C33H37N5O5

> <FW>
583.6774

> <DSSTox_CID>
25614

> <DSSTox_RID>
81003

> <DSSTox_GSID>
45614

> <DSSTox_FileID_Sort>
5684

> <TS_ChemName>
Dihydroergotamine

> <TS_ChemName_Synonyms>


> <TS_CASRN>
511-12-6

> <CASRN_ChemName_Relationship>
primary

> <TS_Description>
single chemical compound

> <ChemNote>
stereochem; parent [113-15-5]

> <STRUCTURE_Shown>
tested chemical

> <STRUCTURE_Formula>
C33H37N5O5

> <STRUCTURE_MW>
583.6774

> <STRUCTURE_ChemType>
defined organic

> <STRUCTURE_DefinedOrganicForm>
parent

> <STRUCTURE_IUPAC>
(5'alpha,10alpha)-5'-benzyl-12'-hydroxy-2'-methyl-3',6',18-trioxo-9,10-dihydroergotaman

> <STRUCTURE_SMILES>
CN1C[C@@H](C[C@@H]2c3cccc4ncc(C[C@@H]12)c34)C(=O)N[C@]8(C)O[C@]7(O)N([C@@H](Cc5ccccc5)C(=O)N6CCC[C@H]67)C8=O

> <STRUCTURE_SMILES_Desalt>
CN1C[C@@H](C[C@@H]2c3cccc4ncc(C[C@@H]12)c34)C(=O)N[C@]8(C)O[C@]7(O)N([C@@H](Cc5ccccc5)C(=O)N6CCC[C@H]67)C8=O

> <Substance_modify_yyyymmdd>
20100107

$$$$
