51146-56-6
ChemmineR-0915142007XD

 15 15  0  0  1  0  0  0  0  0  1 V2000
    2.3103   -2.6576    0.0000 C   0  0  0  0  0  0  0  0  0  0  0  0
    3.4654   -1.9871    0.0000 C   0  0  0  0  0  0  0  0  0  0  0  0
    2.3103   -3.9904    0.0000 C   0  0  0  0  0  0  0  0  0  0  0  0
    4.6124   -2.6576    0.0000 C   0  0  0  0  0  0  0  0  0  0  0  0
    3.4654   -4.6448    0.0000 C   0  0  0  0  0  0  0  0  0  0  0  0
    4.6124   -3.9904    0.0000 C   0  0  0  0  0  0  0  0  0  0  0  0
    1.1551   -1.9871    0.0000 C   0  0  0  0  0  0  0  0  0  0  0  0
    1.1551   -0.6543    0.0000 C   0  0  0  0  0  0  0  0  0  0  0  0
    2.3103    0.0000    0.0000 C   0  0  0  0  0  0  0  0  0  0  0  0
    5.7676   -4.6448    0.0000 C   0  0  0  0  0  0  0  0  0  0  0  0
    5.7676   -5.9776    0.0000 C   0  0  0  0  0  0  0  0  0  0  0  0
    6.9227   -3.9904    0.0000 C   0  0  0  0  0  0  0  0  0  0  0  0
    6.9227   -2.6576    0.0000 O   0  0  0  0  0  0  0  0  0  0  0  0
    8.0778   -4.6448    0.0000 O   0  0  0  0  0  0  0  0  0  0  0  0
    0.0000    0.0000    0.0000 C   0  0  0  0  0  0  0  0  0  0  0  0
  1  2  1  0  0  0  0
  1  3  2  0  0  0  0
  1  7  1  0  0  0  0
  2  4  2  0  0  0  0
  3  5  1  0  0  0  0
  4  6  1  0  0  0  0
  5  6  2  0  0  0  0
  6 10  1  0  0  0  0
  7  8  1  0  0  0  0
  8  9  1  0  0  0  0
  8 15  1  0  0  0  0
 10 11  1  1  0  0  0
 10 12  1  0  0  0  0
 12 13  2  0  0  0  0
 12 14  1  0  0  0  0
M  END
> <ID>
13716

> <Formula>
C13H18O2

> <FW>
206.2808

> <DSSTox_CID>
28650

> <DSSTox_RID>
82920

> <DSSTox_GSID>
48724

> <DSSTox_FileID_Sort>
7597

> <TS_ChemName>
Dexibuprofen

> <TS_ChemName_Synonyms>


> <TS_CASRN>
51146-56-6

> <CASRN_ChemName_Relationship>
primary

> <TS_Description>
single chemical compound

> <ChemNote>


> <STRUCTURE_Shown>
tested chemical

> <STRUCTURE_Formula>
C13H18O2

> <STRUCTURE_MW>
206.2808

> <STRUCTURE_ChemType>
defined organic

> <STRUCTURE_DefinedOrganicForm>
parent

> <STRUCTURE_IUPAC>
(2S)-2-[4-(2-methylpropyl)phenyl]propanoic acid

> <STRUCTURE_SMILES>
C[C@H](C(=O)O)c1ccc(CC(C)C)cc1

> <STRUCTURE_SMILES_Desalt>
C[C@H](C(=O)O)c1ccc(CC(C)C)cc1

> <Substance_modify_yyyymmdd>
20111204

$$$$
