5116-94-9
ChemmineR-0915142007XD

 18 17  0  0  0  0  0  0  0  0  1 V2000
   16.0651   -1.1537    0.0000 P   0  0  0  0  0  0  0  0  0  0  0  0
   17.2188   -0.4821    0.0000 O   0  0  0  0  0  0  0  0  0  0  0  0
   14.9115   -1.8252    0.0000 O   0  0  0  0  0  0  0  0  0  0  0  0
   16.7367   -2.3073    0.0000 O   0  0  0  0  0  0  0  0  0  0  0  0
   15.4108    0.0000    0.0000 O   0  0  0  0  0  0  0  0  0  0  0  0
   13.7750   -1.1537    0.0000 C   0  0  0  0  0  0  0  0  0  0  0  0
   12.6386   -1.8252    0.0000 C   0  0  0  0  0  0  0  0  0  0  0  0
   11.4849   -1.1537    0.0000 C   0  0  0  0  0  0  0  0  0  0  0  0
   10.3313   -1.8252    0.0000 C   0  0  0  0  0  0  0  0  0  0  0  0
    9.1776   -1.1537    0.0000 C   0  0  0  0  0  0  0  0  0  0  0  0
    8.0412   -1.8252    0.0000 C   0  0  0  0  0  0  0  0  0  0  0  0
    6.8875   -1.1537    0.0000 C   0  0  0  0  0  0  0  0  0  0  0  0
    5.7339   -1.8252    0.0000 C   0  0  0  0  0  0  0  0  0  0  0  0
    4.5802   -1.1537    0.0000 C   0  0  0  0  0  0  0  0  0  0  0  0
    3.4438   -1.8252    0.0000 C   0  0  0  0  0  0  0  0  0  0  0  0
    2.3073   -1.1537    0.0000 C   0  0  0  0  0  0  0  0  0  0  0  0
    1.1537   -1.8252    0.0000 C   0  0  0  0  0  0  0  0  0  0  0  0
    0.0000   -1.1537    0.0000 C   0  0  0  0  0  0  0  0  0  0  0  0
  1  2  2  0  0  0  0
  1  3  1  0  0  0  0
  1  4  1  0  0  0  0
  1  5  1  0  0  0  0
  3  6  1  0  0  0  0
  6  7  1  0  0  0  0
  7  8  1  0  0  0  0
  8  9  1  0  0  0  0
  9 10  1  0  0  0  0
 10 11  1  0  0  0  0
 11 12  1  0  0  0  0
 12 13  1  0  0  0  0
 13 14  1  0  0  0  0
 14 15  1  0  0  0  0
 15 16  1  0  0  0  0
 16 17  1  0  0  0  0
 17 18  1  0  0  0  0
M  END
> <ID>
9099

> <Formula>
C13H29O4P

> <FW>
280.3407

> <DSSTox_CID>
22169

> <DSSTox_RID>
79942

> <DSSTox_GSID>
42169

> <DSSTox_FileID_Sort>
4624

> <TS_ChemName>
Monotridecyl phosphate

> <TS_ChemName_Synonyms>


> <TS_CASRN>
5116-94-9

> <CASRN_ChemName_Relationship>
primary

> <TS_Description>
single chemical compound

> <ChemNote>


> <STRUCTURE_Shown>
tested chemical

> <STRUCTURE_Formula>
C13H29O4P

> <STRUCTURE_MW>
280.3407

> <STRUCTURE_ChemType>
defined organic

> <STRUCTURE_DefinedOrganicForm>
parent

> <STRUCTURE_IUPAC>
tridecyl dihydrogen phosphate

> <STRUCTURE_SMILES>
OP(O)(=O)OCCCCCCCCCCCCC

> <STRUCTURE_SMILES_Desalt>
OP(O)(=O)OCCCCCCCCCCCCC

> <Substance_modify_yyyymmdd>
20080825

$$$$
