512-42-5
ChemmineR-0915142007XD

  7  5  0  0  0  0  0  0  0  0  2 V2000
    1.9873   -1.3304    0.0000 S    0  0  0  0  0  0  0  0  0  0  0  0
    3.3177   -1.3304    0.0000 O    0  0  0  0  0  0  0  0  0  0  0  0
    1.9873   -2.6608    0.0000 O    0  0  0  0  0  0  0  0  0  0  0  0
    0.6569   -1.3304    0.0000 O    0  0  0  0  0  0  0  0  0  0  0  0
    1.9873    0.0000    0.0000 O    0  5  0  0  0  0  0  0  0  0  0  0
    0.0000   -0.1758    0.0000 C    0  0  0  0  0  0  0  0  0  0  0  0
    3.2845    0.0000    0.0000 Na   0  3  0  0  0  0  0  0  0  0  0  0
  1  2  2  0  0  0  0
  1  3  2  0  0  0  0
  1  4  1  0  0  0  0
  1  5  1  0  0  0  0
  4  6  1  0  0  0  0
M  END
> <ID>
9324

> <Formula>
CH3NaO4S

> <FW>
134.0869 (111.0977+22.9892)

> <DSSTox_CID>
22406

> <DSSTox_RID>
80015

> <DSSTox_GSID>
42406

> <DSSTox_FileID_Sort>
4697

> <TS_ChemName>
Sodium methyl sulfate

> <TS_ChemName_Synonyms>


> <TS_CASRN>
512-42-5

> <CASRN_ChemName_Relationship>
primary

> <TS_Description>
single chemical compound

> <ChemNote>
parent [75-93-4]

> <STRUCTURE_Shown>
tested chemical

> <STRUCTURE_Formula>
CH3NaO4S

> <STRUCTURE_MW>
134.0869

> <STRUCTURE_ChemType>
defined organic

> <STRUCTURE_DefinedOrganicForm>
salt

> <STRUCTURE_IUPAC>
sodium methyl sulfate

> <STRUCTURE_SMILES>
[Na+].[O-]S(=O)(=O)OC

> <STRUCTURE_SMILES_Desalt>
O=S(=O)(O)OC

> <Substance_modify_yyyymmdd>
20080825

$$$$
