51229-78-8
ChemmineR-0915142007XD

 15 16  0  0  0  0  0  0  0  0  2 V2000
    0.0000   -5.0507    0.0000 C    0  0  0  0  0  0  0  0  0  0  0  0
    1.1821   -4.4597    0.0000 N    0  0  0  0  0  0  0  0  0  0  0  0
    1.1821   -3.2440    0.0000 C    0  0  0  0  0  0  0  0  0  0  0  0
    2.3642   -5.0507    0.0000 C    0  0  0  0  0  0  0  0  0  0  0  0
    0.7388   -3.7880    0.0000 N    0  0  0  0  0  0  0  0  0  0  0  0
    0.7388   -2.5724    0.0000 C    0  0  0  0  0  0  0  0  0  0  0  0
    1.9209   -4.3791    0.0000 C    0  0  0  0  0  0  0  0  0  0  0  0
    1.9209   -1.9813    0.0000 N    0  0  0  0  0  0  0  0  0  0  0  0
    3.1030   -3.7880    0.0000 N    0  3  0  0  0  0  0  0  0  0  0  0
    3.1030   -2.5724    0.0000 C    0  0  0  0  0  0  0  0  0  0  0  0
    4.2045   -4.5067    0.0000 C    0  0  0  0  0  0  0  0  0  0  0  0
    5.3865   -3.9022    0.0000 C    0  0  0  0  0  0  0  0  0  0  0  0
    6.5082   -4.6343    0.0000 C    0  0  0  0  0  0  0  0  0  0  0  0
    6.4276   -5.9641    0.0000 Cl   0  0  0  0  0  0  0  0  0  0  0  0
    6.7164    0.0000    0.0000 Cl   0  5  0  0  0  0  0  0  0  0  0  0
  1  2  1  0  0  0  0
  1  5  1  0  0  0  0
  2  3  1  0  0  0  0
  2  4  1  0  0  0  0
  3  8  1  0  0  0  0
  4  9  1  0  0  0  0
  5  6  1  0  0  0  0
  5  7  1  0  0  0  0
  6  8  1  0  0  0  0
  7  9  1  0  0  0  0
  8 10  1  0  0  0  0
  9 10  1  0  0  0  0
  9 11  1  0  0  0  0
 11 12  1  0  0  0  0
 12 13  2  0  0  0  0
 13 14  1  0  0  0  0
M  END
> <ID>
7073

> <Formula>
C9H16Cl2N4

> <FW>
251.1561 (215.7026+35.4535)

> <DSSTox_CID>
15748

> <DSSTox_RID>
79267

> <DSSTox_GSID>
35748

> <DSSTox_FileID_Sort>
3949

> <TS_ChemName>
3,5,7-Triazatricyclo(3.3.1.1(superscript 3,7))decane, 1-(3-chloro-2-propenyl)-, chloride, (Z)-

> <TS_ChemName_Synonyms>


> <TS_CASRN>
51229-78-8

> <CASRN_ChemName_Relationship>
primary

> <TS_Description>
single chemical compound

> <ChemNote>
ammonium; stereochem; parent [56060-15-2]

> <STRUCTURE_Shown>
tested chemical

> <STRUCTURE_Formula>
C9H16Cl2N4

> <STRUCTURE_MW>
251.1561

> <STRUCTURE_ChemType>
defined organic

> <STRUCTURE_DefinedOrganicForm>
salt

> <STRUCTURE_IUPAC>
1-[(2Z)-3-chloroprop-2-en-1-yl]-3,5,7-triaza-1-azoniatricyclo[3.3.1.1~3,7~]decane chloride

> <STRUCTURE_SMILES>
[Cl-].Cl\C=C/C[N+]13CN2CN(CN(C1)C2)C3

> <STRUCTURE_SMILES_Desalt>
Cl\C=C/C[N+]13CN2CN(CN(C1)C2)C3

> <Substance_modify_yyyymmdd>
20080429

$$$$
