51235-04-2
ChemmineR-0915142007XD

 18 19  0  0  0  0  0  0  0  0  1 V2000
    2.3179   -3.2986    0.0000 N   0  0  0  0  0  0  0  0  0  0  0  0
    4.6115   -1.9856    0.0000 C   0  0  0  0  0  0  0  0  0  0  0  0
    3.4607   -1.3373    0.0000 N   0  0  0  0  0  0  0  0  0  0  0  0
    2.3179   -1.9856    0.0000 C   0  0  0  0  0  0  0  0  0  0  0  0
    4.6115   -3.2986    0.0000 N   0  0  0  0  0  0  0  0  0  0  0  0
    3.4850   -3.9875    0.0000 C   0  0  0  0  0  0  0  0  0  0  0  0
    1.1671   -1.3130    0.0000 N   0  0  0  0  0  0  0  0  0  0  0  0
    5.7867   -1.3130    0.0000 O   0  0  0  0  0  0  0  0  0  0  0  0
    3.4850   -5.3004    0.0000 O   0  0  0  0  0  0  0  0  0  0  0  0
    5.7867   -3.9632    0.0000 C   0  0  0  0  0  0  0  0  0  0  0  0
    3.4607    0.0000    0.0000 C   0  0  0  0  0  0  0  0  0  0  0  0
    0.0000   -1.9856    0.0000 C   0  0  0  0  0  0  0  0  0  0  0  0
    1.1671    0.0000    0.0000 C   0  0  0  0  0  0  0  0  0  0  0  0
    5.7867   -5.3004    0.0000 C   0  0  0  0  0  0  0  0  0  0  0  0
    6.9376   -3.2986    0.0000 C   0  0  0  0  0  0  0  0  0  0  0  0
    6.9376   -5.9488    0.0000 C   0  0  0  0  0  0  0  0  0  0  0  0
    8.1046   -3.9632    0.0000 C   0  0  0  0  0  0  0  0  0  0  0  0
    8.1046   -5.2680    0.0000 C   0  0  0  0  0  0  0  0  0  0  0  0
  1  4  2  0  0  0  0
  1  6  1  0  0  0  0
  2  5  1  0  0  0  0
  2  8  2  0  0  0  0
  2  3  1  0  0  0  0
  3  4  1  0  0  0  0
  3 11  1  0  0  0  0
  4  7  1  0  0  0  0
  5  6  1  0  0  0  0
  5 10  1  0  0  0  0
  6  9  2  0  0  0  0
  7 12  1  0  0  0  0
  7 13  1  0  0  0  0
 10 14  1  0  0  0  0
 10 15  1  0  0  0  0
 14 16  1  0  0  0  0
 15 17  1  0  0  0  0
 16 18  1  0  0  0  0
 17 18  1  0  0  0  0
M  END
> <ID>
3526

> <Formula>
C12H20N4O2

> <FW>
252.3128

> <DSSTox_CID>
4145

> <DSSTox_RID>
77304

> <DSSTox_GSID>
24145

> <DSSTox_FileID_Sort>
1987

> <TS_ChemName>
Hexazinone

> <TS_ChemName_Synonyms>
Hexazinone (1,3,5-Triazine-2,4(1H,3H)-dione, 3-cyclohexyl-6-(dimethylamino)-1-methyl-)

> <TS_CASRN>
51235-04-2

> <CASRN_ChemName_Relationship>
primary

> <TS_Description>
single chemical compound

> <ChemNote>


> <STRUCTURE_Shown>
tested chemical

> <STRUCTURE_Formula>
C12H20N4O2

> <STRUCTURE_MW>
252.3128

> <STRUCTURE_ChemType>
defined organic

> <STRUCTURE_DefinedOrganicForm>
parent

> <STRUCTURE_IUPAC>
3-cyclohexyl-6-(dimethylamino)-1-methyl-1,3,5-triazine-2,4(1H,3H)-dione

> <STRUCTURE_SMILES>
CN(C)C2=NC(=O)N(C1CCCCC1)C(=O)N2C

> <STRUCTURE_SMILES_Desalt>
CN(C)C2=NC(=O)N(C1CCCCC1)C(=O)N2C

> <Substance_modify_yyyymmdd>
20080429

$$$$
