5124-30-1
ChemmineR-0915142007XD

 19 20  0  0  0  0  0  0  0  0  1 V2000
    8.0632   -0.6639    0.0000 C   0  0  0  0  0  0  0  0  0  0  0  0
    9.2111    0.0000    0.0000 C   0  0  0  0  0  0  0  0  0  0  0  0
   10.3729   -0.6639    0.0000 C   0  0  0  0  0  0  0  0  0  0  0  0
   10.3729   -1.9916    0.0000 C   0  0  0  0  0  0  0  0  0  0  0  0
    9.2111   -2.6555    0.0000 C   0  0  0  0  0  0  0  0  0  0  0  0
    8.0632   -1.9916    0.0000 C   0  0  0  0  0  0  0  0  0  0  0  0
   12.6826   -1.9916    0.0000 C   0  0  0  0  0  0  0  0  0  0  0  0
   11.5208   -2.6555    0.0000 N   0  0  0  0  0  0  0  0  0  0  0  0
   13.8305   -1.3277    0.0000 O   0  0  0  0  0  0  0  0  0  0  0  0
    5.7673   -0.6639    0.0000 C   0  0  0  0  0  0  0  0  0  0  0  0
    5.7673   -1.9916    0.0000 C   0  0  0  0  0  0  0  0  0  0  0  0
    4.6194   -2.6555    0.0000 C   0  0  0  0  0  0  0  0  0  0  0  0
    3.4576   -1.9916    0.0000 C   0  0  0  0  0  0  0  0  0  0  0  0
    3.4576   -0.6639    0.0000 C   0  0  0  0  0  0  0  0  0  0  0  0
    4.6194    0.0000    0.0000 C   0  0  0  0  0  0  0  0  0  0  0  0
    1.1479   -1.9916    0.0000 C   0  0  0  0  0  0  0  0  0  0  0  0
    2.3097   -2.6555    0.0000 N   0  0  0  0  0  0  0  0  0  0  0  0
    0.0000   -1.3277    0.0000 O   0  0  0  0  0  0  0  0  0  0  0  0
    6.9291    0.0000    0.0000 C   0  0  0  0  0  0  0  0  0  0  0  0
  1  2  1  0  0  0  0
  1  6  1  0  0  0  0
  1 19  1  0  0  0  0
  2  3  1  0  0  0  0
  3  4  1  0  0  0  0
  4  5  1  0  0  0  0
  4  8  1  0  0  0  0
  5  6  1  0  0  0  0
  7  8  2  0  0  0  0
  7  9  2  0  0  0  0
 10 11  1  0  0  0  0
 10 15  1  0  0  0  0
 10 19  1  0  0  0  0
 11 12  1  0  0  0  0
 12 13  1  0  0  0  0
 13 14  1  0  0  0  0
 13 17  1  0  0  0  0
 14 15  1  0  0  0  0
 16 17  2  0  0  0  0
 16 18  2  0  0  0  0
M  END
> <ID>
5272

> <Formula>
C15H22N2O2

> <FW>
262.3474

> <DSSTox_CID>
7588

> <DSSTox_RID>
78516

> <DSSTox_GSID>
27588

> <DSSTox_FileID_Sort>
3199

> <TS_ChemName>
1,1-Methylenebis(4-isocyanatocyclohexane)

> <TS_ChemName_Synonyms>
1,1-Methylenebis(4-isocyanatocyclohexane) (Cyclohexane, 1,1'-methylenebis[4-isocyanato-)

> <TS_CASRN>
5124-30-1

> <CASRN_ChemName_Relationship>
primary

> <TS_Description>
single chemical compound

> <ChemNote>


> <STRUCTURE_Shown>
tested chemical

> <STRUCTURE_Formula>
C15H22N2O2

> <STRUCTURE_MW>
262.3474

> <STRUCTURE_ChemType>
defined organic

> <STRUCTURE_DefinedOrganicForm>
parent

> <STRUCTURE_IUPAC>
1,1'-methanediylbis(4-isocyanatocyclohexane)

> <STRUCTURE_SMILES>
O=C=N/C1CCC(CC1)CC2CCC(/N=C=O)CC2

> <STRUCTURE_SMILES_Desalt>
O=C=N/C1CCC(CC1)CC2CCC(/N=C=O)CC2

> <Substance_modify_yyyymmdd>
20080429

$$$$
