513-92-8
ChemmineR-0915142007XD

  6  5  0  0  0  0  0  0  0  0  1 V2000
    0.6566   -1.1510    0.0000 C   0  0  0  0  0  0  0  0  0  0  0  0
    1.9857   -1.1510    0.0000 C   0  0  0  0  0  0  0  0  0  0  0  0
    0.0000    0.0000    0.0000 I   0  0  0  0  0  0  0  0  0  0  0  0
    0.0000   -2.3046    0.0000 I   0  0  0  0  0  0  0  0  0  0  0  0
    2.6582   -2.3046    0.0000 I   0  0  0  0  0  0  0  0  0  0  0  0
    2.6582    0.0000    0.0000 I   0  0  0  0  0  0  0  0  0  0  0  0
  1  2  2  0  0  0  0
  1  3  1  0  0  0  0
  1  4  1  0  0  0  0
  2  5  1  0  0  0  0
  2  6  1  0  0  0  0
M  END
> <ID>
9371

> <Formula>
C2I4

> <FW>
531.6393

> <DSSTox_CID>
22462

> <DSSTox_RID>
80031

> <DSSTox_GSID>
42462

> <DSSTox_FileID_Sort>
4713

> <TS_ChemName>
Tetraiodoethene

> <TS_ChemName_Synonyms>


> <TS_CASRN>
513-92-8

> <CASRN_ChemName_Relationship>
primary

> <TS_Description>
single chemical compound

> <ChemNote>


> <STRUCTURE_Shown>
tested chemical

> <STRUCTURE_Formula>
C2I4

> <STRUCTURE_MW>
531.6393

> <STRUCTURE_ChemType>
defined organic

> <STRUCTURE_DefinedOrganicForm>
parent

> <STRUCTURE_IUPAC>
tetraiodoethene

> <STRUCTURE_SMILES>
I/C(I)=C(/I)I

> <STRUCTURE_SMILES_Desalt>
I/C(I)=C(/I)I

> <Substance_modify_yyyymmdd>
20080825

$$$$
