513-37-1
ChemmineR-0915142007XD

  5  4  0  0  0  0  0  0  0  0  1 V2000
    3.4567   -1.9945    0.0000 C    0  0  0  0  0  0  0  0  0  0  0  0
    2.3056   -1.3308    0.0000 C    0  0  0  0  0  0  0  0  0  0  0  0
    1.1511   -1.9945    0.0000 C    0  0  0  0  0  0  0  0  0  0  0  0
    0.0000   -1.3308    0.0000 Cl   0  0  0  0  0  0  0  0  0  0  0  0
    2.3056    0.0000    0.0000 C    0  0  0  0  0  0  0  0  0  0  0  0
  1  2  1  0  0  0  0
  2  3  2  0  0  0  0
  2  5  1  0  0  0  0
  3  4  1  0  0  0  0
M  END
> <ID>
502

> <Formula>
C4H7Cl

> <FW>
90.5514

> <DSSTox_CID>
520

> <DSSTox_RID>
75639

> <DSSTox_GSID>
20520

> <DSSTox_FileID_Sort>
323

> <TS_ChemName>
2,2-Dimethylvinyl chloride

> <TS_ChemName_Synonyms>
DMVC; Dimethyl vinyl chloride

> <TS_CASRN>
513-37-1

> <CASRN_ChemName_Relationship>
primary

> <TS_Description>
single chemical compound

> <ChemNote>


> <STRUCTURE_Shown>
tested chemical

> <STRUCTURE_Formula>
C4H7Cl

> <STRUCTURE_MW>
90.5514

> <STRUCTURE_ChemType>
defined organic

> <STRUCTURE_DefinedOrganicForm>
parent

> <STRUCTURE_IUPAC>
1-chloro-2-methylprop-1-ene

> <STRUCTURE_SMILES>
C/C(C)=C\Cl

> <STRUCTURE_SMILES_Desalt>
C/C(C)=C\Cl

> <Substance_modify_yyyymmdd>
20080429

$$$$
