513-86-0
ChemmineR-0915142007XD

  6  5  0  0  0  0  0  0  0  0  1 V2000
    1.9943   -1.1509    0.0000 C   0  0  0  0  0  0  0  0  0  0  0  0
    3.3250   -1.1509    0.0000 C   0  0  0  0  0  0  0  0  0  0  0  0
    1.3307    0.0000    0.0000 O   0  0  0  0  0  0  0  0  0  0  0  0
    1.3307   -2.3053    0.0000 C   0  0  0  0  0  0  0  0  0  0  0  0
    1.9943   -3.4563    0.0000 C   0  0  0  0  0  0  0  0  0  0  0  0
    0.0000   -2.3053    0.0000 O   0  0  0  0  0  0  0  0  0  0  0  0
  1  2  1  0  0  0  0
  1  3  1  0  0  0  0
  1  4  1  0  0  0  0
  4  5  1  0  0  0  0
  4  6  2  0  0  0  0
M  END
> <ID>
3659

> <Formula>
C4H8O2

> <FW>
88.1051

> <DSSTox_CID>
4399

> <DSSTox_RID>
77389

> <DSSTox_GSID>
24399

> <DSSTox_FileID_Sort>
2072

> <TS_ChemName>
Acetoin

> <TS_ChemName_Synonyms>


> <TS_CASRN>
513-86-0

> <CASRN_ChemName_Relationship>
primary

> <TS_Description>
single chemical compound

> <ChemNote>


> <STRUCTURE_Shown>
tested chemical

> <STRUCTURE_Formula>
C4H8O2

> <STRUCTURE_MW>
88.1051

> <STRUCTURE_ChemType>
defined organic

> <STRUCTURE_DefinedOrganicForm>
parent

> <STRUCTURE_IUPAC>
3-hydroxybutan-2-one

> <STRUCTURE_SMILES>
CC(=O)C(C)O

> <STRUCTURE_SMILES_Desalt>
CC(=O)C(C)O

> <Substance_modify_yyyymmdd>
20080429

$$$$
