5131-60-2
ChemmineR-0915142007XD

  9  9  0  0  0  0  0  0  0  0  1 V2000
    0.0000   -2.6589    0.0000 N    0  0  0  0  0  0  0  0  0  0  0  0
    1.1520   -1.9953    0.0000 C    0  0  0  0  0  0  0  0  0  0  0  0
    1.1520   -0.6636    0.0000 C    0  0  0  0  0  0  0  0  0  0  0  0
    2.3041    0.0000    0.0000 C    0  0  0  0  0  0  0  0  0  0  0  0
    3.4561   -0.6636    0.0000 C    0  0  0  0  0  0  0  0  0  0  0  0
    3.4561   -1.9953    0.0000 C    0  0  0  0  0  0  0  0  0  0  0  0
    2.3041   -2.6589    0.0000 C    0  0  0  0  0  0  0  0  0  0  0  0
    4.6082   -2.6589    0.0000 N    0  0  0  0  0  0  0  0  0  0  0  0
    0.0000    0.0000    0.0000 Cl   0  0  0  0  0  0  0  0  0  0  0  0
  1  2  1  0  0  0  0
  2  3  2  0  0  0  0
  2  7  1  0  0  0  0
  3  4  1  0  0  0  0
  3  9  1  0  0  0  0
  4  5  2  0  0  0  0
  5  6  1  0  0  0  0
  6  7  2  0  0  0  0
  6  8  1  0  0  0  0
M  END
> <ID>
273

> <Formula>
C6H7ClN2

> <FW>
142.5862

> <DSSTox_CID>
282

> <DSSTox_RID>
75485

> <DSSTox_GSID>
20282

> <DSSTox_FileID_Sort>
169

> <TS_ChemName>
4-Chloro-1,3-diaminobenzene

> <TS_ChemName_Synonyms>
4-Chloro-1,3-diaminobenzene (4-Chloro-m-phenylenediamine)

> <TS_CASRN>
5131-60-2

> <CASRN_ChemName_Relationship>
primary

> <TS_Description>
single chemical compound

> <ChemNote>


> <STRUCTURE_Shown>
tested chemical

> <STRUCTURE_Formula>
C6H7ClN2

> <STRUCTURE_MW>
142.5862

> <STRUCTURE_ChemType>
defined organic

> <STRUCTURE_DefinedOrganicForm>
parent

> <STRUCTURE_IUPAC>
4-chlorobenzene-1,3-diamine

> <STRUCTURE_SMILES>
Nc1ccc(Cl)c(N)c1

> <STRUCTURE_SMILES_Desalt>
Nc1ccc(Cl)c(N)c1

> <Substance_modify_yyyymmdd>
20080429

$$$$
