51322-75-9
ChemmineR-0915142007XD

 16 18  0  0  0  0  0  0  0  0  1 V2000
    5.5609   -4.0975    0.0000 C    0  0  0  0  0  0  0  0  0  0  0  0
    4.4056   -3.4351    0.0000 C    0  0  0  0  0  0  0  0  0  0  0  0
    3.2580   -4.0975    0.0000 Cl   0  0  0  0  0  0  0  0  0  0  0  0
    4.4056   -2.1027    0.0000 C    0  0  0  0  0  0  0  0  0  0  0  0
    3.2580   -1.4403    0.0000 N    0  0  0  0  0  0  0  0  0  0  0  0
    2.1027   -2.1027    0.0000 C    0  0  0  0  0  0  0  0  0  0  0  0
    1.9640   -3.4274    0.0000 N    0  0  0  0  0  0  0  0  0  0  0  0
    0.6624   -3.7047    0.0000 C    0  0  0  0  0  0  0  0  0  0  0  0
    0.0000   -2.5494    0.0000 C    0  0  0  0  0  0  0  0  0  0  0  0
    0.8934   -1.5635    0.0000 N    0  0  0  0  0  0  0  0  0  0  0  0
    5.5609   -1.4403    0.0000 C    0  0  0  0  0  0  0  0  0  0  0  0
    6.7162   -2.1027    0.0000 C    0  0  0  0  0  0  0  0  0  0  0  0
    6.7162   -3.4351    0.0000 C    0  0  0  0  0  0  0  0  0  0  0  0
    7.7021   -1.2092    0.0000 N    0  0  0  0  0  0  0  0  0  0  0  0
    7.1629    0.0000    0.0000 S    0  0  0  0  0  0  0  0  0  0  0  0
    5.8382   -0.1386    0.0000 N    0  0  0  0  0  0  0  0  0  0  0  0
  1  2  1  0  0  0  0
  1 13  2  0  0  0  0
  2  3  1  0  0  0  0
  2  4  2  0  0  0  0
  4  5  1  0  0  0  0
  4 11  1  0  0  0  0
  5  6  1  0  0  0  0
  6  7  2  0  0  0  0
  6 10  1  0  0  0  0
  7  8  1  0  0  0  0
  8  9  1  0  0  0  0
  9 10  1  0  0  0  0
 11 12  1  0  0  0  0
 11 16  2  0  0  0  0
 12 13  1  0  0  0  0
 12 14  2  0  0  0  0
 14 15  1  0  0  0  0
 15 16  1  0  0  0  0
M  END
> <ID>
3287

> <Formula>
C9H8ClN5S

> <FW>
253.7113

> <DSSTox_CID>
3679

> <DSSTox_RID>
77143

> <DSSTox_GSID>
23679

> <DSSTox_FileID_Sort>
1826

> <TS_ChemName>
Tizanidine

> <TS_ChemName_Synonyms>


> <TS_CASRN>
51322-75-9

> <CASRN_ChemName_Relationship>
primary

> <TS_Description>
single chemical compound

> <ChemNote>


> <STRUCTURE_Shown>
tested chemical

> <STRUCTURE_Formula>
C9H8ClN5S

> <STRUCTURE_MW>
253.7113

> <STRUCTURE_ChemType>
defined organic

> <STRUCTURE_DefinedOrganicForm>
parent

> <STRUCTURE_IUPAC>
5-chloro-N-(4,5-dihydro-1H-imidazol-2-yl)-2,1,3-benzothiadiazol-4-amine

> <STRUCTURE_SMILES>
Clc2ccc3nsnc3c2NC1=NCCN1

> <STRUCTURE_SMILES_Desalt>
Clc2ccc3nsnc3c2NC1=NCCN1

> <Substance_modify_yyyymmdd>
20080429

$$$$
