51338-27-3
ChemmineR-0915142007XD

 22 23  0  0  0  0  0  0  0  0  1 V2000
    2.3054    0.0000    0.0000 Cl   0  0  0  0  0  0  0  0  0  0  0  0
    2.3054   -1.3301    0.0000 C    0  0  0  0  0  0  0  0  0  0  0  0
    3.4582   -1.9888    0.0000 C    0  0  0  0  0  0  0  0  0  0  0  0
    3.4582   -3.3188    0.0000 C    0  0  0  0  0  0  0  0  0  0  0  0
    2.3054   -3.9902    0.0000 C    0  0  0  0  0  0  0  0  0  0  0  0
    1.1527   -3.3188    0.0000 C    0  0  0  0  0  0  0  0  0  0  0  0
    1.1527   -1.9888    0.0000 C    0  0  0  0  0  0  0  0  0  0  0  0
    0.0000   -3.9902    0.0000 Cl   0  0  0  0  0  0  0  0  0  0  0  0
    4.6109   -1.3301    0.0000 O    0  0  0  0  0  0  0  0  0  0  0  0
    5.7636   -1.9888    0.0000 C    0  0  0  0  0  0  0  0  0  0  0  0
    6.9163   -1.3301    0.0000 C    0  0  0  0  0  0  0  0  0  0  0  0
    8.0690   -1.9888    0.0000 C    0  0  0  0  0  0  0  0  0  0  0  0
    8.0690   -3.3188    0.0000 C    0  0  0  0  0  0  0  0  0  0  0  0
    6.9163   -3.9902    0.0000 C    0  0  0  0  0  0  0  0  0  0  0  0
    5.7636   -3.3188    0.0000 C    0  0  0  0  0  0  0  0  0  0  0  0
    9.2091   -3.9902    0.0000 O    0  0  0  0  0  0  0  0  0  0  0  0
   10.3618   -3.3188    0.0000 C    0  0  0  0  0  0  0  0  0  0  0  0
   10.3618   -1.9888    0.0000 C    0  0  0  0  0  0  0  0  0  0  0  0
    9.2091   -1.3301    0.0000 O    0  0  0  0  0  0  0  0  0  0  0  0
   11.5145   -1.3301    0.0000 O    0  0  0  0  0  0  0  0  0  0  0  0
   12.6672   -1.9888    0.0000 C    0  0  0  0  0  0  0  0  0  0  0  0
   11.5145   -3.9902    0.0000 C    0  0  0  0  0  0  0  0  0  0  0  0
  1  2  1  0  0  0  0
  2  3  1  0  0  0  0
  2  7  2  0  0  0  0
  3  4  2  0  0  0  0
  3  9  1  0  0  0  0
  4  5  1  0  0  0  0
  5  6  2  0  0  0  0
  6  7  1  0  0  0  0
  6  8  1  0  0  0  0
  9 10  1  0  0  0  0
 10 11  1  0  0  0  0
 10 15  2  0  0  0  0
 11 12  2  0  0  0  0
 12 13  1  0  0  0  0
 13 14  2  0  0  0  0
 13 16  1  0  0  0  0
 14 15  1  0  0  0  0
 16 17  1  0  0  0  0
 17 18  1  0  0  0  0
 17 22  1  0  0  0  0
 18 19  2  0  0  0  0
 18 20  1  0  0  0  0
 20 21  1  0  0  0  0
M  END
> <ID>
6538

> <Formula>
C16H14Cl2O4

> <FW>
341.186

> <DSSTox_CID>
12605

> <DSSTox_RID>
79001

> <DSSTox_GSID>
32605

> <DSSTox_FileID_Sort>
3683

> <TS_ChemName>
Diclofop-methyl

> <TS_ChemName_Synonyms>
Diclofop-methyl (Illoxan-Technical)

> <TS_CASRN>
51338-27-3

> <CASRN_ChemName_Relationship>
primary

> <TS_Description>
single chemical compound

> <ChemNote>


> <STRUCTURE_Shown>
tested chemical

> <STRUCTURE_Formula>
C16H14Cl2O4

> <STRUCTURE_MW>
341.186

> <STRUCTURE_ChemType>
defined organic

> <STRUCTURE_DefinedOrganicForm>
parent

> <STRUCTURE_IUPAC>
methyl 2-[4-(2,4-dichlorophenoxy)phenoxy]propanoate

> <STRUCTURE_SMILES>
Clc2cc(Cl)ccc2Oc1ccc(OC(C)C(=O)OC)cc1

> <STRUCTURE_SMILES_Desalt>
Clc2cc(Cl)ccc2Oc1ccc(OC(C)C(=O)OC)cc1

> <Substance_modify_yyyymmdd>
20080429

$$$$
