514-78-3
ChemmineR-0915142007XD

 42 43  0  0  0  0  0  0  0  0  1 V2000
    2.2833   -3.8580    0.0000 C   0  0  0  0  0  0  0  0  0  0  0  0
   23.9356   -3.2282    0.0000 C   0  0  0  0  0  0  0  0  0  0  0  0
    2.2833   -5.1965    0.0000 C   0  0  0  0  0  0  0  0  0  0  0  0
   23.9356   -1.9159    0.0000 C   0  0  0  0  0  0  0  0  0  0  0  0
   22.8070   -3.8580    0.0000 C   0  0  0  0  0  0  0  0  0  0  0  0
    3.4119   -3.2282    0.0000 C   0  0  0  0  0  0  0  0  0  0  0  0
    1.1548   -3.2282    0.0000 C   0  0  0  0  0  0  0  0  0  0  0  0
   25.0904   -3.8580    0.0000 C   0  0  0  0  0  0  0  0  0  0  0  0
    1.1548   -5.8789    0.0000 C   0  0  0  0  0  0  0  0  0  0  0  0
   25.0904   -1.2335    0.0000 C   0  0  0  0  0  0  0  0  0  0  0  0
   21.7047   -3.2282    0.0000 C   0  0  0  0  0  0  0  0  0  0  0  0
    4.5667   -3.8580    0.0000 C   0  0  0  0  0  0  0  0  0  0  0  0
    7.9523   -3.2282    0.0000 C   0  0  0  0  0  0  0  0  0  0  0  0
   18.2404   -3.8580    0.0000 C   0  0  0  0  0  0  0  0  0  0  0  0
    5.6952   -3.2282    0.0000 C   0  0  0  0  0  0  0  0  0  0  0  0
   20.5237   -3.8580    0.0000 C   0  0  0  0  0  0  0  0  0  0  0  0
   10.2618   -3.2282    0.0000 C   0  0  0  0  0  0  0  0  0  0  0  0
   15.9570   -3.8580    0.0000 C   0  0  0  0  0  0  0  0  0  0  0  0
   19.4214   -3.2282    0.0000 C   0  0  0  0  0  0  0  0  0  0  0  0
    6.8237   -3.8580    0.0000 C   0  0  0  0  0  0  0  0  0  0  0  0
   17.1118   -3.2282    0.0000 C   0  0  0  0  0  0  0  0  0  0  0  0
    9.1333   -3.8580    0.0000 C   0  0  0  0  0  0  0  0  0  0  0  0
    0.0000   -3.8580    0.0000 C   0  0  0  0  0  0  0  0  0  0  0  0
   26.2451   -3.2282    0.0000 C   0  0  0  0  0  0  0  0  0  0  0  0
   11.4166   -3.8580    0.0000 C   0  0  0  0  0  0  0  0  0  0  0  0
   14.8023   -3.2282    0.0000 C   0  0  0  0  0  0  0  0  0  0  0  0
    0.0000   -5.1965    0.0000 C   0  0  0  0  0  0  0  0  0  0  0  0
   26.2451   -1.9159    0.0000 C   0  0  0  0  0  0  0  0  0  0  0  0
   13.6737   -3.8580    0.0000 C   0  0  0  0  0  0  0  0  0  0  0  0
   12.5189   -3.2282    0.0000 C   0  0  0  0  0  0  0  0  0  0  0  0
    1.1548   -7.3224    0.0000 O   0  0  0  0  0  0  0  0  0  0  0  0
   25.0904    0.0000    0.0000 O   0  0  0  0  0  0  0  0  0  0  0  0
   22.8858   -1.2598    0.0000 C   0  0  0  0  0  0  0  0  0  0  0  0
    3.3856   -5.9314    0.0000 C   0  0  0  0  0  0  0  0  0  0  0  0
   24.2768   -4.9341    0.0000 C   0  0  0  0  0  0  0  0  0  0  0  0
    0.3149   -1.9684    0.0000 C   0  0  0  0  0  0  0  0  0  0  0  0
    1.9159   -1.9159    0.0000 C   0  0  0  0  0  0  0  0  0  0  0  0
   26.0089   -4.9603    0.0000 C   0  0  0  0  0  0  0  0  0  0  0  0
    5.6952   -1.7847    0.0000 C   0  0  0  0  0  0  0  0  0  0  0  0
   20.5237   -5.1965    0.0000 C   0  0  0  0  0  0  0  0  0  0  0  0
   10.2881   -1.8372    0.0000 C   0  0  0  0  0  0  0  0  0  0  0  0
   15.9570   -5.1965    0.0000 C   0  0  0  0  0  0  0  0  0  0  0  0
  1  3  2  0  0  0  0
  1  6  1  0  0  0  0
  1  7  1  0  0  0  0
  2  5  1  0  0  0  0
  2  4  2  0  0  0  0
  2  8  1  0  0  0  0
  3  9  1  0  0  0  0
  3 34  1  0  0  0  0
  4 10  1  0  0  0  0
  4 33  1  0  0  0  0
  5 11  2  0  0  0  0
  6 12  2  0  0  0  0
  7 23  1  0  0  0  0
  7 36  1  0  0  0  0
  7 37  1  0  0  0  0
  8 24  1  0  0  0  0
  8 35  1  0  0  0  0
  8 38  1  0  0  0  0
  9 31  2  0  0  0  0
  9 27  1  0  0  0  0
 10 32  2  0  0  0  0
 10 28  1  0  0  0  0
 11 16  1  0  0  0  0
 12 15  1  0  0  0  0
 13 20  1  0  0  0  0
 13 22  2  0  0  0  0
 14 21  2  0  0  0  0
 14 19  1  0  0  0  0
 15 20  2  0  0  0  0
 15 39  1  0  0  0  0
 16 19  2  0  0  0  0
 16 40  1  0  0  0  0
 17 22  1  0  0  0  0
 17 25  2  0  0  0  0
 17 41  1  0  0  0  0
 18 26  2  0  0  0  0
 18 21  1  0  0  0  0
 18 42  1  0  0  0  0
 23 27  1  0  0  0  0
 24 28  1  0  0  0  0
 25 30  1  0  0  0  0
 26 29  1  0  0  0  0
 29 30  2  0  0  0  0
M  END
> <ID>
2467

> <Formula>
C40H52O2

> <FW>
564.8397

> <DSSTox_CID>
2727

> <DSSTox_RID>
76702

> <DSSTox_GSID>
22727

> <DSSTox_FileID_Sort>
1386

> <TS_ChemName>
Canthaxanthin

> <TS_ChemName_Synonyms>


> <TS_CASRN>
514-78-3

> <CASRN_ChemName_Relationship>
primary

> <TS_Description>
single chemical compound

> <ChemNote>
stereochem

> <STRUCTURE_Shown>
tested chemical

> <STRUCTURE_Formula>
C40H52O2

> <STRUCTURE_MW>
564.8397

> <STRUCTURE_ChemType>
defined organic

> <STRUCTURE_DefinedOrganicForm>
parent

> <STRUCTURE_IUPAC>
beta,beta-carotene-4,4'-dione

> <STRUCTURE_SMILES>
O=C2CCC(C)(C)C(/C=CC(\C)=C\C=C\C(\C)=C\C=C\C=C(/C)\C=C\C=C(/C)\C=C\C1=C(C)C(=O)CCC1(C)C)=C2C

> <STRUCTURE_SMILES_Desalt>
O=C2CCC(C)(C)C(/C=CC(\C)=C\C=C\C(\C)=C\C=C\C=C(/C)\C=C\C=C(/C)\C=C\C1=C(C)C(=O)CCC1(C)C)=C2C

> <Substance_modify_yyyymmdd>
20080429

$$$$
