51411-04-2
ChemmineR-0915142007XD

 19 21  0  0  0  0  0  0  0  0  1 V2000
    1.9954   -4.6053    0.0000 O   0  0  0  0  0  0  0  0  0  0  0  0
    1.3329   -3.4560    0.0000 C   0  0  0  0  0  0  0  0  0  0  0  0
    0.0000   -3.4560    0.0000 O   0  0  0  0  0  0  0  0  0  0  0  0
    1.9954   -2.2986    0.0000 C   0  0  0  0  0  0  0  0  0  0  0  0
    3.3283   -2.2986    0.0000 N   0  0  0  0  0  0  0  0  0  0  0  0
    3.9907   -3.4560    0.0000 C   0  0  0  0  0  0  0  0  0  0  0  0
    3.3283   -4.6053    0.0000 O   0  0  0  0  0  0  0  0  0  0  0  0
    5.3236   -3.4560    0.0000 C   0  0  0  0  0  0  0  0  0  0  0  0
    5.9861   -4.6053    0.0000 C   0  0  0  0  0  0  0  0  0  0  0  0
    7.3190   -4.6053    0.0000 C   0  0  0  0  0  0  0  0  0  0  0  0
    7.9814   -3.4560    0.0000 C   0  0  0  0  0  0  0  0  0  0  0  0
    7.3190   -2.2986    0.0000 C   0  0  0  0  0  0  0  0  0  0  0  0
    5.9861   -2.2986    0.0000 C   0  0  0  0  0  0  0  0  0  0  0  0
    5.3236   -1.1493    0.0000 C   0  0  0  0  0  0  0  0  0  0  0  0
    5.9861    0.0000    0.0000 C   0  0  0  0  0  0  0  0  0  0  0  0
    7.3190    0.0000    0.0000 C   0  0  0  0  0  0  0  0  0  0  0  0
    7.9814   -1.1493    0.0000 C   0  0  0  0  0  0  0  0  0  0  0  0
    3.9907   -1.1493    0.0000 C   0  0  0  0  0  0  0  0  0  0  0  0
    3.3283    0.0000    0.0000 O   0  0  0  0  0  0  0  0  0  0  0  0
  1  2  1  0  0  0  0
  2  3  2  0  0  0  0
  2  4  1  0  0  0  0
  4  5  1  0  0  0  0
  5  6  1  0  0  0  0
  5 18  1  0  0  0  0
  6  7  2  0  0  0  0
  6  8  1  0  0  0  0
  8  9  2  0  0  0  0
  8 13  1  0  0  0  0
  9 10  1  0  0  0  0
 10 11  2  0  0  0  0
 11 12  1  0  0  0  0
 12 13  2  0  0  0  0
 12 17  1  0  0  0  0
 13 14  1  0  0  0  0
 14 15  2  0  0  0  0
 14 18  1  0  0  0  0
 15 16  1  0  0  0  0
 16 17  2  0  0  0  0
 18 19  2  0  0  0  0
M  END
> <ID>
11101

> <Formula>
C14H9NO4

> <FW>
255.2256

> <DSSTox_CID>
25655

> <DSSTox_RID>
81033

> <DSSTox_GSID>
45655

> <DSSTox_FileID_Sort>
5714

> <TS_ChemName>
Alrestatin

> <TS_ChemName_Synonyms>


> <TS_CASRN>
51411-04-2

> <CASRN_ChemName_Relationship>
primary

> <TS_Description>
single chemical compound

> <ChemNote>


> <STRUCTURE_Shown>
tested chemical

> <STRUCTURE_Formula>
C14H9NO4

> <STRUCTURE_MW>
255.2256

> <STRUCTURE_ChemType>
defined organic

> <STRUCTURE_DefinedOrganicForm>
parent

> <STRUCTURE_IUPAC>
(1,3-dioxo-1H-benzo[de]isoquinolin-2(3H)-yl)acetic acid

> <STRUCTURE_SMILES>
O=C(O)CN3C(=O)c2cccc1cccc(c12)C3=O

> <STRUCTURE_SMILES_Desalt>
O=C(O)CN3C(=O)c2cccc1cccc(c12)C3=O

> <Substance_modify_yyyymmdd>
20100107

$$$$
