51410-30-1
ChemmineR-0915142007XD

 24 26  0  0  0  0  0  0  0  0  2 V2000
    4.5980   -4.0246    0.0000 C    0  0  0  0  0  0  0  0  0  0  0  0
    5.7337   -3.3630    0.0000 C    0  0  0  0  0  0  0  0  0  0  0  0
    4.5980   -5.3588    0.0000 C    0  0  0  0  0  0  0  0  0  0  0  0
    3.4512   -3.3630    0.0000 N    0  0  0  0  0  0  0  0  0  0  0  0
    6.8804   -4.0246    0.0000 C    0  0  0  0  0  0  0  0  0  0  0  0
    8.0272   -3.3630    0.0000 N    0  0  0  0  0  0  0  0  0  0  0  0
    5.7337   -6.0204    0.0000 C    0  0  0  0  0  0  0  0  0  0  0  0
    6.8804   -5.3588    0.0000 C    0  0  0  0  0  0  0  0  0  0  0  0
    5.7337   -2.0068    0.0000 C    0  0  0  0  0  0  0  0  0  0  0  0
    3.4512   -6.0204    0.0000 O    0  0  0  0  0  0  0  0  0  0  0  0
    8.0272   -2.0068    0.0000 C    0  0  0  0  0  0  0  0  0  0  0  0
    6.8804   -1.3673    0.0000 C    0  0  0  0  0  0  0  0  0  0  0  0
    2.2935   -4.0246    0.0000 C    0  0  0  0  0  0  0  0  0  0  0  0
    9.1959   -1.3452    0.0000 C    0  0  0  0  0  0  0  0  0  0  0  0
    2.2935   -5.3588    0.0000 C    0  0  0  0  0  0  0  0  0  0  0  0
    8.0382   -6.0314    0.0000 O    0  0  0  0  0  0  0  0  0  0  0  0
    9.1959    0.0000    0.0000 O    0  0  0  0  0  0  0  0  0  0  0  0
    4.5649   -1.3452    0.0000 O    0  0  0  0  0  0  0  0  0  0  0  0
   10.3427   -2.0068    0.0000 O    0  5  0  0  0  0  0  0  0  0  0  0
    1.1467   -3.3630    0.0000 C    0  0  0  0  0  0  0  0  0  0  0  0
    1.1467   -6.0204    0.0000 C    0  0  0  0  0  0  0  0  0  0  0  0
    0.0000   -4.0246    0.0000 C    0  0  0  0  0  0  0  0  0  0  0  0
    0.0000   -5.3588    0.0000 C    0  0  0  0  0  0  0  0  0  0  0  0
   11.0263   -0.7388    0.0000 Na   0  3  0  0  0  0  0  0  0  0  0  0
  1  2  1  0  0  0  0
  1  3  1  0  0  0  0
  1  4  2  0  0  0  0
  2  5  2  0  0  0  0
  2  9  1  0  0  0  0
  3  7  2  0  0  0  0
  3 10  1  0  0  0  0
  4 13  1  0  0  0  0
  5  6  1  0  0  0  0
  5  8  1  0  0  0  0
  6 11  2  0  0  0  0
  7  8  1  0  0  0  0
  8 16  2  0  0  0  0
  9 12  2  0  0  0  0
  9 18  1  0  0  0  0
 10 15  1  0  0  0  0
 11 12  1  0  0  0  0
 11 14  1  0  0  0  0
 13 15  2  0  0  0  0
 13 20  1  0  0  0  0
 14 17  2  0  0  0  0
 14 19  1  0  0  0  0
 15 21  1  0  0  0  0
 20 22  2  0  0  0  0
 21 23  2  0  0  0  0
 22 23  1  0  0  0  0
M  END
> <ID>
11848

> <Formula>
C16H7N2NaO5

> <FW>
330.2269 (307.2377+22.9892)

> <DSSTox_CID>
26637

> <DSSTox_RID>
81783

> <DSSTox_GSID>
46637

> <DSSTox_FileID_Sort>
6464

> <TS_ChemName>
Pirenoxine sodium

> <TS_ChemName_Synonyms>


> <TS_CASRN>
51410-30-1

> <CASRN_ChemName_Relationship>
primary

> <TS_Description>
single chemical compound

> <ChemNote>
tautomers

> <STRUCTURE_Shown>
tested chemical

> <STRUCTURE_Formula>
C16H7N2NaO5

> <STRUCTURE_MW>
330.2269

> <STRUCTURE_ChemType>
defined organic

> <STRUCTURE_DefinedOrganicForm>
salt

> <STRUCTURE_IUPAC>
sodium 1-hydroxy-5-oxo-5H-pyrido[3,2-a]phenoxazine-3-carboxylate

> <STRUCTURE_SMILES>
[Na+].[O-]C(=O)c1cc(O)c2C3=Nc4ccccc4OC3=CC(=O)c2n1

> <STRUCTURE_SMILES_Desalt>
O=C(O)c1cc(O)c2C3=Nc4ccccc4OC3=CC(=O)c2n1

> <Substance_modify_yyyymmdd>
20110809

$$$$
