51481-61-9
ChemmineR-0915142007XD

 17 17  0  0  0  0  0  0  0  0  1 V2000
    2.5059   -8.8123    0.0000 C   0  0  0  0  0  0  0  0  0  0  0  0
    3.7901   -8.4677    0.0000 N   0  0  0  0  0  0  0  0  0  0  0  0
    2.1613  -10.0965    0.0000 N   0  0  0  0  0  0  0  0  0  0  0  0
    1.5662   -7.8726    0.0000 N   0  0  0  0  0  0  0  0  0  0  0  0
    4.7298   -9.4074    0.0000 C   0  0  0  0  0  0  0  0  0  0  0  0
    5.6695  -10.3471    0.0000 N   0  0  0  0  0  0  0  0  0  0  0  0
    0.8771  -10.4411    0.0000 C   0  0  0  0  0  0  0  0  0  0  0  0
    1.9107   -6.5883    0.0000 C   0  0  0  0  0  0  0  0  0  0  0  0
    0.9710   -5.6486    0.0000 C   0  0  0  0  0  0  0  0  0  0  0  0
    1.3156   -4.3644    0.0000 S   0  0  0  0  0  0  0  0  0  0  0  0
    0.3759   -3.4142    0.0000 C   0  0  0  0  0  0  0  0  0  0  0  0
    0.0000   -1.0754    0.0000 N   0  0  0  0  0  0  0  0  0  0  0  0
    2.0465   -0.4072    0.0000 N   0  0  0  0  0  0  0  0  0  0  0  0
    0.7831    0.0000    0.0000 C   0  0  0  0  0  0  0  0  0  0  0  0
    0.7831   -2.1509    0.0000 C   0  0  0  0  0  0  0  0  0  0  0  0
    2.0465   -1.7437    0.0000 C   0  0  0  0  0  0  0  0  0  0  0  0
    3.1219   -2.5267    0.0000 C   0  0  0  0  0  0  0  0  0  0  0  0
  1  2  2  0  0  0  0
  1  3  1  0  0  0  0
  1  4  1  0  0  0  0
  2  5  1  0  0  0  0
  3  7  1  0  0  0  0
  4  8  1  0  0  0  0
  5  6  3  0  0  0  0
  8  9  1  0  0  0  0
  9 10  1  0  0  0  0
 10 11  1  0  0  0  0
 11 15  1  0  0  0  0
 12 14  2  0  0  0  0
 12 15  1  0  0  0  0
 13 14  1  0  0  0  0
 13 16  1  0  0  0  0
 15 16  2  0  0  0  0
 16 17  1  0  0  0  0
M  END
> <ID>
319

> <Formula>
C10H16N6S

> <FW>
252.3392

> <DSSTox_CID>
329

> <DSSTox_RID>
75517

> <DSSTox_GSID>
20329

> <DSSTox_FileID_Sort>
201

> <TS_ChemName>
Cimetidine

> <TS_ChemName_Synonyms>


> <TS_CASRN>
51481-61-9

> <CASRN_ChemName_Relationship>
primary

> <TS_Description>
single chemical compound

> <ChemNote>
tautomers

> <STRUCTURE_Shown>
tested chemical

> <STRUCTURE_Formula>
C10H16N6S

> <STRUCTURE_MW>
252.3392

> <STRUCTURE_ChemType>
defined organic

> <STRUCTURE_DefinedOrganicForm>
parent

> <STRUCTURE_IUPAC>
2-cyano-1-methyl-3-(2-{[(5-methyl-1H-imidazol-4-yl)methyl]sulfanyl}ethyl)guanidine

> <STRUCTURE_SMILES>
N#C\N=C(/NC)NCCSCc1ncnc1C

> <STRUCTURE_SMILES_Desalt>
N#C\N=C(/NC)NCCSCc1ncnc1C

> <Substance_modify_yyyymmdd>
20080429

$$$$
