51481-65-3
ChemmineR-0915142007XD

 38 41  0  0  1  0  0  0  0  0  1 V2000
   13.3114   -3.2265    0.0000 N   0  0  0  0  0  0  0  0  0  0  0  0
    2.2636   -1.1994    0.0000 N   0  0  0  0  0  0  0  0  0  0  0  0
    4.2231   -1.1994    0.0000 N   0  0  0  0  0  0  0  0  0  0  0  0
    3.2434   -1.8920    0.0000 C   0  0  0  0  0  0  0  0  0  0  0  0
   13.3114   -1.7399    0.0000 C   0  0  0  0  0  0  0  0  0  0  0  0
   11.8248   -3.2265    0.0000 C   0  0  0  0  0  0  0  0  0  0  0  0
   11.8248   -1.7399    0.0000 C   0  0  0  0  0  0  0  0  0  0  0  0
    1.1487   -1.5710    0.0000 S   0  0  0  0  0  0  0  0  0  0  0  0
   14.7303   -3.6826    0.0000 C   0  0  0  0  0  0  0  0  0  0  0  0
    5.5239   -1.7906    0.0000 C   0  0  0  0  0  0  0  0  0  0  0  0
   14.7303   -1.2838    0.0000 S   0  0  0  0  0  0  0  0  0  0  0  0
   15.5750   -2.4832    0.0000 C   0  0  0  0  0  0  0  0  0  0  0  0
    9.6457   -1.7737    0.0000 N   0  0  0  0  0  0  0  0  0  0  0  0
    6.5543   -1.1994    0.0000 N   0  0  0  0  0  0  0  0  0  0  0  0
    8.6152   -1.1994    0.0000 C   0  0  0  0  0  0  0  0  0  0  0  0
    2.6352   -0.0507    0.0000 C   0  0  0  0  0  0  0  0  0  0  0  0
    7.6017   -1.7906    0.0000 C   0  0  0  0  0  0  0  0  0  0  0  0
    3.8346   -0.0507    0.0000 C   0  0  0  0  0  0  0  0  0  0  0  0
   15.1695   -5.1185    0.0000 C   0  0  0  0  0  0  0  0  0  0  0  0
    3.2434   -3.0913    0.0000 O   0  0  0  0  0  0  0  0  0  0  0  0
   10.7437   -4.2738    0.0000 O   0  0  0  0  0  0  0  0  0  0  0  0
    0.7602   -0.4392    0.0000 O   0  0  0  0  0  0  0  0  0  0  0  0
    1.5203   -2.6859    0.0000 O   0  0  0  0  0  0  0  0  0  0  0  0
    5.5239   -2.9900    0.0000 O   0  0  0  0  0  0  0  0  0  0  0  0
    8.6152    0.0000    0.0000 O   0  0  0  0  0  0  0  0  0  0  0  0
   16.6392   -5.4225    0.0000 O   0  0  0  0  0  0  0  0  0  0  0  0
    7.6017   -2.9900    0.0000 C   0  0  0  0  0  0  0  0  0  0  0  0
    0.0000   -1.9426    0.0000 C   0  0  0  0  0  0  0  0  0  0  0  0
   14.1560   -6.2165    0.0000 O   0  0  0  0  0  0  0  0  0  0  0  0
   16.8926   -1.7399    0.0000 C   0  0  0  0  0  0  0  0  0  0  0  0
   16.8926   -3.2265    0.0000 C   0  0  0  0  0  0  0  0  0  0  0  0
    8.6152   -3.5812    0.0000 C   0  0  0  0  0  0  0  0  0  0  0  0
    6.5543   -3.5812    0.0000 C   0  0  0  0  0  0  0  0  0  0  0  0
    6.5543   -4.7806    0.0000 C   0  0  0  0  0  0  0  0  0  0  0  0
    8.6152   -4.7806    0.0000 C   0  0  0  0  0  0  0  0  0  0  0  0
    7.6017   -5.3718    0.0000 C   0  0  0  0  0  0  0  0  0  0  0  0
   11.8248   -0.4561    0.0000 H   0  0  0  0  0  0  0  0  0  0  0  0
   13.3114   -0.4561    0.0000 H   0  0  0  0  0  0  0  0  0  0  0  0
  1  5  1  0  0  0  0
  1  6  1  0  0  0  0
  1  9  1  0  0  0  0
  2  4  1  0  0  0  0
  2  8  1  0  0  0  0
  2 16  1  0  0  0  0
  3 10  1  0  0  0  0
  3  4  1  0  0  0  0
  3 18  1  0  0  0  0
  4 20  2  0  0  0  0
  5 11  1  0  0  0  0
  5  7  1  0  0  0  0
  5 38  1  6  0  0  0
  6  7  1  0  0  0  0
  6 21  2  0  0  0  0
  7 13  1  1  0  0  0
  7 37  1  6  0  0  0
  8 22  2  0  0  0  0
  8 23  2  0  0  0  0
  8 28  1  0  0  0  0
  9 12  1  0  0  0  0
  9 19  1  6  0  0  0
 10 14  1  0  0  0  0
 10 24  2  0  0  0  0
 11 12  1  0  0  0  0
 12 30  1  0  0  0  0
 12 31  1  0  0  0  0
 13 15  1  0  0  0  0
 14 17  1  0  0  0  0
 15 17  1  0  0  0  0
 15 25  2  0  0  0  0
 16 18  1  0  0  0  0
 17 27  1  1  0  0  0
 19 26  2  0  0  0  0
 19 29  1  0  0  0  0
 27 32  1  0  0  0  0
 27 33  2  0  0  0  0
 32 35  2  0  0  0  0
 33 34  1  0  0  0  0
 34 36  2  0  0  0  0
 35 36  1  0  0  0  0
M  END
> <ID>
2976

> <Formula>
C21H25N5O8S2

> <FW>
539.5819

> <DSSTox_CID>
3316

> <DSSTox_RID>
76973

> <DSSTox_GSID>
23316

> <DSSTox_FileID_Sort>
1657

> <TS_ChemName>
Mezlocillin

> <TS_ChemName_Synonyms>


> <TS_CASRN>
51481-65-3

> <CASRN_ChemName_Relationship>
primary

> <TS_Description>
single chemical compound

> <ChemNote>
stereochem

> <STRUCTURE_Shown>
tested chemical

> <STRUCTURE_Formula>
C21H25N5O8S2

> <STRUCTURE_MW>
539.5819

> <STRUCTURE_ChemType>
defined organic

> <STRUCTURE_DefinedOrganicForm>
parent

> <STRUCTURE_IUPAC>
(2S,5R,6R)-3,3-dimethyl-6-{[(2R)-2-({[3-(methylsulfonyl)-2-oxoimidazolidin-1-yl]carbonyl}amino)-2-phenylacetyl]amino}-7-oxo-4-thia-1-azabicyclo[3.2.0]heptane-2-carboxylic acid

> <STRUCTURE_SMILES>
OC(=O)[C@@H]3N4C(=O)[C@@H](NC(=O)[C@H](NC(=O)N1CCN(C1=O)S(C)(=O)=O)c2ccccc2)[C@H]4SC3(C)C

> <STRUCTURE_SMILES_Desalt>
OC(=O)[C@@H]3N4C(=O)[C@@H](NC(=O)[C@H](NC(=O)N1CCN(C1=O)S(C)(=O)=O)c2ccccc2)[C@H]4SC3(C)C

> <Substance_modify_yyyymmdd>
20080429

$$$$
