515-03-7
ChemmineR-0915142007XD

 23 24  0  0  1  0  0  0  0  0  1 V2000
    2.3086   -3.9914    0.0000 C   0  0  0  0  0  0  0  0  0  0  0  0
    2.3086   -5.3191    0.0000 C   0  0  0  0  0  0  0  0  0  0  0  0
    2.3086   -6.6468    0.0000 C   0  0  0  0  0  0  0  0  0  0  0  0
    3.4587   -4.6426    0.0000 C   0  0  0  0  0  0  0  0  0  0  0  0
    1.1501   -4.6426    0.0000 C   0  0  0  0  0  0  0  0  0  0  0  0
    3.4587   -7.3064    0.0000 C   0  0  0  0  0  0  0  0  0  0  0  0
    1.1501   -7.3064    0.0000 C   0  0  0  0  0  0  0  0  0  0  0  0
    3.4587   -3.3149    0.0000 C   0  0  0  0  0  0  0  0  0  0  0  0
    4.6088   -5.3191    0.0000 C   0  0  0  0  0  0  0  0  0  0  0  0
    0.0000   -5.3191    0.0000 C   0  0  0  0  0  0  0  0  0  0  0  0
    4.6088   -6.6468    0.0000 C   0  0  0  0  0  0  0  0  0  0  0  0
    1.8097   -8.4564    0.0000 C   0  0  0  0  0  0  0  0  0  0  0  0
    0.4820   -8.4564    0.0000 C   0  0  0  0  0  0  0  0  0  0  0  0
    0.0000   -6.6468    0.0000 C   0  0  0  0  0  0  0  0  0  0  0  0
    4.6088   -2.6553    0.0000 C   0  0  0  0  0  0  0  0  0  0  0  0
    5.2684   -4.1606    0.0000 C   0  0  0  0  0  0  0  0  0  0  0  0
    5.9449   -5.3191    0.0000 O   0  0  0  0  0  0  0  0  0  0  0  0
    4.6088   -1.3277    0.0000 C   0  0  0  0  0  0  0  0  0  0  0  0
    5.9449   -1.3277    0.0000 C   0  0  0  0  0  0  0  0  0  0  0  0
    4.6088    0.0000    0.0000 C   0  0  0  0  0  0  0  0  0  0  0  0
    3.2811   -1.3277    0.0000 O   0  0  0  0  0  0  0  0  0  0  0  0
    6.5960   -2.4862    0.0000 C   0  0  0  0  0  0  0  0  0  0  0  0
    2.3086   -7.9744    0.0000 H   0  0  0  0  0  0  0  0  0  0  0  0
  2  1  1  1  0  0  0
  2  3  1  0  0  0  0
  2  4  1  0  0  0  0
  2  5  1  0  0  0  0
  3  6  1  0  0  0  0
  3  7  1  0  0  0  0
  3 23  1  6  0  0  0
  4  8  1  1  0  0  0
  4  9  1  0  0  0  0
  5 10  1  0  0  0  0
  6 11  1  0  0  0  0
  7 12  1  0  0  0  0
  7 13  1  0  0  0  0
  7 14  1  0  0  0  0
  8 15  1  0  0  0  0
  9 11  1  0  0  0  0
  9 16  1  1  0  0  0
  9 17  1  6  0  0  0
 10 14  1  0  0  0  0
 15 18  1  0  0  0  0
 18 19  1  0  0  0  0
 18 20  1  6  0  0  0
 18 21  1  1  0  0  0
 19 22  2  0  0  0  0
M  END
> <ID>
12261

> <Formula>
C20H36O2

> <FW>
308.4986

> <DSSTox_CID>
27111

> <DSSTox_RID>
82121

> <DSSTox_GSID>
47111

> <DSSTox_FileID_Sort>
6802

> <TS_ChemName>
Sclareol

> <TS_ChemName_Synonyms>


> <TS_CASRN>
515-03-7

> <CASRN_ChemName_Relationship>
primary

> <TS_Description>
single chemical compound

> <ChemNote>
stereochem

> <STRUCTURE_Shown>
tested chemical

> <STRUCTURE_Formula>
C20H36O2

> <STRUCTURE_MW>
308.4986

> <STRUCTURE_ChemType>
defined organic

> <STRUCTURE_DefinedOrganicForm>
parent

> <STRUCTURE_IUPAC>
(1R,2R,4aS,8aS)-1-[(3R)-3-hydroxy-3-methylpent-4-en-1-yl]-2,5,5,8a-tetramethyldecahydronaphthalen-2-ol

> <STRUCTURE_SMILES>
C=C[C@](C)(O)CC[C@@H]1[C@@]2(C)CCCC(C)(C)[C@@H]2CC[C@@]1(C)O

> <STRUCTURE_SMILES_Desalt>
C=C[C@](C)(O)CC[C@@H]1[C@@]2(C)CCCC(C)(C)[C@@H]2CC[C@@]1(C)O

> <Substance_modify_yyyymmdd>
20100429

$$$$
