515-69-5
ChemmineR-0915142007XD

 17 17  0  0  1  0  0  0  0  0  1 V2000
    3.4220   -1.9672    0.0000 C   0  0  0  0  0  0  0  0  0  0  0  0
    3.4220   -3.2888    0.0000 C   0  0  0  0  0  0  0  0  0  0  0  0
    2.2540   -3.9036    0.0000 C   0  0  0  0  0  0  0  0  0  0  0  0
    1.1373   -3.2376    0.0000 C   0  0  0  0  0  0  0  0  0  0  0  0
    1.1373   -1.9159    0.0000 C   0  0  0  0  0  0  0  0  0  0  0  0
    2.3155   -1.3012    0.0000 C   0  0  0  0  0  0  0  0  0  0  0  0
    4.5388   -1.3627    0.0000 C   0  0  0  0  0  0  0  0  0  0  0  0
    3.9855   -0.0820    0.0000 O   0  0  0  0  0  0  0  0  0  0  0  0
    5.6965   -1.9979    0.0000 C   0  0  0  0  0  0  0  0  0  0  0  0
    0.0000   -3.8728    0.0000 C   0  0  0  0  0  0  0  0  0  0  0  0
    5.3482   -0.0820    0.0000 C   0  0  0  0  0  0  0  0  0  0  0  0
    6.8236   -1.3319    0.0000 C   0  0  0  0  0  0  0  0  0  0  0  0
    7.9813   -1.9876    0.0000 C   0  0  0  0  0  0  0  0  0  0  0  0
    9.1083   -1.3217    0.0000 C   0  0  0  0  0  0  0  0  0  0  0  0
   10.2456   -1.9569    0.0000 C   0  0  0  0  0  0  0  0  0  0  0  0
    9.1083    0.0000    0.0000 C   0  0  0  0  0  0  0  0  0  0  0  0
    4.5388   -2.7253    0.0000 H   0  0  0  0  0  0  0  0  0  0  0  0
  1  2  1  0  0  0  0
  1  6  1  0  0  0  0
  1  7  1  0  0  0  0
  1 17  1  6  0  0  0
  2  3  1  0  0  0  0
  3  4  2  0  0  0  0
  4  5  1  0  0  0  0
  4 10  1  0  0  0  0
  5  6  1  0  0  0  0
  7  8  1  6  0  0  0
  7  9  1  0  0  0  0
  7 11  1  1  0  0  0
  9 12  1  0  0  0  0
 12 13  1  0  0  0  0
 13 14  2  0  0  0  0
 14 15  1  0  0  0  0
 14 16  1  0  0  0  0
M  END
> <ID>
11328

> <Formula>
C15H26O

> <FW>
222.3663

> <DSSTox_CID>
25964

> <DSSTox_RID>
81260

> <DSSTox_GSID>
45964

> <DSSTox_FileID_Sort>
5941

> <TS_ChemName>
Bisabolol

> <TS_ChemName_Synonyms>


> <TS_CASRN>
515-69-5

> <CASRN_ChemName_Relationship>
primary

> <TS_Description>
single chemical compound

> <ChemNote>
stereochem

> <STRUCTURE_Shown>
tested chemical

> <STRUCTURE_Formula>
C15H26O

> <STRUCTURE_MW>
222.3663

> <STRUCTURE_ChemType>
defined organic

> <STRUCTURE_DefinedOrganicForm>
parent

> <STRUCTURE_IUPAC>
(2R)-6-methyl-2-[(1R)-4-methylcyclohex-3-en-1-yl]hept-5-en-2-ol

> <STRUCTURE_SMILES>
CC1=CC[C@@H](CC1)[C@@](O)(C)CC\C=C(/C)C

> <STRUCTURE_SMILES_Desalt>
CC1=CC[C@@H](CC1)[C@@](O)(C)CC\C=C(/C)C

> <Substance_modify_yyyymmdd>
20110930

$$$$
