515-57-1
ChemmineR-0915142007XD

 23 24  0  0  0  0  0  0  0  0  1 V2000
   13.6381   -5.1624    0.0000 O   0  0  0  0  0  0  0  0  0  0  0  0
   13.6381   -3.8311    0.0000 C   0  0  0  0  0  0  0  0  0  0  0  0
   14.7919   -3.1507    0.0000 O   0  0  0  0  0  0  0  0  0  0  0  0
   12.4843   -3.1507    0.0000 C   0  0  0  0  0  0  0  0  0  0  0  0
   11.3158   -3.8311    0.0000 C   0  0  0  0  0  0  0  0  0  0  0  0
   10.1620   -3.1507    0.0000 C   0  0  0  0  0  0  0  0  0  0  0  0
   10.1620   -1.8194    0.0000 O   0  0  0  0  0  0  0  0  0  0  0  0
    9.0230   -3.8163    0.0000 N   0  0  0  0  0  0  0  0  0  0  0  0
    7.8693   -3.1507    0.0000 C   0  0  0  0  0  0  0  0  0  0  0  0
    6.7155   -3.8163    0.0000 C   0  0  0  0  0  0  0  0  0  0  0  0
    5.5765   -3.1507    0.0000 C   0  0  0  0  0  0  0  0  0  0  0  0
    5.5765   -1.8194    0.0000 C   0  0  0  0  0  0  0  0  0  0  0  0
    6.7155   -1.1686    0.0000 C   0  0  0  0  0  0  0  0  0  0  0  0
    7.8545   -1.8194    0.0000 C   0  0  0  0  0  0  0  0  0  0  0  0
    4.4228   -1.1686    0.0000 S   0  0  0  0  0  0  0  0  0  0  0  0
    3.7423   -2.3075    0.0000 O   0  0  0  0  0  0  0  0  0  0  0  0
    5.0736    0.0000    0.0000 O   0  0  0  0  0  0  0  0  0  0  0  0
    3.2542   -0.4881    0.0000 N   0  0  0  0  0  0  0  0  0  0  0  0
    2.1004   -1.1686    0.0000 C   0  0  0  0  0  0  0  0  0  0  0  0
    0.9023   -0.6213    0.0000 N   0  0  0  0  0  0  0  0  0  0  0  0
    0.0000   -1.5975    0.0000 C   0  0  0  0  0  0  0  0  0  0  0  0
    0.6656   -2.7513    0.0000 C   0  0  0  0  0  0  0  0  0  0  0  0
    1.9525   -2.4850    0.0000 S   0  0  0  0  0  0  0  0  0  0  0  0
  1  2  1  0  0  0  0
  2  3  2  0  0  0  0
  2  4  1  0  0  0  0
  4  5  2  3  0  0  0
  5  6  1  0  0  0  0
  6  7  2  0  0  0  0
  6  8  1  0  0  0  0
  8  9  1  0  0  0  0
  9 10  2  0  0  0  0
  9 14  1  0  0  0  0
 10 11  1  0  0  0  0
 11 12  2  0  0  0  0
 12 13  1  0  0  0  0
 12 15  1  0  0  0  0
 13 14  2  0  0  0  0
 15 16  2  0  0  0  0
 15 17  2  0  0  0  0
 15 18  1  0  0  0  0
 18 19  1  0  0  0  0
 19 20  2  0  0  0  0
 19 23  1  0  0  0  0
 20 21  1  0  0  0  0
 21 22  2  0  0  0  0
 22 23  1  0  0  0  0
M  END
> <ID>
11420

> <Formula>
C13H11N3O5S2

> <FW>
353.3735

> <DSSTox_CID>
26116

> <DSSTox_RID>
81352

> <DSSTox_GSID>
46116

> <DSSTox_FileID_Sort>
6033

> <TS_ChemName>
Maleylsulfathiazole

> <TS_ChemName_Synonyms>


> <TS_CASRN>
515-57-1

> <CASRN_ChemName_Relationship>
primary

> <TS_Description>
single chemical compound

> <ChemNote>


> <STRUCTURE_Shown>
tested chemical

> <STRUCTURE_Formula>
C13H11N3O5S2

> <STRUCTURE_MW>
353.3735

> <STRUCTURE_ChemType>
defined organic

> <STRUCTURE_DefinedOrganicForm>
parent

> <STRUCTURE_IUPAC>
4-oxo-4-{[4-(1,3-thiazol-2-ylsulfamoyl)phenyl]amino}but-2-enoic acid

> <STRUCTURE_SMILES>
O=S(=O)(Nc1nccs1)c2ccc(NC(=O)C=CC(=O)O)cc2

> <STRUCTURE_SMILES_Desalt>
O=S(=O)(Nc1nccs1)c2ccc(NC(=O)C=CC(=O)O)cc2

> <Substance_modify_yyyymmdd>
20110818

$$$$
