515-64-0
ChemmineR-0915142007XD

 19 20  0  0  0  0  0  0  0  0  1 V2000
    9.2600    0.0000    0.0000 C   0  0  0  0  0  0  0  0  0  0  0  0
    8.5841   -1.1482    0.0000 C   0  0  0  0  0  0  0  0  0  0  0  0
    9.2600   -2.2965    0.0000 N   0  0  0  0  0  0  0  0  0  0  0  0
    8.5841   -3.4540    0.0000 C   0  0  0  0  0  0  0  0  0  0  0  0
    7.2599   -3.4540    0.0000 N   0  0  0  0  0  0  0  0  0  0  0  0
    6.6024   -2.2965    0.0000 C   0  0  0  0  0  0  0  0  0  0  0  0
    7.2599   -1.1482    0.0000 C   0  0  0  0  0  0  0  0  0  0  0  0
    5.2597   -2.2965    0.0000 N   0  0  0  0  0  0  0  0  0  0  0  0
    4.6022   -3.4540    0.0000 S   0  0  0  0  0  0  0  0  0  0  0  0
    5.7597   -4.1022    0.0000 O   0  0  0  0  0  0  0  0  0  0  0  0
    3.9540   -4.6022    0.0000 O   0  0  0  0  0  0  0  0  0  0  0  0
    3.4540   -2.7965    0.0000 C   0  0  0  0  0  0  0  0  0  0  0  0
    2.3057   -3.4540    0.0000 C   0  0  0  0  0  0  0  0  0  0  0  0
    1.1482   -2.7965    0.0000 C   0  0  0  0  0  0  0  0  0  0  0  0
    1.1482   -1.4538    0.0000 C   0  0  0  0  0  0  0  0  0  0  0  0
    0.0000   -0.7964    0.0000 N   0  0  0  0  0  0  0  0  0  0  0  0
    2.3057   -0.7964    0.0000 C   0  0  0  0  0  0  0  0  0  0  0  0
    3.4540   -1.4538    0.0000 C   0  0  0  0  0  0  0  0  0  0  0  0
    9.2600   -4.6022    0.0000 C   0  0  0  0  0  0  0  0  0  0  0  0
  1  2  1  0  0  0  0
  2  3  2  0  0  0  0
  2  7  1  0  0  0  0
  3  4  1  0  0  0  0
  4  5  2  0  0  0  0
  4 19  1  0  0  0  0
  5  6  1  0  0  0  0
  6  7  2  0  0  0  0
  6  8  1  0  0  0  0
  8  9  1  0  0  0  0
  9 10  2  0  0  0  0
  9 11  2  0  0  0  0
  9 12  1  0  0  0  0
 12 13  2  0  0  0  0
 12 18  1  0  0  0  0
 13 14  1  0  0  0  0
 14 15  2  0  0  0  0
 15 16  1  0  0  0  0
 15 17  1  0  0  0  0
 17 18  2  0  0  0  0
M  END
> <ID>
11637

> <Formula>
C12H14N4O2S

> <FW>
278.3302

> <DSSTox_CID>
26390

> <DSSTox_RID>
81570

> <DSSTox_GSID>
46390

> <DSSTox_FileID_Sort>
6251

> <TS_ChemName>
Sulfisomidine

> <TS_ChemName_Synonyms>


> <TS_CASRN>
515-64-0

> <CASRN_ChemName_Relationship>
primary

> <TS_Description>
single chemical compound

> <ChemNote>


> <STRUCTURE_Shown>
tested chemical

> <STRUCTURE_Formula>
C12H14N4O2S

> <STRUCTURE_MW>
278.3302

> <STRUCTURE_ChemType>
defined organic

> <STRUCTURE_DefinedOrganicForm>
parent

> <STRUCTURE_IUPAC>
4-amino-N-(2,6-dimethylpyrimidin-4-yl)benzenesulfonamide

> <STRUCTURE_SMILES>
Cc2cc(NS(=O)(=O)c1ccc(N)cc1)nc(C)n2

> <STRUCTURE_SMILES_Desalt>
Cc2cc(NS(=O)(=O)c1ccc(N)cc1)nc(C)n2

> <Substance_modify_yyyymmdd>
20110814

$$$$
