515-74-2
ChemmineR-0915142007XD

 12 11  0  0  0  0  0  0  0  0  2 V2000
    1.9911   -2.2878    0.0000 C    0  0  0  0  0  0  0  0  0  0  0  0
    2.7031   -3.4218    0.0000 C    0  0  0  0  0  0  0  0  0  0  0  0
    1.9911   -4.5689    0.0000 C    0  0  0  0  0  0  0  0  0  0  0  0
    0.7120   -4.5689    0.0000 C    0  0  0  0  0  0  0  0  0  0  0  0
    0.0000   -3.4218    0.0000 C    0  0  0  0  0  0  0  0  0  0  0  0
    0.7120   -2.2878    0.0000 C    0  0  0  0  0  0  0  0  0  0  0  0
    2.6570   -1.1340    0.0000 S    0  0  0  0  0  0  0  0  0  0  0  0
    3.9360   -1.8460    0.0000 O    0  0  0  0  0  0  0  0  0  0  0  0
    3.2899    0.0000    0.0000 O    0  5  0  0  0  0  0  0  0  0  0  0
    1.5362   -0.4879    0.0000 O    0  0  0  0  0  0  0  0  0  0  0  0
    0.0659   -5.7029    0.0000 N    0  0  0  0  0  0  0  0  0  0  0  0
    6.5930   -2.8548    0.0000 Na   0  3  0  0  0  0  0  0  0  0  0  0
  1  2  2  0  0  0  0
  1  6  1  0  0  0  0
  1  7  1  0  0  0  0
  2  3  1  0  0  0  0
  3  4  2  0  0  0  0
  4  5  1  0  0  0  0
  4 11  1  0  0  0  0
  5  6  2  0  0  0  0
  7  8  2  0  0  0  0
  7  9  1  0  0  0  0
  7 10  2  0  0  0  0
M  END
> <ID>
5839

> <Formula>
C6H6NNaO3S

> <FW>
195.1715 (172.1823+22.9892)

> <DSSTox_CID>
9184

> <DSSTox_RID>
78699

> <DSSTox_GSID>
29184

> <DSSTox_FileID_Sort>
3381

> <TS_ChemName>
Sodium 4-aminobenzenesulfonate

> <TS_ChemName_Synonyms>
Sodium 4-aminobenzenesulfonate (Sulfanilic acid monosodium salt)

> <TS_CASRN>
515-74-2

> <CASRN_ChemName_Relationship>
primary

> <TS_Description>
single chemical compound

> <ChemNote>
parent [121-57-3]

> <STRUCTURE_Shown>
tested chemical

> <STRUCTURE_Formula>
C6H6NNaO3S

> <STRUCTURE_MW>
195.1715

> <STRUCTURE_ChemType>
defined organic

> <STRUCTURE_DefinedOrganicForm>
salt

> <STRUCTURE_IUPAC>
sodium 4-aminobenzenesulfonate

> <STRUCTURE_SMILES>
[Na+].Nc1ccc(cc1)S(=O)([O-])=O

> <STRUCTURE_SMILES_Desalt>
Nc1ccc(cc1)S(O)(=O)=O

> <Substance_modify_yyyymmdd>
20080429

$$$$
