5156-58-1
ChemmineR-0915142007XD

 25 26  0  0  0  0  0  0  0  0  1 V2000
    9.2248   -1.9759    0.0000 C    0  0  0  0  0  0  0  0  0  0  0  0
   10.3506   -2.6422    0.0000 C    0  0  0  0  0  0  0  0  0  0  0  0
   11.4879   -1.9759    0.0000 C    0  0  0  0  0  0  0  0  0  0  0  0
    9.2248   -0.6663    0.0000 O    0  0  0  0  0  0  0  0  0  0  0  0
    8.0875   -2.6422    0.0000 N    0  0  0  0  0  0  0  0  0  0  0  0
    4.5837   -0.6663    0.0000 N    0  0  0  0  0  0  0  0  0  0  0  0
    5.7784    0.0000    0.0000 C    0  0  0  0  0  0  0  0  0  0  0  0
    4.5837   -1.9759    0.0000 C    0  0  0  0  0  0  0  0  0  0  0  0
    6.9043   -0.6663    0.0000 C    0  0  0  0  0  0  0  0  0  0  0  0
    5.7784   -2.6422    0.0000 C    0  0  0  0  0  0  0  0  0  0  0  0
    6.9043   -1.9759    0.0000 C    0  0  0  0  0  0  0  0  0  0  0  0
    3.4464    0.0000    0.0000 C    0  0  0  0  0  0  0  0  0  0  0  0
    2.2746   -0.6663    0.0000 C    0  0  0  0  0  0  0  0  0  0  0  0
    1.1373    0.0000    0.0000 C    0  0  0  0  0  0  0  0  0  0  0  0
    2.3206   -1.9759    0.0000 C    0  0  0  0  0  0  0  0  0  0  0  0
    0.0000   -0.6663    0.0000 C    0  0  0  0  0  0  0  0  0  0  0  0
    1.1373   -2.6882    0.0000 C    0  0  0  0  0  0  0  0  0  0  0  0
    0.0000   -1.9759    0.0000 C    0  0  0  0  0  0  0  0  0  0  0  0
    6.9043   -5.9967    0.0000 C    0  0  0  0  0  0  0  0  0  0  0  0
    8.0875   -6.6630    0.0000 C    0  0  0  0  0  0  0  0  0  0  0  0
    9.2248   -5.9967    0.0000 C    0  0  0  0  0  0  0  0  0  0  0  0
    9.2248   -4.6871    0.0000 C    0  0  0  0  0  0  0  0  0  0  0  0
    8.0875   -3.9748    0.0000 C    0  0  0  0  0  0  0  0  0  0  0  0
    6.9043   -4.6871    0.0000 C    0  0  0  0  0  0  0  0  0  0  0  0
    5.9622   -7.5016    0.0000 Cl   0  0  0  0  0  0  0  0  0  0  0  0
  1  2  1  0  0  0  0
  1  5  1  0  0  0  0
  1  4  2  0  0  0  0
  2  3  1  0  0  0  0
  5 11  1  0  0  0  0
  5 23  1  0  0  0  0
  6  7  1  0  0  0  0
  6  8  1  0  0  0  0
  6 12  1  0  0  0  0
  7  9  1  0  0  0  0
  8 10  1  0  0  0  0
  9 11  1  0  0  0  0
 10 11  1  0  0  0  0
 12 13  1  0  0  0  0
 13 14  2  0  0  0  0
 13 15  1  0  0  0  0
 14 16  1  0  0  0  0
 15 17  2  0  0  0  0
 16 18  2  0  0  0  0
 17 18  1  0  0  0  0
 19 24  2  0  0  0  0
 19 20  1  0  0  0  0
 20 21  2  0  0  0  0
 21 22  1  0  0  0  0
 22 23  2  0  0  0  0
 23 24  1  0  0  0  0
M  END
> <ID>
13922

> <Formula>
C21H27ClN2O

> <FW>
358.9049 (322.4439+36.4609)

> <DSSTox_CID>
28859

> <DSSTox_RID>
83128

> <DSSTox_GSID>
48933

> <DSSTox_FileID_Sort>
7805

> <TS_ChemName>
N-(1-Benzyl-4-piperidyl)-N-phenylpropanamide hydrochloride

> <TS_ChemName_Synonyms>


> <TS_CASRN>
5156-58-1

> <CASRN_ChemName_Relationship>
primary

> <TS_Description>
single chemical compound

> <ChemNote>


> <STRUCTURE_Shown>
tested chemical

> <STRUCTURE_Formula>
C21H27ClN2O

> <STRUCTURE_MW>
358.9049

> <STRUCTURE_ChemType>
defined organic

> <STRUCTURE_DefinedOrganicForm>
complex

> <STRUCTURE_IUPAC>
N-(1-benzylpiperidin-4-yl)-N-phenylpropanamide hydrochloride (1:1)

> <STRUCTURE_SMILES>
Cl.CCC(=O)N(C2CCN(Cc1ccccc1)CC2)c3ccccc3

> <STRUCTURE_SMILES_Desalt>
CCC(=O)N(C2CCN(Cc1ccccc1)CC2)c3ccccc3

> <Substance_modify_yyyymmdd>
20111204

$$$$
