51580-86-0
ChemmineR-0915142007XD

 14 11  0  0  0  0  0  0  0  0  2 V2000
    0.0000   -2.5167    0.0000 O    0  0  0  0  0  0  0  0  0  0  0  0
    8.9246   -2.6238    0.0000 O    0  0  0  0  0  0  0  0  0  0  0  0
    3.7483   -1.2941    0.0000 N    0  0  0  0  0  0  0  0  0  0  0  0
    4.9442   -1.9545    0.0000 C    0  0  0  0  0  0  0  0  0  0  0  0
    4.8996   -3.3200    0.0000 N    0  0  0  0  0  0  0  0  0  0  0  0
    3.7483   -3.9804    0.0000 C    0  0  0  0  0  0  0  0  0  0  0  0
    2.5703   -3.3110    0.0000 N    0  0  0  0  0  0  0  0  0  0  0  0
    2.5881   -1.9634    0.0000 C    0  0  0  0  0  0  0  0  0  0  0  0
    6.1134   -1.2941    0.0000 O    0  0  0  0  0  0  0  0  0  0  0  0
    3.7483   -5.2744    0.0000 O    0  5  0  0  0  0  0  0  0  0  0  0
    1.4815   -1.2941    0.0000 O    0  0  0  0  0  0  0  0  0  0  0  0
    3.7483    0.0000    0.0000 Cl   0  0  0  0  0  0  0  0  0  0  0  0
    6.0241   -3.9804    0.0000 Cl   0  0  0  0  0  0  0  0  0  0  0  0
    4.8371   -5.2477    0.0000 Na   0  3  0  0  0  0  0  0  0  0  0  0
  3  4  1  0  0  0  0
  3  8  1  0  0  0  0
  3 12  1  0  0  0  0
  4  5  1  0  0  0  0
  4  9  2  0  0  0  0
  5  6  1  0  0  0  0
  5 13  1  0  0  0  0
  6  7  2  0  0  0  0
  6 10  1  0  0  0  0
  7  8  1  0  0  0  0
  8 11  2  0  0  0  0
M  END
> <ID>
6192

> <Formula>
C3H4Cl2N3NaO5

> <FW>
255.9767 (18.0153+18.0153+196.9569+22.9892)

> <DSSTox_CID>
9761

> <DSSTox_RID>
78820

> <DSSTox_GSID>
29761

> <DSSTox_FileID_Sort>
3502

> <TS_ChemName>
Sodium dichloro-s-triazinetrione dihydrate

> <TS_ChemName_Synonyms>


> <TS_CASRN>
51580-86-0

> <CASRN_ChemName_Relationship>
primary

> <TS_Description>
single chemical compound

> <ChemNote>
parent [2782-57-2]

> <STRUCTURE_Shown>
tested chemical

> <STRUCTURE_Formula>
C3H4Cl2N3NaO5

> <STRUCTURE_MW>
255.9767

> <STRUCTURE_ChemType>
defined organic

> <STRUCTURE_DefinedOrganicForm>
salt complex

> <STRUCTURE_IUPAC>
sodium 1,5-dichloro-4,6-dioxo-1,4,5,6-tetrahydro-1,3,5-triazin-2-olate hydrate (1:1:2)

> <STRUCTURE_SMILES>
[Na+].O.O.ClN1C([O-])=NC(=O)N(Cl)C1=O

> <STRUCTURE_SMILES_Desalt>
ClN1C(O)=NC(=O)N(Cl)C1=O

> <Substance_modify_yyyymmdd>
20080429

$$$$
