51596-11-3_1
ChemmineR-0915142007XD

 42 46  0  0  1  0  0  0  0  0  1 V2000
    3.3867   -1.9822    0.0000 C   0  0  0  0  0  0  0  0  0  0  0  0
    2.2540   -1.3026    0.0000 C   0  0  0  0  0  0  0  0  0  0  0  0
    2.2540   -3.9417    0.0000 C   0  0  0  0  0  0  0  0  0  0  0  0
    1.1327   -1.9822    0.0000 C   0  0  0  0  0  0  0  0  0  0  0  0
    1.1327   -3.2621    0.0000 C   0  0  0  0  0  0  0  0  0  0  0  0
    4.5194   -1.3026    0.0000 C   0  0  0  0  0  0  0  0  0  0  0  0
    5.6521   -1.9822    0.0000 C   0  0  0  0  0  0  0  0  0  0  0  0
    5.6521   -3.2848    0.0000 C   0  0  0  0  0  0  0  0  0  0  0  0
    6.7961   -1.3026    0.0000 O   0  0  0  0  0  0  0  0  0  0  0  0
    7.9175   -1.9822    0.0000 C   0  0  0  0  0  0  0  0  0  0  0  0
    6.7961   -3.9417    0.0000 C   0  0  0  0  0  0  0  0  0  0  0  0
    7.9175   -3.2848    0.0000 C   0  0  0  0  0  0  0  0  0  0  0  0
   10.1828   -0.6796    0.0000 C   0  0  0  0  0  0  0  0  0  0  0  0
   10.1828   -1.9822    0.0000 C   0  0  0  0  0  0  0  0  0  0  0  0
    9.0501    0.0000    0.0000 C   0  0  0  0  0  0  0  0  0  0  0  0
    9.0501   -2.6052    0.0000 O   0  0  0  0  0  0  0  0  0  0  0  0
    7.9175   -0.6796    0.0000 C   0  0  0  0  0  0  0  0  0  0  0  0
   11.3268   -2.6052    0.0000 C   0  0  0  0  0  0  0  0  0  0  0  0
    4.5194   -5.2443    0.0000 O   0  0  0  0  0  0  0  0  0  0  0  0
    6.7961   -5.2443    0.0000 O   0  0  0  0  0  0  0  0  0  0  0  0
    5.6521   -5.8673    0.0000 C   0  0  0  0  0  0  0  0  0  0  0  0
    3.4094   -5.8673    0.0000 C   0  0  0  0  0  0  0  0  0  0  0  0
    3.4094   -7.1699    0.0000 C   0  0  0  0  0  0  0  0  0  0  0  0
    5.6521   -7.1699    0.0000 C   0  0  0  0  0  0  0  0  0  0  0  0
    4.5194   -7.8495    0.0000 C   0  0  0  0  0  0  0  0  0  0  0  0
    2.2540   -5.2443    0.0000 C   0  0  0  0  0  0  0  0  0  0  0  0
    2.2540   -7.8495    0.0000 C   0  0  0  0  0  0  0  0  0  0  0  0
    2.2540   -9.1521    0.0000 O   0  0  0  0  0  0  0  0  0  0  0  0
    4.5194   -9.1521    0.0000 C   0  0  0  0  0  0  0  0  0  0  0  0
    6.7961   -7.8495    0.0000 C   0  0  0  0  0  0  0  0  0  0  0  0
    6.7961   -9.1521    0.0000 C   0  0  0  0  0  0  0  0  0  0  0  0
    5.6521   -9.8090    0.0000 C   0  0  0  0  0  0  0  0  0  0  0  0
    2.2540    0.0000    0.0000 C   0  0  0  0  0  0  0  0  0  0  0  0
    0.0000   -3.9417    0.0000 C   0  0  0  0  0  0  0  0  0  0  0  0
    4.5194   -6.5469    0.0000 O   0  0  0  0  0  0  0  0  0  0  0  0
    4.5194  -10.4660    0.0000 H   0  0  0  0  0  0  0  0  0  0  0  0
    6.7734   -6.5356    0.0000 H   0  0  0  0  0  0  0  0  0  0  0  0
    7.9175   -9.8090    0.0000 C   0  0  0  0  0  0  0  0  0  0  0  0
    5.6521  -11.1116    0.0000 O   0  0  0  0  0  0  0  0  0  0  0  0
    5.6521   -0.6796    0.0000 H   0  0  0  0  0  0  0  0  0  0  0  0
   11.3268    0.0000    0.0000 C   0  0  0  0  0  0  0  0  0  0  0  0
   11.3268   -3.9417    0.0000 C   0  0  0  0  0  0  0  0  0  0  0  0
  1  2  2  0  0  0  0
  1  6  1  0  0  0  0
  2  4  1  0  0  0  0
  2 33  1  0  0  0  0
  3  5  1  0  0  0  0
  3 26  2  0  0  0  0
  4  5  1  0  0  0  0
  5 34  1  6  0  0  0
  6  7  1  0  0  0  0
  7  9  1  0  0  0  0
  7  8  1  0  0  0  0
  7 40  1  6  0  0  0
  8 11  1  0  0  0  0
  9 10  1  0  0  0  0
 10 12  1  0  0  0  0
 10 16  1  6  0  0  0
 10 17  1  0  0  0  0
 11 12  1  0  0  0  0
 11 20  1  1  0  0  0
 13 14  1  0  0  0  0
 13 15  1  0  0  0  0
 13 41  1  6  0  0  0
 14 18  1  1  0  0  0
 14 16  1  0  0  0  0
 15 17  1  0  0  0  0
 18 42  1  0  0  0  0
 19 21  2  0  0  0  0
 20 21  1  0  0  0  0
 21 24  1  0  0  0  0
 22 23  2  0  0  0  0
 22 26  1  0  0  0  0
 23 27  1  0  0  0  0
 23 25  1  0  0  0  0
 24 30  1  0  0  0  0
 24 25  1  0  0  0  0
 24 37  1  1  0  0  0
 25 29  1  0  0  0  0
 25 35  1  6  0  0  0
 27 28  1  0  0  0  0
 28 29  1  0  0  0  0
 29 32  1  0  0  0  0
 29 36  1  6  0  0  0
 30 31  2  0  0  0  0
 31 32  1  0  0  0  0
 31 38  1  0  0  0  0
 32 39  1  1  0  0  0
M  END
> <ID>
6892

> <Formula>
C32H46O7

> <FW>
542.7034

> <DSSTox_CID>
14742

> <DSSTox_RID>
79198

> <DSSTox_GSID>
34742

> <DSSTox_FileID_Sort>
3880

> <TS_ChemName>
Milbemectin (mixture of >=70% Milbemcin A4, & <=30% Milbemycin A3)

> <TS_ChemName_Synonyms>


> <TS_CASRN>
51596-11-3_1

> <CASRN_ChemName_Relationship>
CAS for major component

> <TS_Description>
mixture or formulation

> <ChemNote>
mixture of milbemectrin A4 (6'-ethyl) [51596-11-3] and A3 (6'-methyl) [51596-10-2]; structure shown milbemectrin A4 (6'-ethyl) [51596-11-3]

> <STRUCTURE_Shown>
representative component

> <STRUCTURE_Formula>
C32H46O7

> <STRUCTURE_MW>
542.7034

> <STRUCTURE_ChemType>
defined organic

> <STRUCTURE_DefinedOrganicForm>
parent

> <STRUCTURE_IUPAC>
(2aE,4E,5'S,6R,6'R,8E,11R,13R,15S,17aR,20R,20aR,20bS)-6'-ethyl-20,20b-dihydroxy-5',6,8,19-tetramethyl-3',4',5',6,6',7,10,11,14,15,17a,20,20a,20b-tetradecahydro-2H,17H-spiro[11,15-methanofuro[4,3,2-pq][2,6]benzodioxacyclooctadecine-13,2'-pyran]-17-one

> <STRUCTURE_SMILES>
O[C@@H]3C(C)=C[C@H]5C(=O)O[C@H]1C[C@H](O[C@]2(C1)CC[C@H](C)[C@@H](CC)O2)CC=C(C)C[C@@H](C)C=CC=C4CO[C@H]3[C@@]45O

> <STRUCTURE_SMILES_Desalt>
O[C@@H]3C(C)=C[C@H]5C(=O)O[C@H]1C[C@H](O[C@]2(C1)CC[C@H](C)[C@@H](CC)O2)CC=C(C)C[C@@H](C)C=CC=C4CO[C@H]3[C@@]45O

> <Substance_modify_yyyymmdd>
20130909

$$$$
