516-92-7
ChemmineR-0915142007XD

 33 36  0  0  1  0  0  0  0  0  1 V2000
    6.7432   -1.2786    0.0000 C   0  0  0  0  0  0  0  0  0  0  0  0
    6.7163   -2.6919    0.0000 C   0  0  0  0  0  0  0  0  0  0  0  0
    6.7163   -4.0244    0.0000 C   0  0  0  0  0  0  0  0  0  0  0  0
    7.8334   -2.0189    0.0000 C   0  0  0  0  0  0  0  0  0  0  0  0
    5.5857   -2.0189    0.0000 C   0  0  0  0  0  0  0  0  0  0  0  0
    5.5857   -4.6704    0.0000 C   0  0  0  0  0  0  0  0  0  0  0  0
    8.9909   -4.0244    0.0000 C   0  0  0  0  0  0  0  0  0  0  0  0
    7.8065   -0.7403    0.0000 C   0  0  0  0  0  0  0  0  0  0  0  0
    8.9909   -2.6919    0.0000 C   0  0  0  0  0  0  0  0  0  0  0  0
    4.4685   -2.6919    0.0000 C   0  0  0  0  0  0  0  0  0  0  0  0
    4.4685   -4.0244    0.0000 C   0  0  0  0  0  0  0  0  0  0  0  0
    5.5857   -5.9894    0.0000 C   0  0  0  0  0  0  0  0  0  0  0  0
    8.9371   -0.0808    0.0000 C   0  0  0  0  0  0  0  0  0  0  0  0
    6.6893   -0.1077    0.0000 C   0  0  0  0  0  0  0  0  0  0  0  0
    3.3514   -4.6704    0.0000 C   0  0  0  0  0  0  0  0  0  0  0  0
    4.4685   -6.6355    0.0000 C   0  0  0  0  0  0  0  0  0  0  0  0
   10.0811   -0.6864    0.0000 C   0  0  0  0  0  0  0  0  0  0  0  0
    3.3514   -3.2033    0.0000 C   0  0  0  0  0  0  0  0  0  0  0  0
    3.3514   -5.9894    0.0000 C   0  0  0  0  0  0  0  0  0  0  0  0
    2.2208   -4.0244    0.0000 C   0  0  0  0  0  0  0  0  0  0  0  0
   11.1982   -0.0135    0.0000 C   0  0  0  0  0  0  0  0  0  0  0  0
    2.2208   -6.6355    0.0000 C   0  0  0  0  0  0  0  0  0  0  0  0
    1.1037   -4.6704    0.0000 C   0  0  0  0  0  0  0  0  0  0  0  0
   12.3423   -0.6595    0.0000 C   0  0  0  0  0  0  0  0  0  0  0  0
    1.1037   -5.9894    0.0000 C   0  0  0  0  0  0  0  0  0  0  0  0
   13.4594    0.0000    0.0000 C   0  0  0  0  0  0  0  0  0  0  0  0
   12.3558   -1.9651    0.0000 C   0  0  0  0  0  0  0  0  0  0  0  0
    0.0000   -6.6220    0.0000 O   0  0  0  0  0  0  0  0  0  0  0  0
    5.5857   -3.4052    0.0000 H   0  0  0  0  0  0  0  0  0  0  0  0
    4.4551   -5.2492    0.0000 H   0  0  0  0  0  0  0  0  0  0  0  0
    6.7163   -5.2492    0.0000 H   0  0  0  0  0  0  0  0  0  0  0  0
    3.3514   -7.2143    0.0000 H   0  0  0  0  0  0  0  0  0  0  0  0
    8.9371   -1.4132    0.0000 H   0  0  0  0  0  0  0  0  0  0  0  0
  2  1  1  1  0  0  0
  2  3  1  0  0  0  0
  2  4  1  0  0  0  0
  2  5  1  0  0  0  0
  3  6  1  0  0  0  0
  3  7  1  0  0  0  0
  3 31  1  6  0  0  0
  4  8  1  0  0  0  0
  4  9  1  0  0  0  0
  4 33  1  6  0  0  0
  5 10  1  0  0  0  0
  6 11  1  0  0  0  0
  6 12  1  0  0  0  0
  6 29  1  1  0  0  0
  7  9  1  0  0  0  0
  8 13  1  0  0  0  0
  8 14  1  6  0  0  0
 10 11  1  0  0  0  0
 11 15  1  0  0  0  0
 11 30  1  6  0  0  0
 12 16  1  0  0  0  0
 13 17  1  0  0  0  0
 15 18  1  1  0  0  0
 15 19  1  0  0  0  0
 15 20  1  0  0  0  0
 16 19  1  0  0  0  0
 17 21  1  0  0  0  0
 19 22  1  0  0  0  0
 19 32  1  1  0  0  0
 20 23  1  0  0  0  0
 21 24  1  0  0  0  0
 22 25  1  0  0  0  0
 23 25  1  0  0  0  0
 24 26  1  0  0  0  0
 24 27  1  0  0  0  0
 25 28  1  6  0  0  0
M  END
> <ID>
11898

> <Formula>
C27H48O

> <FW>
388.6694

> <DSSTox_CID>
26700

> <DSSTox_RID>
81834

> <DSSTox_GSID>
46700

> <DSSTox_FileID_Sort>
6515

> <TS_ChemName>
(3alpha,5beta)-Cholestan-3-ol

> <TS_ChemName_Synonyms>


> <TS_CASRN>
516-92-7

> <CASRN_ChemName_Relationship>
primary

> <TS_Description>
single chemical compound

> <ChemNote>
stereochem

> <STRUCTURE_Shown>
tested chemical

> <STRUCTURE_Formula>
C27H48O

> <STRUCTURE_MW>
388.6694

> <STRUCTURE_ChemType>
defined organic

> <STRUCTURE_DefinedOrganicForm>
parent

> <STRUCTURE_IUPAC>
(3alpha,5beta)-cholestan-3-ol

> <STRUCTURE_SMILES>
CC(C)CCC[C@@H](C)[C@H]4CC[C@@H]3[C@]4(C)CC[C@H]1[C@H]3CC[C@@H]2C[C@H](O)CC[C@]12C

> <STRUCTURE_SMILES_Desalt>
CC(C)CCC[C@@H](C)[C@H]4CC[C@@H]3[C@]4(C)CC[C@H]1[C@H]3CC[C@@H]2C[C@H](O)CC[C@]12C

> <Substance_modify_yyyymmdd>
20110805

$$$$
