51627-14-6
ChemmineR-0915142007XD

 33 36  0  0  1  0  0  0  0  0  1 V2000
    8.2645   -2.6558    0.0000 C   0  0  0  0  0  0  0  0  0  0  0  0
    9.5749   -3.9663    0.0000 N   0  0  0  0  0  0  0  0  0  0  0  0
    9.5749   -2.6558    0.0000 C   0  0  0  0  0  0  0  0  0  0  0  0
    8.2645   -3.9663    0.0000 C   0  0  0  0  0  0  0  0  0  0  0  0
   10.7281   -4.6477    0.0000 C   0  0  0  0  0  0  0  0  0  0  0  0
   11.8813   -3.9663    0.0000 C   0  0  0  0  0  0  0  0  0  0  0  0
   10.7281   -1.9919    0.0000 S   0  0  0  0  0  0  0  0  0  0  0  0
   11.8813   -2.6383    0.0000 C   0  0  0  0  0  0  0  0  0  0  0  0
    8.2645   -1.3279    0.0000 H   0  0  0  0  0  0  0  0  0  0  0  0
    9.5749   -1.3279    0.0000 H   0  0  0  0  0  0  0  0  0  0  0  0
    7.3210   -4.9098    0.0000 O   0  0  0  0  0  0  0  0  0  0  0  0
   13.0520   -4.6477    0.0000 C   0  0  0  0  0  0  0  0  0  0  0  0
   10.7281   -5.9756    0.0000 C   0  0  0  0  0  0  0  0  0  0  0  0
   11.8813   -6.6396    0.0000 O   0  0  0  0  0  0  0  0  0  0  0  0
    9.5924   -6.6396    0.0000 O   0  0  0  0  0  0  0  0  0  0  0  0
    6.9191   -2.6558    0.0000 N   0  0  0  0  0  0  0  0  0  0  0  0
    3.4770   -0.6465    0.0000 C   0  0  0  0  0  0  0  0  0  0  0  0
    3.4770   -1.9919    0.0000 C   0  0  0  0  0  0  0  0  0  0  0  0
    2.3064    0.0000    0.0000 C   0  0  0  0  0  0  0  0  0  0  0  0
    2.3064   -2.6558    0.0000 C   0  0  0  0  0  0  0  0  0  0  0  0
    1.1707   -0.6465    0.0000 C   0  0  0  0  0  0  0  0  0  0  0  0
    1.1707   -1.9919    0.0000 C   0  0  0  0  0  0  0  0  0  0  0  0
    5.7834   -0.6465    0.0000 O   0  0  0  0  0  0  0  0  0  0  0  0
    5.7834   -1.9919    0.0000 C   0  0  0  0  0  0  0  0  0  0  0  0
    4.6127   -2.6558    0.0000 C   0  0  0  0  0  0  0  0  0  0  0  0
    4.6127   -4.0012    0.0000 N   0  0  0  0  0  0  0  0  0  0  0  0
   14.1877   -3.9663    0.0000 S   0  0  0  0  0  0  0  0  0  0  0  0
   15.3059   -4.6652    0.0000 C   0  0  0  0  0  0  0  0  0  0  0  0
   16.4067   -3.8964    0.0000 C   0  0  0  0  0  0  0  0  0  0  0  0
   17.4725   -4.6652    0.0000 N   0  0  0  0  0  0  0  0  0  0  0  0
   15.7253   -5.9407    0.0000 N   0  0  0  0  0  0  0  0  0  0  0  0
   17.0532   -5.9407    0.0000 N   0  0  0  0  0  0  0  0  0  0  0  0
    0.0000    0.0000    0.0000 O   0  0  0  0  0  0  0  0  0  0  0  0
  1  3  1  0  0  0  0
  1  4  1  0  0  0  0
  1  9  1  6  0  0  0
  1 16  1  1  0  0  0
  2  4  1  0  0  0  0
  2  5  1  0  0  0  0
  2  3  1  0  0  0  0
  3  7  1  0  0  0  0
  3 10  1  6  0  0  0
  4 11  2  0  0  0  0
  5  6  2  0  0  0  0
  5 13  1  0  0  0  0
  6  8  1  0  0  0  0
  6 12  1  0  0  0  0
  7  8  1  0  0  0  0
 12 27  1  0  0  0  0
 13 14  2  0  0  0  0
 13 15  1  0  0  0  0
 16 24  1  0  0  0  0
 17 19  2  0  0  0  0
 17 18  1  0  0  0  0
 18 20  2  0  0  0  0
 18 25  1  0  0  0  0
 19 21  1  0  0  0  0
 20 22  1  0  0  0  0
 21 22  2  0  0  0  0
 21 33  1  0  0  0  0
 23 24  2  0  0  0  0
 24 25  1  0  0  0  0
 25 26  1  6  0  0  0
 27 28  1  0  0  0  0
 28 29  2  0  0  0  0
 28 31  1  0  0  0  0
 29 30  1  0  0  0  0
 30 32  1  0  0  0  0
 31 32  2  0  0  0  0
M  END
> <ID>
2491

> <Formula>
C18H18N6O5S2

> <FW>
462.5027

> <DSSTox_CID>
2752

> <DSSTox_RID>
76716

> <DSSTox_GSID>
22752

> <DSSTox_FileID_Sort>
1400

> <TS_ChemName>
Cefatrizine

> <TS_ChemName_Synonyms>


> <TS_CASRN>
51627-14-6

> <CASRN_ChemName_Relationship>
primary

> <TS_Description>
single chemical compound

> <ChemNote>
stereochem; tautomers

> <STRUCTURE_Shown>
tested chemical

> <STRUCTURE_Formula>
C18H18N6O5S2

> <STRUCTURE_MW>
462.5027

> <STRUCTURE_ChemType>
defined organic

> <STRUCTURE_DefinedOrganicForm>
parent

> <STRUCTURE_IUPAC>
(6R,7R)-7-{[(2R)-2-amino-2-(4-hydroxyphenyl)acetyl]amino}-8-oxo-3-[(1H-1,2,3-triazol-4-ylsulfanyl)methyl]-5-thia-1-azabicyclo[4.2.0]oct-2-ene-2-carboxylic acid

> <STRUCTURE_SMILES>
Oc1ccc(cc1)[C@@H](N)C(=O)N[C@@H]4C(=O)N3C(=C(CSc2cnnn2)CS[C@@H]34)C(=O)O

> <STRUCTURE_SMILES_Desalt>
Oc1ccc(cc1)[C@@H](N)C(=O)N[C@@H]4C(=O)N3C(=C(CSc2cnnn2)CS[C@@H]34)C(=O)O

> <Substance_modify_yyyymmdd>
20080429

$$$$
