51630-58-1
ChemmineR-0915142007XD

 30 32  0  0  0  0  0  0  0  0  1 V2000
    3.4569   -1.3252    0.0000 O    0  0  0  0  0  0  0  0  0  0  0  0
    3.4569   -2.6618    0.0000 C    0  0  0  0  0  0  0  0  0  0  0  0
    2.3046   -3.3186    0.0000 C    0  0  0  0  0  0  0  0  0  0  0  0
    2.3046   -4.6553    0.0000 C    0  0  0  0  0  0  0  0  0  0  0  0
    3.4569   -5.3237    0.0000 C    0  0  0  0  0  0  0  0  0  0  0  0
    3.4569   -6.6488    0.0000 C    0  0  0  0  0  0  0  0  0  0  0  0
    2.3046   -7.3171    0.0000 C    0  0  0  0  0  0  0  0  0  0  0  0
    1.1523   -6.6488    0.0000 C    0  0  0  0  0  0  0  0  0  0  0  0
    1.1523   -5.3237    0.0000 C    0  0  0  0  0  0  0  0  0  0  0  0
    2.3046   -8.6423    0.0000 Cl   0  0  0  0  0  0  0  0  0  0  0  0
    1.1523   -2.6618    0.0000 C    0  0  0  0  0  0  0  0  0  0  0  0
    0.0000   -3.3186    0.0000 C    0  0  0  0  0  0  0  0  0  0  0  0
    1.1523   -1.3252    0.0000 C    0  0  0  0  0  0  0  0  0  0  0  0
    4.6092   -3.3186    0.0000 O    0  0  0  0  0  0  0  0  0  0  0  0
    5.7615   -2.6618    0.0000 C    0  0  0  0  0  0  0  0  0  0  0  0
    6.9138   -3.3186    0.0000 C    0  0  0  0  0  0  0  0  0  0  0  0
    8.0661   -2.6618    0.0000 C    0  0  0  0  0  0  0  0  0  0  0  0
    9.2184   -3.3186    0.0000 C    0  0  0  0  0  0  0  0  0  0  0  0
    9.2184   -4.6553    0.0000 C    0  0  0  0  0  0  0  0  0  0  0  0
    8.0661   -5.3237    0.0000 C    0  0  0  0  0  0  0  0  0  0  0  0
    6.9138   -4.6553    0.0000 C    0  0  0  0  0  0  0  0  0  0  0  0
    8.0661   -6.6488    0.0000 O    0  0  0  0  0  0  0  0  0  0  0  0
    9.2184   -7.3171    0.0000 C    0  0  0  0  0  0  0  0  0  0  0  0
   10.3708   -6.6488    0.0000 C    0  0  0  0  0  0  0  0  0  0  0  0
   11.5231   -7.3171    0.0000 C    0  0  0  0  0  0  0  0  0  0  0  0
   11.5231   -8.6423    0.0000 C    0  0  0  0  0  0  0  0  0  0  0  0
   10.3708   -9.3106    0.0000 C    0  0  0  0  0  0  0  0  0  0  0  0
    9.2184   -8.6423    0.0000 C    0  0  0  0  0  0  0  0  0  0  0  0
    5.7615   -1.3252    0.0000 C    0  0  0  0  0  0  0  0  0  0  0  0
    5.7615    0.0000    0.0000 N    0  0  0  0  0  0  0  0  0  0  0  0
  1  2  2  0  0  0  0
  2  3  1  0  0  0  0
  2 14  1  0  0  0  0
  3  4  1  0  0  0  0
  3 11  1  0  0  0  0
  4  5  2  0  0  0  0
  4  9  1  0  0  0  0
  5  6  1  0  0  0  0
  6  7  2  0  0  0  0
  7  8  1  0  0  0  0
  7 10  1  0  0  0  0
  8  9  2  0  0  0  0
 11 12  1  0  0  0  0
 11 13  1  0  0  0  0
 14 15  1  0  0  0  0
 15 16  1  0  0  0  0
 15 29  1  0  0  0  0
 16 17  2  0  0  0  0
 16 21  1  0  0  0  0
 17 18  1  0  0  0  0
 18 19  2  0  0  0  0
 19 20  1  0  0  0  0
 20 21  2  0  0  0  0
 20 22  1  0  0  0  0
 22 23  1  0  0  0  0
 23 24  2  0  0  0  0
 23 28  1  0  0  0  0
 24 25  1  0  0  0  0
 25 26  2  0  0  0  0
 26 27  1  0  0  0  0
 27 28  2  0  0  0  0
 29 30  3  0  0  0  0
M  END
> <ID>
596

> <Formula>
C25H22ClNO3

> <FW>
419.9001

> <DSSTox_CID>
621

> <DSSTox_RID>
75696

> <DSSTox_GSID>
20621

> <DSSTox_FileID_Sort>
380

> <TS_ChemName>
Fenvalerate

> <TS_ChemName_Synonyms>
Fenvalerate (Cyano(3-phenoxyphenyl)methyl ester, 4-chloro-alpha-(1-methylethyl)benzeneacetic acid) (Pydrin)

> <TS_CASRN>
51630-58-1

> <CASRN_ChemName_Relationship>
primary

> <TS_Description>
single chemical compound

> <ChemNote>


> <STRUCTURE_Shown>
tested chemical

> <STRUCTURE_Formula>
C25H22ClNO3

> <STRUCTURE_MW>
419.9001

> <STRUCTURE_ChemType>
defined organic

> <STRUCTURE_DefinedOrganicForm>
parent

> <STRUCTURE_IUPAC>
cyano(3-phenoxyphenyl)methyl 2-(4-chlorophenyl)-3-methylbutanoate

> <STRUCTURE_SMILES>
Clc1ccc(cc1)C(C(C)C)C(=O)OC(C#N)c3cccc(Oc2ccccc2)c3

> <STRUCTURE_SMILES_Desalt>
Clc1ccc(cc1)C(C(C)C)C(=O)OC(C#N)c3cccc(Oc2ccccc2)c3

> <Substance_modify_yyyymmdd>
20080429

$$$$
