51632-16-7
ChemmineR-0915142007XD

 15 16  0  0  0  0  0  0  0  0  1 V2000
    6.9178   -1.9857    0.0000 C    0  0  0  0  0  0  0  0  0  0  0  0
    6.9178   -3.3176    0.0000 C    0  0  0  0  0  0  0  0  0  0  0  0
    5.7635   -3.9957    0.0000 C    0  0  0  0  0  0  0  0  0  0  0  0
    4.6092   -3.3176    0.0000 C    0  0  0  0  0  0  0  0  0  0  0  0
    4.6092   -1.9857    0.0000 C    0  0  0  0  0  0  0  0  0  0  0  0
    5.7635   -1.3319    0.0000 C    0  0  0  0  0  0  0  0  0  0  0  0
    8.0721   -1.3319    0.0000 C    0  0  0  0  0  0  0  0  0  0  0  0
    8.0721    0.0000    0.0000 Br   0  0  0  0  0  0  0  0  0  0  0  0
    3.4468   -1.3319    0.0000 O    0  0  0  0  0  0  0  0  0  0  0  0
    2.2925   -1.9857    0.0000 C    0  0  0  0  0  0  0  0  0  0  0  0
    2.2925   -3.3176    0.0000 C    0  0  0  0  0  0  0  0  0  0  0  0
    1.1543   -1.3319    0.0000 C    0  0  0  0  0  0  0  0  0  0  0  0
    1.1543   -3.9957    0.0000 C    0  0  0  0  0  0  0  0  0  0  0  0
    0.0000   -1.9857    0.0000 C    0  0  0  0  0  0  0  0  0  0  0  0
    0.0000   -3.3176    0.0000 C    0  0  0  0  0  0  0  0  0  0  0  0
  1  2  2  0  0  0  0
  1  6  1  0  0  0  0
  1  7  1  0  0  0  0
  2  3  1  0  0  0  0
  3  4  2  0  0  0  0
  4  5  1  0  0  0  0
  5  6  2  0  0  0  0
  5  9  1  0  0  0  0
  7  8  1  0  0  0  0
  9 10  1  0  0  0  0
 10 11  2  0  0  0  0
 10 12  1  0  0  0  0
 11 13  1  0  0  0  0
 12 14  2  0  0  0  0
 13 15  2  0  0  0  0
 14 15  1  0  0  0  0
M  END
> <ID>
5595

> <Formula>
C13H11BrO

> <FW>
263.1298

> <DSSTox_CID>
8022

> <DSSTox_RID>
78642

> <DSSTox_GSID>
28022

> <DSSTox_FileID_Sort>
3324

> <TS_ChemName>
1-(Bromomethyl)-3-phenoxybenzene

> <TS_ChemName_Synonyms>


> <TS_CASRN>
51632-16-7

> <CASRN_ChemName_Relationship>
primary

> <TS_Description>
single chemical compound

> <ChemNote>


> <STRUCTURE_Shown>
tested chemical

> <STRUCTURE_Formula>
C13H11BrO

> <STRUCTURE_MW>
263.1298

> <STRUCTURE_ChemType>
defined organic

> <STRUCTURE_DefinedOrganicForm>
parent

> <STRUCTURE_IUPAC>
1-(bromomethyl)-3-phenoxybenzene

> <STRUCTURE_SMILES>
BrCc2cc(Oc1ccccc1)ccc2

> <STRUCTURE_SMILES_Desalt>
BrCc2cc(Oc1ccccc1)ccc2

> <Substance_modify_yyyymmdd>
20080429

$$$$
