516474-01-4
ChemmineR-0915142007XD

 14 13  0  0  0  0  0  0  0  0  2 V2000
    3.1968   -5.1018    0.0000 C   0  0  0  0  0  0  0  0  0  0  0  0
    3.4911    0.0000    0.0000 C   0  0  0  0  0  0  0  0  0  0  0  0
    2.0440   -4.4477    0.0000 C   0  0  0  0  0  0  0  0  0  0  0  0
    1.3736   -1.0710    0.0000 C   0  0  0  0  0  0  0  0  0  0  0  0
    0.9729   -2.3547    0.0000 C   0  0  0  0  0  0  0  0  0  0  0  0
    3.1232   -2.3383    0.0000 C   0  0  0  0  0  0  0  0  0  0  0  0
    2.7062   -1.0710    0.0000 N   0  3  0  0  0  0  0  0  0  0  0  0
    2.0440   -3.1232    0.0000 N   0  0  0  0  0  0  0  0  0  0  0  0
    0.1880   -8.1759    0.0000 C   0  0  0  0  0  0  0  0  0  0  0  0
    2.6735   -6.1728    0.0000 O   0  5  0  0  0  0  0  0  0  0  0  0
    0.0000   -6.1728    0.0000 O   0  0  0  0  0  0  0  0  0  0  0  0
    1.3245   -4.8647    0.0000 O   0  0  0  0  0  0  0  0  0  0  0  0
    1.3409   -7.5055    0.0000 O   0  0  0  0  0  0  0  0  0  0  0  0
    1.3245   -6.1728    0.0000 S   0  0  0  0  0  0  0  0  0  0  0  0
  1  3  1  0  0  0  0
  2  7  1  0  0  0  0
  3  8  1  0  0  0  0
  4  5  2  0  0  0  0
  4  7  1  0  0  0  0
  5  8  1  0  0  0  0
  6  7  2  0  0  0  0
  6  8  1  0  0  0  0
  9 13  1  0  0  0  0
 10 14  1  0  0  0  0
 11 14  2  0  0  0  0
 12 14  2  0  0  0  0
 13 14  1  0  0  0  0
M  END
> <ID>
14174

> <Formula>
C7H14N2O4S

> <FW>
222.2621 (111.1644+111.0977)

> <DSSTox_CID>
29266

> <DSSTox_RID>
83385

> <DSSTox_GSID>
49310

> <DSSTox_FileID_Sort>
8060

> <TS_ChemName>
1-Ethyl-3-methylimidazolium methyl sulfate

> <TS_ChemName_Synonyms>


> <TS_CASRN>
516474-01-4

> <CASRN_ChemName_Relationship>
primary

> <TS_Description>
single chemical compound

> <ChemNote>


> <STRUCTURE_Shown>
tested chemical

> <STRUCTURE_Formula>
C7H14N2O4S

> <STRUCTURE_MW>
222.2621

> <STRUCTURE_ChemType>
defined organic

> <STRUCTURE_DefinedOrganicForm>
complex

> <STRUCTURE_IUPAC>
1-ethyl-3-methyl-1H-imidazol-3-ium methyl sulfate

> <STRUCTURE_SMILES>
C[n+]1ccn(CC)c1.[O-]S(=O)(=O)OC

> <STRUCTURE_SMILES_Desalt>
C[n+]1ccn(CC)c1

> <Substance_modify_yyyymmdd>
20111204

$$$$
