5165-97-9
ChemmineR-0915142007XD

 14 12  0  0  0  0  0  0  0  0  2 V2000
    4.8721   -1.0311    0.0000 C    0  0  0  0  0  0  0  0  0  0  0  0
    3.8961   -1.9284    0.0000 C    0  0  0  0  0  0  0  0  0  0  0  0
    4.7934   -2.9044    0.0000 C    0  0  0  0  0  0  0  0  0  0  0  0
    6.1393   -1.4325    0.0000 S    0  0  0  0  0  0  0  0  0  0  0  0
    5.7379   -2.6997    0.0000 O    0  0  0  0  0  0  0  0  0  0  0  0
    6.5250   -0.1495    0.0000 O    0  5  0  0  0  0  0  0  0  0  0  0
    7.4065   -1.8103    0.0000 O    0  0  0  0  0  0  0  0  0  0  0  0
    2.9201   -2.8257    0.0000 C    0  0  0  0  0  0  0  0  0  0  0  0
    2.9831   -0.9524    0.0000 N    0  0  0  0  0  0  0  0  0  0  0  0
    1.6844   -1.2357    0.0000 C    0  0  0  0  0  0  0  0  0  0  0  0
    1.2987   -2.5187    0.0000 C    0  0  0  0  0  0  0  0  0  0  0  0
    0.0000   -2.8099    0.0000 C    0  0  0  0  0  0  0  0  0  0  0  0
    0.7871   -0.2597    0.0000 O    0  0  0  0  0  0  0  0  0  0  0  0
    7.8709    0.0000    0.0000 Na   0  3  0  0  0  0  0  0  0  0  0  0
  1  2  1  0  0  0  0
  1  4  1  0  0  0  0
  2  3  1  0  0  0  0
  2  8  1  0  0  0  0
  2  9  1  0  0  0  0
  4  5  2  0  0  0  0
  4  6  1  0  0  0  0
  4  7  2  0  0  0  0
  9 10  1  0  0  0  0
 10 11  1  0  0  0  0
 10 13  2  0  0  0  0
 11 12  2  0  0  0  0
M  END
> <ID>
5274

> <Formula>
C7H12NNaO4S

> <FW>
229.2292 (206.2400+22.9892)

> <DSSTox_CID>
7591

> <DSSTox_RID>
78518

> <DSSTox_GSID>
27591

> <DSSTox_FileID_Sort>
3201

> <TS_ChemName>
2-Acrylamido-2-methylpropanesulphonate sodium salt

> <TS_ChemName_Synonyms>
1-Propanesulfonic acid, 2-methyl-2-[(1-oxo-2-propenyl)amino]-, monosodium salt

> <TS_CASRN>
5165-97-9

> <CASRN_ChemName_Relationship>
primary

> <TS_Description>
single chemical compound

> <ChemNote>


> <STRUCTURE_Shown>
tested chemical

> <STRUCTURE_Formula>
C7H12NNaO4S

> <STRUCTURE_MW>
229.2292

> <STRUCTURE_ChemType>
defined organic

> <STRUCTURE_DefinedOrganicForm>
salt

> <STRUCTURE_IUPAC>
sodium 2-(acryloylamino)-2-methylpropane-1-sulfonate

> <STRUCTURE_SMILES>
[Na+].[O-]S(=O)(=O)CC(C)(C)NC(=O)C=C

> <STRUCTURE_SMILES_Desalt>
O=C(NC(C)(C)CS(=O)(=O)O)C=C

> <Substance_modify_yyyymmdd>
20080429

$$$$
