517-28-2
ChemmineR-0915142007XD

 23 26  0  0  1  0  0  0  0  0  1 V2000
    5.2178   -5.4270    0.0000 O   0  0  0  0  0  0  0  0  0  0  0  0
    5.2975   -4.3615    0.0000 C   0  0  0  0  0  0  0  0  0  0  0  0
    5.2975   -3.0172    0.0000 C   0  0  0  0  0  0  0  0  0  0  0  0
    4.0130   -2.5990    0.0000 C   0  0  0  0  0  0  0  0  0  0  0  0
    3.4653   -1.3742    0.0000 C   0  0  0  0  0  0  0  0  0  0  0  0
    2.1309   -1.2248    0.0000 C   0  0  0  0  0  0  0  0  0  0  0  0
    1.3343   -2.3201    0.0000 C   0  0  0  0  0  0  0  0  0  0  0  0
    1.8820   -3.5449    0.0000 C   0  0  0  0  0  0  0  0  0  0  0  0
    3.2263   -3.6844    0.0000 C   0  0  0  0  0  0  0  0  0  0  0  0
    4.0130   -4.7797    0.0000 C   0  0  0  0  0  0  0  0  0  0  0  0
    0.0000   -2.1807    0.0000 O   0  0  0  0  0  0  0  0  0  0  0  0
    1.5833    0.0000    0.0000 O   0  0  0  0  0  0  0  0  0  0  0  0
    6.4626   -2.3401    0.0000 C   0  0  0  0  0  0  0  0  0  0  0  0
    7.6276   -3.0172    0.0000 C   0  0  0  0  0  0  0  0  0  0  0  0
    8.7927   -2.3401    0.0000 C   0  0  0  0  0  0  0  0  0  0  0  0
    8.7927   -0.9958    0.0000 C   0  0  0  0  0  0  0  0  0  0  0  0
    7.6276   -0.3286    0.0000 C   0  0  0  0  0  0  0  0  0  0  0  0
    6.4626   -0.9958    0.0000 C   0  0  0  0  0  0  0  0  0  0  0  0
    9.9577   -0.3286    0.0000 O   0  0  0  0  0  0  0  0  0  0  0  0
    9.9577   -3.0172    0.0000 O   0  0  0  0  0  0  0  0  0  0  0  0
    7.6276   -4.3615    0.0000 O   0  0  0  0  0  0  0  0  0  0  0  0
    6.4626   -5.0386    0.0000 C   0  0  0  0  0  0  0  0  0  0  0  0
    5.3373   -1.8023    0.0000 H   0  0  0  0  0  0  0  0  0  0  0  0
  2  1  1  6  0  0  0
  2  3  1  0  0  0  0
  2 10  1  0  0  0  0
  2 22  1  0  0  0  0
  3  4  1  0  0  0  0
  3 13  1  0  0  0  0
  3 23  1  6  0  0  0
  4  5  2  0  0  0  0
  4  9  1  0  0  0  0
  5  6  1  0  0  0  0
  6  7  2  0  0  0  0
  6 12  1  0  0  0  0
  7  8  1  0  0  0  0
  7 11  1  0  0  0  0
  8  9  2  0  0  0  0
  9 10  1  0  0  0  0
 13 14  2  0  0  0  0
 13 18  1  0  0  0  0
 14 15  1  0  0  0  0
 14 21  1  0  0  0  0
 15 16  2  0  0  0  0
 15 20  1  0  0  0  0
 16 17  1  0  0  0  0
 16 19  1  0  0  0  0
 17 18  2  0  0  0  0
 21 22  1  0  0  0  0
M  END
> <ID>
649

> <Formula>
C16H14O6

> <FW>
302.2788

> <DSSTox_CID>
678

> <DSSTox_RID>
75726

> <DSSTox_GSID>
20678

> <DSSTox_FileID_Sort>
410

> <TS_ChemName>
Hematoxylin

> <TS_ChemName_Synonyms>


> <TS_CASRN>
517-28-2

> <CASRN_ChemName_Relationship>
primary

> <TS_Description>
single chemical compound

> <ChemNote>
stereochem; C.I. 75290

> <STRUCTURE_Shown>
tested chemical

> <STRUCTURE_Formula>
C16H14O6

> <STRUCTURE_MW>
302.2788

> <STRUCTURE_ChemType>
defined organic

> <STRUCTURE_DefinedOrganicForm>
parent

> <STRUCTURE_IUPAC>
(6aR,11bS)-7,11b-dihydroindeno[2,1-c]chromene-3,4,6a,9,10(6H)-pentol

> <STRUCTURE_SMILES>
Oc2cc3C[C@]4(O)COc1c(O)c(O)ccc1[C@@H]4c3cc2O

> <STRUCTURE_SMILES_Desalt>
Oc2cc3C[C@]4(O)COc1c(O)c(O)ccc1[C@@H]4c3cc2O

> <Substance_modify_yyyymmdd>
20080429

$$$$
