51707-55-2
ChemmineR-0915142007XD

 15 16  0  0  0  0  0  0  0  0  1 V2000
    6.7593   -1.2363    0.0000 S   0  0  0  0  0  0  0  0  0  0  0  0
    8.0277   -1.6376    0.0000 N   0  0  0  0  0  0  0  0  0  0  0  0
    8.0277   -2.9622    0.0000 N   0  0  0  0  0  0  0  0  0  0  0  0
    6.7593   -3.3797    0.0000 C   0  0  0  0  0  0  0  0  0  0  0  0
    5.9806   -2.3120    0.0000 C   0  0  0  0  0  0  0  0  0  0  0  0
    4.6480   -2.3120    0.0000 N   0  0  0  0  0  0  0  0  0  0  0  0
    3.9898   -1.1560    0.0000 C   0  0  0  0  0  0  0  0  0  0  0  0
    4.6480    0.0000    0.0000 O   0  0  0  0  0  0  0  0  0  0  0  0
    2.6572   -1.1560    0.0000 N   0  0  0  0  0  0  0  0  0  0  0  0
    1.9909   -2.3120    0.0000 C   0  0  0  0  0  0  0  0  0  0  0  0
    2.6572   -3.4599    0.0000 C   0  0  0  0  0  0  0  0  0  0  0  0
    0.6583   -2.3120    0.0000 C   0  0  0  0  0  0  0  0  0  0  0  0
    1.9909   -4.6159    0.0000 C   0  0  0  0  0  0  0  0  0  0  0  0
    0.0000   -3.4599    0.0000 C   0  0  0  0  0  0  0  0  0  0  0  0
    0.6583   -4.6159    0.0000 C   0  0  0  0  0  0  0  0  0  0  0  0
  1  2  1  0  0  0  0
  1  5  1  0  0  0  0
  2  3  2  0  0  0  0
  3  4  1  0  0  0  0
  4  5  2  0  0  0  0
  5  6  1  0  0  0  0
  6  7  1  0  0  0  0
  7  8  2  0  0  0  0
  7  9  1  0  0  0  0
  9 10  1  0  0  0  0
 10 11  2  0  0  0  0
 10 12  1  0  0  0  0
 11 13  1  0  0  0  0
 12 14  2  0  0  0  0
 13 15  2  0  0  0  0
 14 15  1  0  0  0  0
M  END
> <ID>
6565

> <Formula>
C9H8N4OS

> <FW>
220.251

> <DSSTox_CID>
12651

> <DSSTox_RID>
79026

> <DSSTox_GSID>
32651

> <DSSTox_FileID_Sort>
3708

> <TS_ChemName>
Thidiazuron

> <TS_ChemName_Synonyms>


> <TS_CASRN>
51707-55-2

> <CASRN_ChemName_Relationship>
primary

> <TS_Description>
single chemical compound

> <ChemNote>


> <STRUCTURE_Shown>
tested chemical

> <STRUCTURE_Formula>
C9H8N4OS

> <STRUCTURE_MW>
220.251

> <STRUCTURE_ChemType>
defined organic

> <STRUCTURE_DefinedOrganicForm>
parent

> <STRUCTURE_IUPAC>
1-phenyl-3-(1,2,3-thiadiazol-5-yl)urea

> <STRUCTURE_SMILES>
O=C(Nc1ccccc1)Nc2cnns2

> <STRUCTURE_SMILES_Desalt>
O=C(Nc1ccccc1)Nc2cnns2

> <Substance_modify_yyyymmdd>
20080429

$$$$
