5174-32-3
ChemmineR-0915142007XD

 15 15  0  0  0  0  0  0  0  0  2 V2000
    6.9104   -3.9873    0.0000 Cl   0  0  0  0  0  0  0  0  0  0  0  0
    5.7564   -4.6576    0.0000 C    0  0  0  0  0  0  0  0  0  0  0  0
    4.6093   -3.9873    0.0000 C    0  0  0  0  0  0  0  0  0  0  0  0
    4.6093   -2.6605    0.0000 C    0  0  0  0  0  0  0  0  0  0  0  0
    3.4552   -4.6576    0.0000 C    0  0  0  0  0  0  0  0  0  0  0  0
    3.4552   -2.0040    0.0000 C    0  0  0  0  0  0  0  0  0  0  0  0
    2.3012   -3.9873    0.0000 C    0  0  0  0  0  0  0  0  0  0  0  0
    2.3012   -2.6605    0.0000 C    0  0  0  0  0  0  0  0  0  0  0  0
    5.7564   -0.6703    0.0000 C    0  0  0  0  0  0  0  0  0  0  0  0
    6.9104    0.0000    0.0000 O    0  0  0  0  0  0  0  0  0  0  0  0
    5.7564   -2.0040    0.0000 O    0  0  0  0  0  0  0  0  0  0  0  0
    4.6093    0.0000    0.0000 C    0  0  0  0  0  0  0  0  0  0  0  0
    1.1540   -4.6576    0.0000 N    0  3  0  0  0  0  0  0  0  0  0  0
    1.1540   -5.9844    0.0000 O    0  5  0  0  0  0  0  0  0  0  0  0
    0.0000   -3.9873    0.0000 O    0  0  0  0  0  0  0  0  0  0  0  0
  1  2  1  0  0  0  0
  2  3  1  0  0  0  0
  3  4  2  0  0  0  0
  3  5  1  0  0  0  0
  4  6  1  0  0  0  0
  4 11  1  0  0  0  0
  5  7  2  0  0  0  0
  6  8  2  0  0  0  0
  7  8  1  0  0  0  0
  7 13  1  0  0  0  0
  9 10  2  0  0  0  0
  9 11  1  0  0  0  0
  9 12  1  0  0  0  0
 13 14  1  0  0  0  0
 13 15  2  0  0  0  0
M  END
> <ID>
12565

> <Formula>
C9H8ClNO4

> <FW>
229.6171

> <DSSTox_CID>
27423

> <DSSTox_RID>
82336

> <DSSTox_GSID>
47423

> <DSSTox_FileID_Sort>
7017

> <TS_ChemName>
2-Acetoxy-5-nitrobenzyl chloride

> <TS_ChemName_Synonyms>


> <TS_CASRN>
5174-32-3

> <CASRN_ChemName_Relationship>
primary

> <TS_Description>
single chemical compound

> <ChemNote>


> <STRUCTURE_Shown>
tested chemical

> <STRUCTURE_Formula>
C9H8ClNO4

> <STRUCTURE_MW>
229.6171

> <STRUCTURE_ChemType>
defined organic

> <STRUCTURE_DefinedOrganicForm>
parent

> <STRUCTURE_IUPAC>
2-(chloromethyl)-4-nitrophenyl acetate

> <STRUCTURE_SMILES>
O=C(C)Oc1ccc(cc1CCl)[N+]([O-])=O

> <STRUCTURE_SMILES_Desalt>
O=C(C)Oc1ccc(cc1CCl)[N+]([O-])=O

> <Substance_modify_yyyymmdd>
20100619

$$$$
