51762-05-1
ChemmineR-0915142007XD

 27 29  0  0  1  0  0  0  0  0  1 V2000
    8.3200   -3.3853    0.0000 N   0  0  0  0  0  0  0  0  0  0  0  0
    6.7705   -3.3853    0.0000 C   0  0  0  0  0  0  0  0  0  0  0  0
    6.7705   -1.9530    0.0000 C   0  0  0  0  0  0  0  0  0  0  0  0
    8.3200   -1.9530    0.0000 C   0  0  0  0  0  0  0  0  0  0  0  0
    9.4657   -4.0884    0.0000 C   0  0  0  0  0  0  0  0  0  0  0  0
    5.6508   -1.2760    0.0000 N   0  0  0  0  0  0  0  0  0  0  0  0
    9.4657   -1.2630    0.0000 S   0  0  0  0  0  0  0  0  0  0  0  0
    4.5050   -1.9530    0.0000 C   0  0  0  0  0  0  0  0  0  0  0  0
   10.6766   -3.3853    0.0000 C   0  0  0  0  0  0  0  0  0  0  0  0
    9.4657   -5.4034    0.0000 C   0  0  0  0  0  0  0  0  0  0  0  0
    3.3983   -1.2760    0.0000 C   0  0  0  0  0  0  0  0  0  0  0  0
    2.2525   -1.9530    0.0000 C   0  0  0  0  0  0  0  0  0  0  0  0
   10.6766   -1.9530    0.0000 C   0  0  0  0  0  0  0  0  0  0  0  0
    5.9503   -4.3357    0.0000 O   0  0  0  0  0  0  0  0  0  0  0  0
    4.5050   -3.2551    0.0000 O   0  0  0  0  0  0  0  0  0  0  0  0
   10.5985   -6.0805    0.0000 O   0  0  0  0  0  0  0  0  0  0  0  0
    1.1328   -1.2760    0.0000 C   0  0  0  0  0  0  0  0  0  0  0  0
    1.1328   -3.9061    0.0000 C   0  0  0  0  0  0  0  0  0  0  0  0
    0.0000   -3.2551    0.0000 C   0  0  0  0  0  0  0  0  0  0  0  0
   11.8484   -3.9972    0.0000 O   0  0  0  0  0  0  0  0  0  0  0  0
    3.3983    0.0000    0.0000 N   0  0  0  0  0  0  0  0  0  0  0  0
    8.3590   -6.0805    0.0000 O   0  0  0  0  0  0  0  0  0  0  0  0
    2.2525   -3.2551    0.0000 C   0  0  0  0  0  0  0  0  0  0  0  0
    0.0000   -1.9530    0.0000 C   0  0  0  0  0  0  0  0  0  0  0  0
   13.0203   -3.3332    0.0000 C   0  0  0  0  0  0  0  0  0  0  0  0
    8.3200   -0.9505    0.0000 H   0  0  0  0  0  0  0  0  0  0  0  0
    6.8226   -0.7942    0.0000 H   0  0  0  0  0  0  0  0  0  0  0  0
  1  2  1  0  0  0  0
  1  4  1  0  0  0  0
  1  5  1  0  0  0  0
  2 14  2  0  0  0  0
  2  3  1  0  0  0  0
  3  4  1  0  0  0  0
  3  6  1  1  0  0  0
  3 27  1  6  0  0  0
  4  7  1  0  0  0  0
  4 26  1  6  0  0  0
  5  9  2  0  0  0  0
  5 10  1  0  0  0  0
  6  8  1  0  0  0  0
  7 13  1  0  0  0  0
  8 11  1  0  0  0  0
  8 15  2  0  0  0  0
  9 13  1  0  0  0  0
  9 20  1  0  0  0  0
 10 16  2  0  0  0  0
 10 22  1  0  0  0  0
 11 12  1  0  0  0  0
 11 21  1  1  0  0  0
 12 17  2  0  0  0  0
 12 23  1  0  0  0  0
 17 24  1  0  0  0  0
 18 23  1  0  0  0  0
 18 19  2  0  0  0  0
 19 24  1  0  0  0  0
 20 25  1  0  0  0  0
M  END
> <ID>
2507

> <Formula>
C16H19N3O5S

> <FW>
365.4042

> <DSSTox_CID>
2768

> <DSSTox_RID>
76723

> <DSSTox_GSID>
22768

> <DSSTox_FileID_Sort>
1407

> <TS_ChemName>
Cefroxadine

> <TS_ChemName_Synonyms>


> <TS_CASRN>
51762-05-1

> <CASRN_ChemName_Relationship>
primary

> <TS_Description>
single chemical compound

> <ChemNote>
stereochem

> <STRUCTURE_Shown>
tested chemical

> <STRUCTURE_Formula>
C16H19N3O5S

> <STRUCTURE_MW>
365.4042

> <STRUCTURE_ChemType>
defined organic

> <STRUCTURE_DefinedOrganicForm>
parent

> <STRUCTURE_IUPAC>
(6R,7R)-7-{[(2R)-2-amino-2-(cyclohexa-1,4-dien-1-yl)acetyl]amino}-3-methoxy-8-oxo-5-thia-1-azabicyclo[4.2.0]oct-2-ene-2-carboxylic acid

> <STRUCTURE_SMILES>
N[C@H](C1=CCC=CC1)C(=O)N[C@@H]3C(=O)N2C(=C(OC)CS[C@@H]23)C(=O)O

> <STRUCTURE_SMILES_Desalt>
N[C@H](C1=CCC=CC1)C(=O)N[C@@H]3C(=O)N2C(=C(OC)CS[C@@H]23)C(=O)O

> <Substance_modify_yyyymmdd>
20080429

$$$$
