51773-92-3
ChemmineR-0915142007XD

 28 29  0  0  1  0  0  0  0  0  1 V2000
    2.4879   -3.3235    0.0000 C    0  0  0  0  0  0  0  0  0  0  0  0
    3.6484   -2.6643    0.0000 N    0  0  0  0  0  0  0  0  0  0  0  0
    1.3461   -2.6643    0.0000 C    0  0  0  0  0  0  0  0  0  0  0  0
    3.6484   -5.3194    0.0000 C    0  0  0  0  0  0  0  0  0  0  0  0
    1.3461   -1.3461    0.0000 C    0  0  0  0  0  0  0  0  0  0  0  0
    4.7995   -3.3235    0.0000 C    0  0  0  0  0  0  0  0  0  0  0  0
    5.9599   -2.6643    0.0000 C    0  0  0  0  0  0  0  0  0  0  0  0
    2.4879   -4.6603    0.0000 C    0  0  0  0  0  0  0  0  0  0  0  0
    4.7995   -4.6603    0.0000 C    0  0  0  0  0  0  0  0  0  0  0  0
    3.6484   -6.6376    0.0000 C    0  0  0  0  0  0  0  0  0  0  0  0
    4.7995   -8.6243    0.0000 N    0  0  0  0  0  0  0  0  0  0  0  0
    4.7995   -7.2875    0.0000 C    0  0  0  0  0  0  0  0  0  0  0  0
    0.0000   -1.3461    0.0000 F    0  0  0  0  0  0  0  0  0  0  0  0
    1.3461    0.0000    0.0000 F    0  0  0  0  0  0  0  0  0  0  0  0
    2.6643   -1.3461    0.0000 F    0  0  0  0  0  0  0  0  0  0  0  0
    6.6191   -3.8248    0.0000 F    0  0  0  0  0  0  0  0  0  0  0  0
    5.3194   -1.5132    0.0000 F    0  0  0  0  0  0  0  0  0  0  0  0
    7.1296   -2.0052    0.0000 F    0  0  0  0  0  0  0  0  0  0  0  0
    0.1764   -3.3420    0.0000 C    0  0  0  0  0  0  0  0  0  0  0  0
    2.4694   -7.3060    0.0000 O    0  0  0  0  0  0  0  0  0  0  0  0
    1.3461   -5.3194    0.0000 C    0  0  0  0  0  0  0  0  0  0  0  0
    5.9228   -9.2834    0.0000 C    0  0  0  0  0  0  0  0  0  0  0  0
    0.1764   -4.6603    0.0000 C    0  0  0  0  0  0  0  0  0  0  0  0
    5.9228   -6.6376    0.0000 C    0  0  0  0  0  0  0  0  0  0  0  0
    7.1018   -8.6243    0.0000 C    0  0  0  0  0  0  0  0  0  0  0  0
    7.1018   -7.3060    0.0000 C    0  0  0  0  0  0  0  0  0  0  0  0
    5.4586   -6.1549    0.0000 H    0  0  0  0  0  0  0  0  0  0  0  0
    7.4731   -4.9295    0.0000 Cl   0  0  0  0  0  0  0  0  0  0  0  0
  1  2  1  0  0  0  0
  1  3  1  0  0  0  0
  1  8  2  0  0  0  0
  2  6  2  0  0  0  0
  3  5  1  0  0  0  0
  3 19  2  0  0  0  0
  4  8  1  0  0  0  0
  4  9  2  0  0  0  0
  4 10  1  0  0  0  0
  5 13  1  0  0  0  0
  5 14  1  0  0  0  0
  5 15  1  0  0  0  0
  6  7  1  0  0  0  0
  6  9  1  0  0  0  0
  7 16  1  0  0  0  0
  7 17  1  0  0  0  0
  7 18  1  0  0  0  0
  8 21  1  0  0  0  0
 10 12  1  0  0  0  0
 10 20  1  1  0  0  0
 11 12  1  0  0  0  0
 11 22  1  0  0  0  0
 12 24  1  0  0  0  0
 12 27  1  6  0  0  0
 19 23  1  0  0  0  0
 21 23  2  0  0  0  0
 22 25  1  0  0  0  0
 24 26  1  0  0  0  0
 25 26  1  0  0  0  0
M  END
> <ID>
12907

> <Formula>
C17H17ClF6N2O

> <FW>
414.7731 (378.3122+36.4609)

> <DSSTox_CID>
27796

> <DSSTox_RID>
82568

> <DSSTox_GSID>
47819

> <DSSTox_FileID_Sort>
7246

> <TS_ChemName>
Mefloquine hydrochloride

> <TS_ChemName_Synonyms>


> <TS_CASRN>
51773-92-3

> <CASRN_ChemName_Relationship>
primary

> <TS_Description>
single chemical compound

> <ChemNote>
stereochem; parent [53230-10-7]

> <STRUCTURE_Shown>
tested chemical

> <STRUCTURE_Formula>
C17H17ClF6N2O

> <STRUCTURE_MW>
414.7731

> <STRUCTURE_ChemType>
defined organic

> <STRUCTURE_DefinedOrganicForm>
complex

> <STRUCTURE_IUPAC>
(S)-[2,8-bis(trifluoromethyl)quinolin-4-yl][(2R)-piperidin-2-yl]methanol hydrochloride (1:1)

> <STRUCTURE_SMILES>
Cl.O[C@@H](c2cc(nc1c2cccc1C(F)(F)F)C(F)(F)F)[C@H]3CCCCN3

> <STRUCTURE_SMILES_Desalt>
O[C@@H](c2cc(nc1c2cccc1C(F)(F)F)C(F)(F)F)[C@H]3CCCCN3

> <Substance_modify_yyyymmdd>
20120530

$$$$
