51781-21-6
ChemmineR-0915142007XD

 22 22  0  0  0  0  0  0  0  0  1 V2000
    9.2154   -0.0115    0.0000 N    0  0  0  0  0  0  0  0  0  0  0  0
    8.0419   -2.0134    0.0000 C    0  0  0  0  0  0  0  0  0  0  0  0
    8.0419   -0.6903    0.0000 C    0  0  0  0  0  0  0  0  0  0  0  0
   10.3429   -0.6903    0.0000 C    0  0  0  0  0  0  0  0  0  0  0  0
    9.2154   -2.6576    0.0000 C    0  0  0  0  0  0  0  0  0  0  0  0
    6.9029   -2.6576    0.0000 C    0  0  0  0  0  0  0  0  0  0  0  0
    6.9029   -3.9807    0.0000 O    0  0  0  0  0  0  0  0  0  0  0  0
    2.2895   -3.9807    0.0000 N    0  0  0  0  0  0  0  0  0  0  0  0
   11.5049    0.0000    0.0000 O    0  0  0  0  0  0  0  0  0  0  0  0
    1.1620   -4.6595    0.0000 C    0  0  0  0  0  0  0  0  0  0  0  0
   10.3429   -2.0134    0.0000 C    0  0  0  0  0  0  0  0  0  0  0  0
    4.6020   -3.9807    0.0000 C    0  0  0  0  0  0  0  0  0  0  0  0
    5.7640   -4.6595    0.0000 C    0  0  0  0  0  0  0  0  0  0  0  0
    3.4630   -4.6595    0.0000 C    0  0  0  0  0  0  0  0  0  0  0  0
    4.6020   -2.6576    0.0000 O    0  0  0  0  0  0  0  0  0  0  0  0
    6.9029   -0.0115    0.0000 C    0  0  0  0  0  0  0  0  0  0  0  0
    5.7640   -0.6903    0.0000 C    0  0  0  0  0  0  0  0  0  0  0  0
    5.7640   -2.0134    0.0000 C    0  0  0  0  0  0  0  0  0  0  0  0
    0.0000   -5.3038    0.0000 C    0  0  0  0  0  0  0  0  0  0  0  0
    0.4832   -3.4860    0.0000 C    0  0  0  0  0  0  0  0  0  0  0  0
    1.8523   -5.8330    0.0000 C    0  0  0  0  0  0  0  0  0  0  0  0
    9.3075   -3.9577    0.0000 Cl   0  0  0  0  0  0  0  0  0  0  0  0
  1  3  1  0  0  0  0
  1  4  1  0  0  0  0
  2  3  2  0  0  0  0
  2  6  1  0  0  0  0
  2  5  1  0  0  0  0
  3 16  1  0  0  0  0
  4  9  2  0  0  0  0
  4 11  1  0  0  0  0
  5 11  1  0  0  0  0
  6  7  1  0  0  0  0
  6 18  2  0  0  0  0
  7 13  1  0  0  0  0
  8 14  1  0  0  0  0
  8 10  1  0  0  0  0
 10 19  1  0  0  0  0
 10 20  1  0  0  0  0
 10 21  1  0  0  0  0
 12 13  1  0  0  0  0
 12 14  1  0  0  0  0
 12 15  1  0  0  0  0
 16 17  2  0  0  0  0
 17 18  1  0  0  0  0
M  END
> <ID>
10972

> <Formula>
C16H25ClN2O3

> <FW>
328.8343 (292.3734+36.4609)

> <DSSTox_CID>
25478

> <DSSTox_RID>
80904

> <DSSTox_GSID>
45478

> <DSSTox_FileID_Sort>
5585

> <TS_ChemName>
Carteolol hydrochloride

> <TS_ChemName_Synonyms>


> <TS_CASRN>
51781-21-6

> <CASRN_ChemName_Relationship>
primary

> <TS_Description>
single chemical compound

> <ChemNote>
parent [51781-06-7]

> <STRUCTURE_Shown>
tested chemical

> <STRUCTURE_Formula>
C16H25ClN2O3

> <STRUCTURE_MW>
328.8343

> <STRUCTURE_ChemType>
defined organic

> <STRUCTURE_DefinedOrganicForm>
complex

> <STRUCTURE_IUPAC>
5-[3-(tert-butylamino)-2-hydroxypropoxy]-3,4-dihydroquinolin-2(1H)-one hydrochloride (1:1)

> <STRUCTURE_SMILES>
Cl.CC(C)(C)NCC(O)COc1cccc2NC(=O)CCc12

> <STRUCTURE_SMILES_Desalt>
CC(C)(C)NCC(O)COc1cccc2NC(=O)CCc12

> <Substance_modify_yyyymmdd>
20100107

$$$$
