518-47-8
ChemmineR-0915142007XD

 27 29  0  0  0  0  0  0  0  0  2 V2000
    9.2163   -5.7786    0.0000 O    0  5  0  0  0  0  0  0  0  0  0  0
    8.0642   -5.1150    0.0000 C    0  0  0  0  0  0  0  0  0  0  0  0
    6.9122   -5.7786    0.0000 C    0  0  0  0  0  0  0  0  0  0  0  0
    5.7602   -5.1150    0.0000 C    0  0  0  0  0  0  0  0  0  0  0  0
    5.7602   -3.7879    0.0000 C    0  0  0  0  0  0  0  0  0  0  0  0
    6.9122   -3.1243    0.0000 C    0  0  0  0  0  0  0  0  0  0  0  0
    8.0642   -3.7879    0.0000 C    0  0  0  0  0  0  0  0  0  0  0  0
    4.6081   -3.1243    0.0000 C    0  0  0  0  0  0  0  0  0  0  0  0
    3.5298   -2.3409    0.0000 C    0  0  0  0  0  0  0  0  0  0  0  0
    2.2303   -2.6174    0.0000 C    0  0  0  0  0  0  0  0  0  0  0  0
    1.3364   -1.6221    0.0000 C    0  0  0  0  0  0  0  0  0  0  0  0
    1.7511   -0.3594    0.0000 C    0  0  0  0  0  0  0  0  0  0  0  0
    3.0506   -0.0829    0.0000 C    0  0  0  0  0  0  0  0  0  0  0  0
    3.9446   -1.0691    0.0000 C    0  0  0  0  0  0  0  0  0  0  0  0
    5.2717   -1.0691    0.0000 C    0  0  0  0  0  0  0  0  0  0  0  0
    5.6864   -2.3409    0.0000 O    0  0  0  0  0  0  0  0  0  0  0  0
    6.0551    0.0000    0.0000 O    0  0  0  0  0  0  0  0  0  0  0  0
    3.4561   -3.7879    0.0000 C    0  0  0  0  0  0  0  0  0  0  0  0
    3.4561   -5.1150    0.0000 C    0  0  0  0  0  0  0  0  0  0  0  0
    2.3041   -5.7786    0.0000 C    0  0  0  0  0  0  0  0  0  0  0  0
    1.1520   -5.1150    0.0000 C    0  0  0  0  0  0  0  0  0  0  0  0
    0.0000   -5.7786    0.0000 O    0  5  0  0  0  0  0  0  0  0  0  0
    1.1520   -3.7879    0.0000 C    0  0  0  0  0  0  0  0  0  0  0  0
    2.3041   -3.1243    0.0000 C    0  0  0  0  0  0  0  0  0  0  0  0
    4.6081   -5.7786    0.0000 O    0  0  0  0  0  0  0  0  0  0  0  0
    9.1149   -7.0320    0.0000 Na   0  3  0  0  0  0  0  0  0  0  0  0
    0.4055   -7.1426    0.0000 Na   0  3  0  0  0  0  0  0  0  0  0  0
  1  2  1  0  0  0  0
  2  3  2  0  0  0  0
  2  7  1  0  0  0  0
  3  4  1  0  0  0  0
  4  5  2  0  0  0  0
  4 25  1  0  0  0  0
  5  6  1  0  0  0  0
  5  8  1  0  0  0  0
  6  7  2  0  0  0  0
  8  9  1  0  0  0  0
  8 16  1  0  0  0  0
  8 18  1  0  0  0  0
  9 10  1  0  0  0  0
  9 14  2  0  0  0  0
 10 11  2  0  0  0  0
 11 12  1  0  0  0  0
 12 13  2  0  0  0  0
 13 14  1  0  0  0  0
 14 15  1  0  0  0  0
 15 16  1  0  0  0  0
 15 17  2  0  0  0  0
 18 19  2  0  0  0  0
 18 24  1  0  0  0  0
 19 20  1  0  0  0  0
 19 25  1  0  0  0  0
 20 21  2  0  0  0  0
 21 22  1  0  0  0  0
 21 23  1  0  0  0  0
 23 24  2  0  0  0  0
M  END
> <ID>
4145

> <Formula>
C20H10Na2O5

> <FW>
376.2699 (330.2915+22.9892+22.9892)

> <DSSTox_CID>
5328

> <DSSTox_RID>
77750

> <DSSTox_GSID>
25328

> <DSSTox_FileID_Sort>
2433

> <TS_ChemName>
Fluorescein sodium

> <TS_ChemName_Synonyms>
Fluorescein sodium (C.I. Acid yellow 73) (Spiro(isobenzofuran-1(3H),9'-(9H)xanthen)-3-one, 3',6'-dihydroxy-, disodium salt)

> <TS_CASRN>
518-47-8

> <CASRN_ChemName_Relationship>
primary

> <TS_Description>
single chemical compound

> <ChemNote>
C.I. 5350; parent [2321-07-5]

> <STRUCTURE_Shown>
tested chemical

> <STRUCTURE_Formula>
C20H10Na2O5

> <STRUCTURE_MW>
376.2699

> <STRUCTURE_ChemType>
defined organic

> <STRUCTURE_DefinedOrganicForm>
salt

> <STRUCTURE_IUPAC>
disodium 3-oxo-3H-spiro[2-benzofuran-1,9'-xanthene]-3',6'-diolate

> <STRUCTURE_SMILES>
[Na+].[Na+].[O-]c4cc5Oc1cc([O-])ccc1C3(OC(=O)c2ccccc23)c5cc4

> <STRUCTURE_SMILES_Desalt>
Oc4cc5Oc1cc(O)ccc1C3(OC(=O)c2ccccc23)c5cc4

> <Substance_modify_yyyymmdd>
20080429

$$$$
