518-28-5
ChemmineR-0915142007XD

 30 34  0  0  1  0  0  0  0  0  1 V2000
    9.3070   -3.1921    0.0000 C   0  0  0  0  0  0  0  0  0  0  0  0
    7.9803   -3.1921    0.0000 O   0  0  0  0  0  0  0  0  0  0  0  0
    7.3120   -4.3493    0.0000 C   0  0  0  0  0  0  0  0  0  0  0  0
    7.9803   -5.4964    0.0000 C   0  0  0  0  0  0  0  0  0  0  0  0
    9.3070   -5.4964    0.0000 O   0  0  0  0  0  0  0  0  0  0  0  0
    9.9754   -6.6536    0.0000 C   0  0  0  0  0  0  0  0  0  0  0  0
    7.3120   -6.6536    0.0000 C   0  0  0  0  0  0  0  0  0  0  0  0
    5.9852   -6.6536    0.0000 C   0  0  0  0  0  0  0  0  0  0  0  0
    5.3169   -5.4964    0.0000 C   0  0  0  0  0  0  0  0  0  0  0  0
    5.9852   -4.3493    0.0000 C   0  0  0  0  0  0  0  0  0  0  0  0
    3.9902   -5.4964    0.0000 C   0  0  0  0  0  0  0  0  0  0  0  0
    3.3218   -6.6536    0.0000 C   0  0  0  0  0  0  0  0  0  0  0  0
    1.9951   -6.6536    0.0000 C   0  0  0  0  0  0  0  0  0  0  0  0
    1.5861   -7.9205    0.0000 C   0  0  0  0  0  0  0  0  0  0  0  0
    2.6634   -8.6985    0.0000 O   0  0  0  0  0  0  0  0  0  0  0  0
    3.7408   -7.9205    0.0000 C   0  0  0  0  0  0  0  0  0  0  0  0
    4.9977   -8.3294    0.0000 O   0  0  0  0  0  0  0  0  0  0  0  0
    1.3267   -5.4964    0.0000 C   0  0  0  0  0  0  0  0  0  0  0  0
    0.0000   -5.4964    0.0000 O   0  0  0  0  0  0  0  0  0  0  0  0
    1.9951   -4.3493    0.0000 C   0  0  0  0  0  0  0  0  0  0  0  0
    1.3267   -3.1921    0.0000 C   0  0  0  0  0  0  0  0  0  0  0  0
    1.9951   -2.0450    0.0000 C   0  0  0  0  0  0  0  0  0  0  0  0
    3.3218   -2.0450    0.0000 C   0  0  0  0  0  0  0  0  0  0  0  0
    3.7408   -0.7781    0.0000 O   0  0  0  0  0  0  0  0  0  0  0  0
    2.6634    0.0000    0.0000 C   0  0  0  0  0  0  0  0  0  0  0  0
    1.5861   -0.7781    0.0000 O   0  0  0  0  0  0  0  0  0  0  0  0
    3.9902   -3.1921    0.0000 C   0  0  0  0  0  0  0  0  0  0  0  0
    3.3218   -4.3493    0.0000 C   0  0  0  0  0  0  0  0  0  0  0  0
    7.9803   -7.8008    0.0000 O   0  0  0  0  0  0  0  0  0  0  0  0
    9.3070   -7.8008    0.0000 C   0  0  0  0  0  0  0  0  0  0  0  0
  1  2  1  0  0  0  0
  2  3  1  0  0  0  0
  3  4  2  0  0  0  0
  3 10  1  0  0  0  0
  4  5  1  0  0  0  0
  4  7  1  0  0  0  0
  5  6  1  0  0  0  0
  7  8  2  0  0  0  0
  7 29  1  0  0  0  0
  8  9  1  0  0  0  0
  9 10  2  0  0  0  0
 11  9  1  1  0  0  0
 11 12  1  0  0  0  0
 11 28  1  0  0  0  0
 12 13  1  0  0  0  0
 12 16  1  1  0  0  0
 13 14  1  6  0  0  0
 13 18  1  0  0  0  0
 14 15  1  0  0  0  0
 15 16  1  0  0  0  0
 16 17  2  0  0  0  0
 18 19  1  1  0  0  0
 18 20  1  0  0  0  0
 20 21  2  0  0  0  0
 20 28  1  0  0  0  0
 21 22  1  0  0  0  0
 22 23  2  0  0  0  0
 22 26  1  0  0  0  0
 23 24  1  0  0  0  0
 23 27  1  0  0  0  0
 24 25  1  0  0  0  0
 25 26  1  0  0  0  0
 27 28  2  0  0  0  0
 29 30  1  0  0  0  0
M  END
> <ID>
11091

> <Formula>
C22H22O8

> <FW>
414.4053

> <DSSTox_CID>
25645

> <DSSTox_RID>
81023

> <DSSTox_GSID>
45645

> <DSSTox_FileID_Sort>
5704

> <TS_ChemName>
Podofilox

> <TS_ChemName_Synonyms>


> <TS_CASRN>
518-28-5

> <CASRN_ChemName_Relationship>
primary

> <TS_Description>
single chemical compound

> <ChemNote>
stereochem

> <STRUCTURE_Shown>
tested chemical

> <STRUCTURE_Formula>
C22H22O8

> <STRUCTURE_MW>
414.4053

> <STRUCTURE_ChemType>
defined organic

> <STRUCTURE_DefinedOrganicForm>
parent

> <STRUCTURE_IUPAC>
(5R,5aR,8aR,9R)-9-hydroxy-5-(3,4,5-trimethoxyphenyl)-5,8,8a,9-tetrahydrofuro[3',4':6,7]naphtho[2,3-d][1,3]dioxol-6(5aH)-one

> <STRUCTURE_SMILES>
COc1cc(cc(OC)c1OC)[C@H]3[C@H]2C(=O)OC[C@@H]2[C@@H](O)c4cc5OCOc5cc34

> <STRUCTURE_SMILES_Desalt>
COc1cc(cc(OC)c1OC)[C@H]3[C@H]2C(=O)OC[C@@H]2[C@@H](O)c4cc5OCOc5cc34

> <Substance_modify_yyyymmdd>
20100107

$$$$
