518-82-1
ChemmineR-0915142007XD

 20 22  0  0  0  0  0  0  0  0  1 V2000
    4.6071    0.0000    0.0000 O   0  0  0  0  0  0  0  0  0  0  0  0
    4.6071   -1.3268    0.0000 C   0  0  0  0  0  0  0  0  0  0  0  0
    5.7588   -1.9903    0.0000 C   0  0  0  0  0  0  0  0  0  0  0  0
    6.9106   -1.3268    0.0000 C   0  0  0  0  0  0  0  0  0  0  0  0
    6.9106    0.0000    0.0000 O   0  0  0  0  0  0  0  0  0  0  0  0
    8.0624   -1.9903    0.0000 C   0  0  0  0  0  0  0  0  0  0  0  0
    8.0624   -3.3171    0.0000 C   0  0  0  0  0  0  0  0  0  0  0  0
    9.2141   -3.9897    0.0000 C   0  0  0  0  0  0  0  0  0  0  0  0
    6.9106   -3.9897    0.0000 C   0  0  0  0  0  0  0  0  0  0  0  0
    5.7588   -3.3171    0.0000 C   0  0  0  0  0  0  0  0  0  0  0  0
    4.6071   -3.9897    0.0000 C   0  0  0  0  0  0  0  0  0  0  0  0
    4.6071   -5.3166    0.0000 O   0  0  0  0  0  0  0  0  0  0  0  0
    3.4553   -3.3171    0.0000 C   0  0  0  0  0  0  0  0  0  0  0  0
    2.3035   -3.9897    0.0000 C   0  0  0  0  0  0  0  0  0  0  0  0
    1.1518   -3.3171    0.0000 C   0  0  0  0  0  0  0  0  0  0  0  0
    0.0000   -3.9897    0.0000 O   0  0  0  0  0  0  0  0  0  0  0  0
    1.1518   -1.9903    0.0000 C   0  0  0  0  0  0  0  0  0  0  0  0
    2.3035   -1.3268    0.0000 C   0  0  0  0  0  0  0  0  0  0  0  0
    2.3035    0.0000    0.0000 O   0  0  0  0  0  0  0  0  0  0  0  0
    3.4553   -1.9903    0.0000 C   0  0  0  0  0  0  0  0  0  0  0  0
  1  2  2  0  0  0  0
  2  3  1  0  0  0  0
  2 20  1  0  0  0  0
  3  4  2  0  0  0  0
  3 10  1  0  0  0  0
  4  5  1  0  0  0  0
  4  6  1  0  0  0  0
  6  7  2  0  0  0  0
  7  8  1  0  0  0  0
  7  9  1  0  0  0  0
  9 10  2  0  0  0  0
 10 11  1  0  0  0  0
 11 12  2  0  0  0  0
 11 13  1  0  0  0  0
 13 14  2  0  0  0  0
 13 20  1  0  0  0  0
 14 15  1  0  0  0  0
 15 16  1  0  0  0  0
 15 17  2  0  0  0  0
 17 18  1  0  0  0  0
 18 19  1  0  0  0  0
 18 20  2  0  0  0  0
M  END
> <ID>
4093

> <Formula>
C15H10O5

> <FW>
270.2369

> <DSSTox_CID>
5231

> <DSSTox_RID>
77709

> <DSSTox_GSID>
25231

> <DSSTox_FileID_Sort>
2392

> <TS_ChemName>
Emodin

> <TS_ChemName_Synonyms>


> <TS_CASRN>
518-82-1

> <CASRN_ChemName_Relationship>
primary

> <TS_Description>
single chemical compound

> <ChemNote>


> <STRUCTURE_Shown>
tested chemical

> <STRUCTURE_Formula>
C15H10O5

> <STRUCTURE_MW>
270.2369

> <STRUCTURE_ChemType>
defined organic

> <STRUCTURE_DefinedOrganicForm>
parent

> <STRUCTURE_IUPAC>
1,3,8-trihydroxy-6-methylanthracene-9,10-dione

> <STRUCTURE_SMILES>
Cc3cc2C(=O)c1cc(O)cc(O)c1C(=O)c2c(O)c3

> <STRUCTURE_SMILES_Desalt>
Cc3cc2C(=O)c1cc(O)cc(O)c1C(=O)c2c(O)c3

> <Substance_modify_yyyymmdd>
20080429

$$$$
