518048-05-0
ChemmineR-0915142007XD

 32 34  0  0  0  0  0  0  0  0  1 V2000
    6.4315   -1.1025    0.0000 C   0  0  0  0  0  0  0  0  0  0  0  0
   11.3745   -5.4392    0.0000 O   0  0  0  0  0  0  0  0  0  0  0  0
   11.3194   -4.1529    0.0000 C   0  0  0  0  0  0  0  0  0  0  0  0
   11.2642   -1.5252    0.0000 O   0  0  0  0  0  0  0  0  0  0  0  0
    9.0224    0.0000    0.0000 O   0  0  0  0  0  0  0  0  0  0  0  0
    7.1849   -4.7960    0.0000 C   0  0  0  0  0  0  0  0  0  0  0  0
    5.6046   -4.7960    0.0000 C   0  0  0  0  0  0  0  0  0  0  0  0
    7.8096   -3.4546    0.0000 C   0  0  0  0  0  0  0  0  0  0  0  0
    6.6152   -4.0610    0.0000 C   0  0  0  0  0  0  0  0  0  0  0  0
    4.0426   -4.9798    0.0000 O   0  0  0  0  0  0  0  0  0  0  0  0
    5.2370   -3.2341    0.0000 N   0  0  0  0  0  0  0  0  0  0  0  0
    4.0794   -4.0059    0.0000 C   0  0  0  0  0  0  0  0  0  0  0  0
    2.3521   -4.0794    0.0000 O   0  0  0  0  0  0  0  0  0  0  0  0
    3.1606   -3.0136    0.0000 C   0  0  0  0  0  0  0  0  0  0  0  0
    2.3521   -1.9111    0.0000 N   0  0  0  0  0  0  0  0  0  0  0  0
    1.1209   -2.3337    0.0000 N   0  0  0  0  0  0  0  0  0  0  0  0
    1.1209   -3.6751    0.0000 C   0  0  0  0  0  0  0  0  0  0  0  0
    0.0000   -4.4285    0.0000 C   0  0  0  0  0  0  0  0  0  0  0  0
   10.1617   -2.1132    0.0000 C   0  0  0  0  0  0  0  0  0  0  0  0
   10.1617   -3.4546    0.0000 C   0  0  0  0  0  0  0  0  0  0  0  0
    8.9857   -1.4517    0.0000 C   0  0  0  0  0  0  0  0  0  0  0  0
    8.9857   -4.1345    0.0000 N   0  0  0  0  0  0  0  0  0  0  0  0
    7.8096   -2.1132    0.0000 N   0  0  0  0  0  0  0  0  0  0  0  0
   12.6240   -3.7854    0.0000 N   0  0  0  0  0  0  0  0  0  0  0  0
   13.7633   -4.4101    0.0000 C   0  0  0  0  0  0  0  0  0  0  0  0
   14.9577   -3.7670    0.0000 C   0  0  0  0  0  0  0  0  0  0  0  0
   14.9026   -2.4623    0.0000 C   0  0  0  0  0  0  0  0  0  0  0  0
   16.0970   -4.4101    0.0000 C   0  0  0  0  0  0  0  0  0  0  0  0
   16.0786   -1.8192    0.0000 C   0  0  0  0  0  0  0  0  0  0  0  0
   17.2179   -3.7854    0.0000 C   0  0  0  0  0  0  0  0  0  0  0  0
   17.2179   -2.4623    0.0000 C   0  0  0  0  0  0  0  0  0  0  0  0
   18.3756   -1.7641    0.0000 F   0  0  0  0  0  0  0  0  0  0  0  0
  1 23  1  0  0  0  0
  2  3  2  0  0  0  0
  3 20  1  0  0  0  0
  3 24  1  0  0  0  0
  4 19  1  0  0  0  0
  5 21  2  0  0  0  0
  6  9  1  0  0  0  0
  7  9  1  0  0  0  0
  8  9  1  0  0  0  0
  8 22  2  0  0  0  0
  8 23  1  0  0  0  0
  9 11  1  0  0  0  0
 10 12  2  0  0  0  0
 11 12  1  0  0  0  0
 12 14  1  0  0  0  0
 13 14  1  0  0  0  0
 13 17  1  0  0  0  0
 14 15  2  0  0  0  0
 15 16  1  0  0  0  0
 16 17  2  0  0  0  0
 17 18  1  0  0  0  0
 19 20  2  0  0  0  0
 19 21  1  0  0  0  0
 20 22  1  0  0  0  0
 21 23  1  0  0  0  0
 24 25  1  0  0  0  0
 25 26  1  0  0  0  0
 26 27  1  0  0  0  0
 26 28  2  0  0  0  0
 27 29  2  0  0  0  0
 28 30  1  0  0  0  0
 29 31  1  0  0  0  0
 30 31  2  0  0  0  0
 31 32  1  0  0  0  0
M  END
> <ID>
13655

> <Formula>
C20H21FN6O5

> <FW>
444.4163

> <DSSTox_CID>
28586

> <DSSTox_RID>
82857

> <DSSTox_GSID>
48660

> <DSSTox_FileID_Sort>
7534

> <TS_ChemName>
Raltegravir

> <TS_ChemName_Synonyms>


> <TS_CASRN>
518048-05-0

> <CASRN_ChemName_Relationship>
primary

> <TS_Description>
single chemical compound

> <ChemNote>


> <STRUCTURE_Shown>
tested chemical

> <STRUCTURE_Formula>
C20H21FN6O5

> <STRUCTURE_MW>
444.4163

> <STRUCTURE_ChemType>
defined organic

> <STRUCTURE_DefinedOrganicForm>
parent

> <STRUCTURE_IUPAC>
N-(4-fluorobenzyl)-5-hydroxy-1-methyl-2-(2-{[(5-methyl-1,3,4-oxadiazol-2-yl)carbonyl]amino}propan-2-yl)-6-oxo-1,6-dihydropyrimidine-4-carboxamide

> <STRUCTURE_SMILES>
Cc1nnc(o1)C(=O)NC(C)(C)C3=NC(C(=O)NCc2ccc(F)cc2)=C(O)C(=O)N3C

> <STRUCTURE_SMILES_Desalt>
Cc1nnc(o1)C(=O)NC(C)(C)C3=NC(C(=O)NCc2ccc(F)cc2)=C(O)C(=O)N3C

> <Substance_modify_yyyymmdd>
20111204

$$$$
