51803-78-2
ChemmineR-0915142007XD

 21 22  0  0  0  0  0  0  0  0  2 V2000
    2.2929   -1.1582    0.0000 S   0  0  0  0  0  0  0  0  0  0  0  0
    1.1582   -7.1683    0.0000 N   0  3  0  0  0  0  0  0  0  0  0  0
    1.1582   -1.8312    0.0000 N   0  0  0  0  0  0  0  0  0  0  0  0
    2.2929   -3.8346    0.0000 C   0  0  0  0  0  0  0  0  0  0  0  0
    1.1582   -3.1615    0.0000 C   0  0  0  0  0  0  0  0  0  0  0  0
    1.1582   -5.8223    0.0000 C   0  0  0  0  0  0  0  0  0  0  0  0
    2.2929   -5.1649    0.0000 C   0  0  0  0  0  0  0  0  0  0  0  0
    2.2929   -7.8256    0.0000 O   0  5  0  0  0  0  0  0  0  0  0  0
    3.4511   -3.1615    0.0000 O   0  0  0  0  0  0  0  0  0  0  0  0
    2.9816   -2.3086    0.0000 O   0  0  0  0  0  0  0  0  0  0  0  0
    1.6199    0.0000    0.0000 O   0  0  0  0  0  0  0  0  0  0  0  0
    0.0000   -7.8256    0.0000 O   0  0  0  0  0  0  0  0  0  0  0  0
    0.0000   -3.8346    0.0000 C   0  0  0  0  0  0  0  0  0  0  0  0
    0.0000   -5.1649    0.0000 C   0  0  0  0  0  0  0  0  0  0  0  0
    3.4511   -0.4774    0.0000 C   0  0  0  0  0  0  0  0  0  0  0  0
    4.6015   -3.8346    0.0000 C   0  0  0  0  0  0  0  0  0  0  0  0
    4.6015   -5.1649    0.0000 C   0  0  0  0  0  0  0  0  0  0  0  0
    5.7440   -3.1615    0.0000 C   0  0  0  0  0  0  0  0  0  0  0  0
    6.8944   -3.8346    0.0000 C   0  0  0  0  0  0  0  0  0  0  0  0
    5.7440   -5.8223    0.0000 C   0  0  0  0  0  0  0  0  0  0  0  0
    6.8944   -5.1649    0.0000 C   0  0  0  0  0  0  0  0  0  0  0  0
  1  3  1  0  0  0  0
  1 10  2  0  0  0  0
  1 11  2  0  0  0  0
  1 15  1  0  0  0  0
  2  6  1  0  0  0  0
  2  8  1  0  0  0  0
  2 12  2  0  0  0  0
  3  5  1  0  0  0  0
  4  5  1  0  0  0  0
  4  7  2  0  0  0  0
  4  9  1  0  0  0  0
  5 13  2  0  0  0  0
  6 14  2  0  0  0  0
  6  7  1  0  0  0  0
  9 16  1  0  0  0  0
 13 14  1  0  0  0  0
 16 17  2  0  0  0  0
 16 18  1  0  0  0  0
 17 20  1  0  0  0  0
 18 19  2  0  0  0  0
 19 21  1  0  0  0  0
 20 21  2  0  0  0  0
M  END
> <ID>
7287

> <Formula>
C13H12N2O5S

> <FW>
308.3098

> <DSSTox_CID>
17250

> <DSSTox_RID>
79316

> <DSSTox_GSID>
37250

> <DSSTox_FileID_Sort>
3998

> <TS_ChemName>
Nimesulide

> <TS_ChemName_Synonyms>


> <TS_CASRN>
51803-78-2

> <CASRN_ChemName_Relationship>
primary

> <TS_Description>
single chemical compound

> <ChemNote>


> <STRUCTURE_Shown>
tested chemical

> <STRUCTURE_Formula>
C13H12N2O5S

> <STRUCTURE_MW>
308.3098

> <STRUCTURE_ChemType>
defined organic

> <STRUCTURE_DefinedOrganicForm>
parent

> <STRUCTURE_IUPAC>
N-(4-nitro-2-phenoxyphenyl)methanesulfonamide

> <STRUCTURE_SMILES>
[O-][N+](=O)c2cc(Oc1ccccc1)c(cc2)NS(C)(=O)=O

> <STRUCTURE_SMILES_Desalt>
[O-][N+](=O)c2cc(Oc1ccccc1)c(cc2)NS(C)(=O)=O

> <Substance_modify_yyyymmdd>
20080429

$$$$
