519-09-5
ChemmineR-0915142007XD

 21 23  0  0  1  0  0  0  0  0  1 V2000
    3.3740   -5.0287    0.0000 O   0  0  0  0  0  0  0  0  0  0  0  0
    4.0520   -6.1749    0.0000 C   0  0  0  0  0  0  0  0  0  0  0  0
    3.3740   -7.3291    0.0000 O   0  0  0  0  0  0  0  0  0  0  0  0
    5.3838   -6.1749    0.0000 C   0  0  0  0  0  0  0  0  0  0  0  0
    6.0457   -5.0287    0.0000 C   0  0  0  0  0  0  0  0  0  0  0  0
    6.0457   -7.3291    0.0000 C   0  0  0  0  0  0  0  0  0  0  0  0
    7.3937   -5.0287    0.0000 C   0  0  0  0  0  0  0  0  0  0  0  0
    7.3937   -7.3291    0.0000 C   0  0  0  0  0  0  0  0  0  0  0  0
    8.0717   -6.1749    0.0000 C   0  0  0  0  0  0  0  0  0  0  0  0
    1.5901   -2.3085    0.0000 C   0  0  0  0  0  0  0  0  0  0  0  0
    3.2933   -3.6000    0.0000 C   0  0  0  0  0  0  0  0  0  0  0  0
    2.4780   -2.9058    0.0000 C   0  0  0  0  0  0  0  0  0  0  0  0
    0.9040   -2.9058    0.0000 C   0  0  0  0  0  0  0  0  0  0  0  0
    0.6780   -1.5901    0.0000 N   0  0  0  0  0  0  0  0  0  0  0  0
    2.9300   -2.3247    0.0000 C   0  0  0  0  0  0  0  0  0  0  0  0
    0.0646   -4.0682    0.0000 C   0  0  0  0  0  0  0  0  0  0  0  0
    1.0574   -3.4547    0.0000 C   0  0  0  0  0  0  0  0  0  0  0  0
    0.0000   -0.4439    0.0000 C   0  0  0  0  0  0  0  0  0  0  0  0
    3.9229   -1.2511    0.0000 C   0  0  0  0  0  0  0  0  0  0  0  0
    5.2386   -1.4771    0.0000 O   0  0  0  0  0  0  0  0  0  0  0  0
    3.4547    0.0000    0.0000 O   0  0  0  0  0  0  0  0  0  0  0  0
  1  2  1  0  0  0  0
 11  1  1  1  0  0  0
  2  3  2  0  0  0  0
  2  4  1  0  0  0  0
  4  5  1  0  0  0  0
  4  6  2  0  0  0  0
  5  7  2  0  0  0  0
  6  8  1  0  0  0  0
  7  9  1  0  0  0  0
  8  9  2  0  0  0  0
 10 14  1  1  0  0  0
 10 15  1  0  0  0  0
 10 17  1  0  0  0  0
 11 12  1  0  0  0  0
 11 15  1  0  0  0  0
 12 13  1  0  0  0  0
 13 14  1  6  0  0  0
 13 16  1  0  0  0  0
 14 18  1  0  0  0  0
 15 19  1  1  0  0  0
 16 17  1  0  0  0  0
 19 20  1  0  0  0  0
 19 21  2  0  0  0  0
M  END
> <ID>
11946

> <Formula>
C16H19NO4

> <FW>
289.3264

> <DSSTox_CID>
26758

> <DSSTox_RID>
81882

> <DSSTox_GSID>
46758

> <DSSTox_FileID_Sort>
6563

> <TS_ChemName>
Benzoylecgonine

> <TS_ChemName_Synonyms>


> <TS_CASRN>
519-09-5

> <CASRN_ChemName_Relationship>
primary

> <TS_Description>
single chemical compound

> <ChemNote>
stereochem

> <STRUCTURE_Shown>
tested chemical

> <STRUCTURE_Formula>
C16H19NO4

> <STRUCTURE_MW>
289.3264

> <STRUCTURE_ChemType>
defined organic

> <STRUCTURE_DefinedOrganicForm>
parent

> <STRUCTURE_IUPAC>
(1R,2R,3S,5S)-3-(benzoyloxy)-8-methyl-8-azabicyclo[3.2.1]octane-2-carboxylic acid

> <STRUCTURE_SMILES>
CN3[C@H]1CC[C@@H]3[C@H]([C@H](C1)OC(=O)c2ccccc2)C(=O)O

> <STRUCTURE_SMILES_Desalt>
CN3[C@H]1CC[C@@H]3[C@H]([C@H](C1)OC(=O)c2ccccc2)C(=O)O

> <Substance_modify_yyyymmdd>
20110803

$$$$
