519-88-0
ChemmineR-0915142007XD

 21 21  0  0  0  0  0  0  0  0  1 V2000
    0.0000   -8.0613    0.0000 C   0  0  0  0  0  0  0  0  0  0  0  0
    0.6610   -6.9085    0.0000 C   0  0  0  0  0  0  0  0  0  0  0  0
    1.9911   -6.9085    0.0000 C   0  0  0  0  0  0  0  0  0  0  0  0
    2.6602   -5.7557    0.0000 C   0  0  0  0  0  0  0  0  0  0  0  0
    3.9903   -5.7557    0.0000 N   0  0  0  0  0  0  0  0  0  0  0  0
    4.6513   -6.9085    0.0000 C   0  0  0  0  0  0  0  0  0  0  0  0
    5.9815   -6.9085    0.0000 C   0  0  0  0  0  0  0  0  0  0  0  0
    6.6505   -8.0613    0.0000 C   0  0  0  0  0  0  0  0  0  0  0  0
    7.9807   -8.0613    0.0000 C   0  0  0  0  0  0  0  0  0  0  0  0
    4.6513   -4.6030    0.0000 C   0  0  0  0  0  0  0  0  0  0  0  0
    5.9815   -4.6030    0.0000 C   0  0  0  0  0  0  0  0  0  0  0  0
    6.6505   -5.7557    0.0000 N   0  0  0  0  0  0  0  0  0  0  0  0
    6.6505   -3.4583    0.0000 O   0  0  0  0  0  0  0  0  0  0  0  0
    3.9903   -3.4583    0.0000 C   0  0  0  0  0  0  0  0  0  0  0  0
    4.6513   -2.3055    0.0000 C   0  0  0  0  0  0  0  0  0  0  0  0
    3.9903   -1.1528    0.0000 C   0  0  0  0  0  0  0  0  0  0  0  0
    2.6602   -1.1528    0.0000 C   0  0  0  0  0  0  0  0  0  0  0  0
    1.9911    0.0000    0.0000 O   0  0  0  0  0  0  0  0  0  0  0  0
    0.6610    0.0000    0.0000 C   0  0  0  0  0  0  0  0  0  0  0  0
    1.9911   -2.3055    0.0000 C   0  0  0  0  0  0  0  0  0  0  0  0
    2.6602   -3.4583    0.0000 C   0  0  0  0  0  0  0  0  0  0  0  0
  1  2  1  0  0  0  0
  2  3  1  0  0  0  0
  3  4  1  0  0  0  0
  4  5  1  0  0  0  0
  5  6  1  0  0  0  0
  5 10  1  0  0  0  0
  6  7  1  0  0  0  0
  7  8  1  0  0  0  0
  8  9  1  0  0  0  0
 10 11  1  0  0  0  0
 10 14  1  0  0  0  0
 11 12  1  0  0  0  0
 11 13  2  0  0  0  0
 14 15  2  0  0  0  0
 14 21  1  0  0  0  0
 15 16  1  0  0  0  0
 16 17  2  0  0  0  0
 17 18  1  0  0  0  0
 17 20  1  0  0  0  0
 18 19  1  0  0  0  0
 20 21  2  0  0  0  0
M  END
> <ID>
16160

> <Formula>
C17H28N2O2

> <FW>
292.4164

> <DSSTox_CID>
31549

> <DSSTox_RID>
97434

> <DSSTox_GSID>
57760

> <DSSTox_FileID_Sort>
8501

> <TS_ChemName>
Ambucetamide

> <TS_ChemName_Synonyms>


> <TS_CASRN>
519-88-0

> <CASRN_ChemName_Relationship>
primary

> <TS_Description>
single chemical compound

> <ChemNote>


> <STRUCTURE_Shown>
tested chemical

> <STRUCTURE_Formula>
C17H28N2O2

> <STRUCTURE_MW>
292.4164

> <STRUCTURE_ChemType>
defined organic

> <STRUCTURE_DefinedOrganicForm>
parent

> <STRUCTURE_IUPAC>
2-(dibutylamino)-2-(4-methoxyphenyl)acetamide

> <STRUCTURE_SMILES>
COc1ccc(cc1)C(C(N)=O)N(CCCC)CCCC

> <STRUCTURE_SMILES_Desalt>
COc1ccc(cc1)C(C(N)=O)N(CCCC)CCCC

> <Substance_modify_yyyymmdd>
20131018

$$$$
