51934-41-9
ChemmineR-0915142007XD

 12 12  0  0  0  0  0  0  0  0  1 V2000
    8.0698   -1.9852    0.0000 C   0  0  0  0  0  0  0  0  0  0  0  0
    6.9158   -1.3315    0.0000 C   0  0  0  0  0  0  0  0  0  0  0  0
    5.7779   -1.9852    0.0000 O   0  0  0  0  0  0  0  0  0  0  0  0
    4.6240    0.0000    0.0000 O   0  0  0  0  0  0  0  0  0  0  0  0
    4.6240   -1.3315    0.0000 C   0  0  0  0  0  0  0  0  0  0  0  0
    3.4619   -3.3167    0.0000 C   0  0  0  0  0  0  0  0  0  0  0  0
    2.3079   -1.3315    0.0000 C   0  0  0  0  0  0  0  0  0  0  0  0
    2.3079   -3.9945    0.0000 C   0  0  0  0  0  0  0  0  0  0  0  0
    1.1540   -1.9852    0.0000 C   0  0  0  0  0  0  0  0  0  0  0  0
    3.4619   -1.9852    0.0000 C   0  0  0  0  0  0  0  0  0  0  0  0
    1.1540   -3.3167    0.0000 C   0  0  0  0  0  0  0  0  0  0  0  0
    0.0000   -3.9945    0.0000 I   0  0  0  0  0  0  0  0  0  0  0  0
  1  2  1  0  0  0  0
  2  3  1  0  0  0  0
  3  5  1  0  0  0  0
  4  5  2  0  0  0  0
  5 10  1  0  0  0  0
  6  8  2  0  0  0  0
  6 10  1  0  0  0  0
  7  9  1  0  0  0  0
  7 10  2  0  0  0  0
  8 11  1  0  0  0  0
  9 11  2  0  0  0  0
 11 12  1  0  0  0  0
M  END
> <ID>
14175

> <Formula>
C9H9IO2

> <FW>
276.071

> <DSSTox_CID>
29267

> <DSSTox_RID>
83386

> <DSSTox_GSID>
49311

> <DSSTox_FileID_Sort>
8061

> <TS_ChemName>
Benzoicacid,4-iodo-,ethylester

> <TS_ChemName_Synonyms>


> <TS_CASRN>
51934-41-9

> <CASRN_ChemName_Relationship>
primary

> <TS_Description>
single chemical compound

> <ChemNote>


> <STRUCTURE_Shown>
tested chemical

> <STRUCTURE_Formula>
C9H9IO2

> <STRUCTURE_MW>
276.071

> <STRUCTURE_ChemType>
defined organic

> <STRUCTURE_DefinedOrganicForm>
parent

> <STRUCTURE_IUPAC>
ethyl 4-iodobenzoate

> <STRUCTURE_SMILES>
Ic1ccc(cc1)C(=O)OCC

> <STRUCTURE_SMILES_Desalt>
Ic1ccc(cc1)C(=O)OCC

> <Substance_modify_yyyymmdd>
20111204

$$$$
