51952-41-1
ChemmineR-0915142007XD

 94 98  0  0  1  0  0  0  0  0  1 V2000
   21.2605  -19.4152    0.0000 N    0  0  0  0  0  0  0  0  0  0  0  0
   19.9870  -18.9993    0.0000 C    0  0  0  0  0  0  0  0  0  0  0  0
   19.7011  -17.6998    0.0000 C    0  0  0  0  0  0  0  0  0  0  0  0
   18.4015  -17.9857    0.0000 H    0  0  0  0  0  0  0  0  0  0  0  0
   21.0006  -17.4139    0.0000 C    0  0  0  0  0  0  0  0  0  0  0  0
   21.4165  -16.1663    0.0000 C    0  0  0  0  0  0  0  0  0  0  0  0
   22.6900  -15.8804    0.0000 C    0  0  0  0  0  0  0  0  0  0  0  0
   23.1059  -14.6069    0.0000 N    0  0  0  0  0  0  0  0  0  0  0  0
   24.4054  -14.3469    0.0000 C    0  0  0  0  0  0  0  0  0  0  0  0
   25.2891  -15.3086    0.0000 N    0  0  0  0  0  0  0  0  0  0  0  0
   24.8213  -13.0734    0.0000 N    0  0  0  0  0  0  0  0  0  0  0  0
   19.4152  -16.4002    0.0000 N    0  0  0  0  0  0  0  0  0  0  0  0
   18.1676  -16.0104    0.0000 C    0  0  0  0  0  0  0  0  0  0  0  0
   17.1540  -16.8940    0.0000 O    0  0  0  0  0  0  0  0  0  0  0  0
   17.8557  -14.7108    0.0000 C    0  0  0  0  0  0  0  0  0  0  0  0
   16.5822  -14.9707    0.0000 H    0  0  0  0  0  0  0  0  0  0  0  0
   19.1552  -14.4249    0.0000 C    0  0  0  0  0  0  0  0  0  0  0  0
   19.5971  -13.1514    0.0000 C    0  0  0  0  0  0  0  0  0  0  0  0
   18.6874  -12.1897    0.0000 C    0  0  0  0  0  0  0  0  0  0  0  0
   20.8966  -12.8655    0.0000 C    0  0  0  0  0  0  0  0  0  0  0  0
   17.5958  -13.4113    0.0000 N    0  0  0  0  0  0  0  0  0  0  0  0
   16.3222  -12.9954    0.0000 C    0  0  0  0  0  0  0  0  0  0  0  0
   15.3346  -13.8791    0.0000 O    0  0  0  0  0  0  0  0  0  0  0  0
   16.0363  -11.6959    0.0000 C    0  0  0  0  0  0  0  0  0  0  0  0
   14.7888  -11.2800    0.0000 N    0  0  0  0  0  0  0  0  0  0  0  0
   14.5029   -9.9805    0.0000 C    0  0  0  0  0  0  0  0  0  0  0  0
   15.4645   -9.0968    0.0000 O    0  0  0  0  0  0  0  0  0  0  0  0
   13.2553   -9.5906    0.0000 C    0  0  0  0  0  0  0  0  0  0  0  0
   12.8395  -10.8642    0.0000 H    0  0  0  0  0  0  0  0  0  0  0  0
   13.6452   -8.3171    0.0000 C    0  0  0  0  0  0  0  0  0  0  0  0
   14.7628   -7.6153    0.0000 C    0  0  0  0  0  0  0  0  0  0  0  0
   14.7108   -6.2898    0.0000 C    0  0  0  0  0  0  0  0  0  0  0  0
   15.8544   -5.5880    0.0000 C    0  0  0  0  0  0  0  0  0  0  0  0
   17.0240   -6.1858    0.0000 C    0  0  0  0  0  0  0  0  0  0  0  0
   17.0760   -7.5373    0.0000 C    0  0  0  0  0  0  0  0  0  0  0  0
   15.9324   -8.2391    0.0000 C    0  0  0  0  0  0  0  0  0  0  0  0
   18.1676   -5.5101    0.0000 O    0  0  0  0  0  0  0  0  0  0  0  0
   11.9818   -9.1748    0.0000 N    0  0  0  0  0  0  0  0  0  0  0  0
   10.9941  -10.0585    0.0000 C    0  0  0  0  0  0  0  0  0  0  0  0
   11.2800  -11.3580    0.0000 O    0  0  0  0  0  0  0  0  0  0  0  0
    9.7206   -9.6686    0.0000 C    0  0  0  0  0  0  0  0  0  0  0  0
    9.3047  -10.9421    0.0000 H    0  0  0  0  0  0  0  0  0  0  0  0
   10.1364   -8.3950    0.0000 C    0  0  0  0  0  0  0  0  0  0  0  0
   11.4360   -8.1351    0.0000 O    0  0  0  0  0  0  0  0  0  0  0  0
    8.4730   -9.2527    0.0000 N    0  0  0  0  0  0  0  0  0  0  0  0
    7.4854  -10.1364    0.0000 C    0  0  0  0  0  0  0  0  0  0  0  0
    7.7453  -11.4360    0.0000 O    0  0  0  0  0  0  0  0  0  0  0  0
    6.2118   -9.7466    0.0000 C    0  0  0  0  0  0  0  0  0  0  0  0
    5.7960  -11.0201    0.0000 H    0  0  0  0  0  0  0  0  0  0  0  0
    4.9383   -9.3307    0.0000 C    0  0  0  0  0  0  0  0  0  0  0  0
    3.9766  -10.2144    0.0000 C    0  0  0  0  0  0  0  0  0  0  0  0
    4.1066  -11.5399    0.0000 C    0  0  0  0  0  0  0  0  0  0  0  0
    2.8850  -12.0857    0.0000 N    0  0  0  0  0  0  0  0  0  0  0  0
    2.0013  -11.0981    0.0000 C    0  0  0  0  0  0  0  0  0  0  0  0
    2.6771   -9.9545    0.0000 C    0  0  0  0  0  0  0  0  0  0  0  0
    2.0013   -8.8109    0.0000 C    0  0  0  0  0  0  0  0  0  0  0  0
    0.6498   -8.8109    0.0000 C    0  0  0  0  0  0  0  0  0  0  0  0
    0.0000   -9.9805    0.0000 C    0  0  0  0  0  0  0  0  0  0  0  0
    0.6498  -11.0981    0.0000 C    0  0  0  0  0  0  0  0  0  0  0  0
    6.6017   -8.4730    0.0000 N    0  0  0  0  0  0  0  0  0  0  0  0
    5.7180   -7.4854    0.0000 C    0  0  0  0  0  0  0  0  0  0  0  0
    4.4184   -7.7713    0.0000 O    0  0  0  0  0  0  0  0  0  0  0  0
    6.1338   -6.2378    0.0000 C    0  0  0  0  0  0  0  0  0  0  0  0
    7.4074   -6.6277    0.0000 H    0  0  0  0  0  0  0  0  0  0  0  0
    4.8603   -5.8219    0.0000 C    0  0  0  0  0  0  0  0  0  0  0  0
    4.5744   -4.5224    0.0000 C    0  0  0  0  0  0  0  0  0  0  0  0
    3.3528   -3.9766    0.0000 N    0  0  0  0  0  0  0  0  0  0  0  0
    3.5088   -2.6771    0.0000 C    0  0  0  0  0  0  0  0  0  0  0  0
    4.8083   -2.3652    0.0000 N    0  0  0  0  0  0  0  0  0  0  0  0
    5.4841   -3.5348    0.0000 C    0  0  0  0  0  0  0  0  0  0  0  0
    6.5237   -4.9643    0.0000 N    0  0  0  0  0  0  0  0  0  0  0  0
    7.8232   -4.6784    0.0000 C    0  0  0  0  0  0  0  0  0  0  0  0
    8.7329   -5.6660    0.0000 O    0  0  0  0  0  0  0  0  0  0  0  0
    8.2391   -3.4308    0.0000 C    0  0  0  0  0  0  0  0  0  0  0  0
    9.3307   -4.1845    0.0000 H    0  0  0  0  0  0  0  0  0  0  0  0
    6.9655   -3.0149    0.0000 C    0  0  0  0  0  0  0  0  0  0  0  0
    6.9655   -1.6894    0.0000 C    0  0  0  0  0  0  0  0  0  0  0  0
    8.2391   -1.2736    0.0000 C    0  0  0  0  0  0  0  0  0  0  0  0
    8.6290    0.0000    0.0000 O    0  0  0  0  0  0  0  0  0  0  0  0
    9.0188   -2.3392    0.0000 N    0  0  0  0  0  0  0  0  0  0  0  0
   18.9993  -19.8830    0.0000 O    0  0  0  0  0  0  0  0  0  0  0  0
   21.6764  -20.6887    0.0000 C    0  0  0  0  0  0  0  0  0  0  0  0
   20.3768  -21.0786    0.0000 H    0  0  0  0  0  0  0  0  0  0  0  0
   22.9759  -20.6887    0.0000 C    0  0  0  0  0  0  0  0  0  0  0  0
   23.4177  -19.4152    0.0000 C    0  0  0  0  0  0  0  0  0  0  0  0
   22.3261  -18.6094    0.0000 C    0  0  0  0  0  0  0  0  0  0  0  0
   21.6504  -22.0142    0.0000 C    0  0  0  0  0  0  0  0  0  0  0  0
   22.8200  -22.6640    0.0000 N    0  0  0  0  0  0  0  0  0  0  0  0
   22.8200  -23.9895    0.0000 C    0  0  0  0  0  0  0  0  0  0  0  0
   23.9895  -24.6653    0.0000 C    0  0  0  0  0  0  0  0  0  0  0  0
   25.1331  -23.9895    0.0000 N    0  0  0  0  0  0  0  0  0  0  0  0
   23.9895  -25.9908    0.0000 O    0  0  0  0  0  0  0  0  0  0  0  0
   20.5068  -22.6640    0.0000 O    0  0  0  0  0  0  0  0  0  0  0  0
   11.7219  -23.5997    0.0000 Cl   0  0  0  0  0  0  0  0  0  0  0  0
  1  2  1  0  0  0  0
  1 82  1  0  0  0  0
  1 86  1  0  0  0  0
  3  2  1  6  0  0  0
  2 81  2  0  0  0  0
  3  4  1  0  0  0  0
  3  5  1  0  0  0  0
  3 12  1  0  0  0  0
  5  6  1  0  0  0  0
  6  7  1  0  0  0  0
  7  8  1  0  0  0  0
  8  9  1  0  0  0  0
  9 10  1  0  0  0  0
  9 11  2  0  0  0  0
 12 13  1  0  0  0  0
 13 14  2  0  0  0  0
 13 15  1  0  0  0  0
 15 16  1  0  0  0  0
 15 17  1  0  0  0  0
 15 21  1  0  0  0  0
 17 18  1  0  0  0  0
 18 19  1  0  0  0  0
 18 20  1  0  0  0  0
 21 22  1  0  0  0  0
 22 23  2  0  0  0  0
 24 22  1  1  0  0  0
 24 25  1  0  0  0  0
 25 26  1  0  0  0  0
 26 27  2  0  0  0  0
 28 26  1  1  0  0  0
 28 29  1  0  0  0  0
 28 30  1  0  0  0  0
 28 38  1  0  0  0  0
 30 31  1  0  0  0  0
 31 32  1  0  0  0  0
 31 36  2  0  0  0  0
 32 33  2  0  0  0  0
 33 34  1  0  0  0  0
 34 35  2  0  0  0  0
 34 37  1  0  0  0  0
 35 36  1  0  0  0  0
 38 39  1  0  0  0  0
 39 40  2  0  0  0  0
 41 39  1  6  0  0  0
 41 42  1  0  0  0  0
 41 43  1  0  0  0  0
 41 45  1  0  0  0  0
 43 44  1  0  0  0  0
 45 46  1  0  0  0  0
 46 47  2  0  0  0  0
 48 46  1  1  0  0  0
 48 49  1  0  0  0  0
 48 50  1  0  0  0  0
 48 60  1  0  0  0  0
 50 51  1  0  0  0  0
 51 52  2  0  0  0  0
 51 55  1  0  0  0  0
 52 53  1  0  0  0  0
 53 54  1  0  0  0  0
 54 55  1  0  0  0  0
 54 59  2  0  0  0  0
 55 56  2  0  0  0  0
 56 57  1  0  0  0  0
 57 58  2  0  0  0  0
 58 59  1  0  0  0  0
 60 61  1  0  0  0  0
 61 62  2  0  0  0  0
 63 61  1  6  0  0  0
 63 64  1  6  0  0  0
 63 65  1  0  0  0  0
 63 71  1  0  0  0  0
 65 66  1  0  0  0  0
 66 67  1  0  0  0  0
 66 70  2  0  0  0  0
 67 68  2  0  0  0  0
 68 69  1  0  0  0  0
 69 70  1  0  0  0  0
 71 72  1  0  0  0  0
 72 73  2  0  0  0  0
 74 72  1  1  0  0  0
 74 75  1  0  0  0  0
 74 76  1  0  0  0  0
 74 80  1  0  0  0  0
 76 77  1  0  0  0  0
 77 78  1  0  0  0  0
 78 79  2  0  0  0  0
 78 80  1  0  0  0  0
 82 83  1  0  0  0  0
 82 84  1  0  0  0  0
 82 87  1  6  0  0  0
 84 85  1  0  0  0  0
 85 86  1  0  0  0  0
 87 88  1  0  0  0  0
 87 93  2  0  0  0  0
 88 89  1  0  0  0  0
 89 90  1  0  0  0  0
 90 91  1  0  0  0  0
 90 92  2  0  0  0  0
M  END
> <ID>
13942

> <Formula>
C55H76ClN17O13

> <FW>
1218.7510 (1182.2901+36.4609)

> <DSSTox_CID>
28880

> <DSSTox_RID>
83148

> <DSSTox_GSID>
48954

> <DSSTox_FileID_Sort>
7825

> <TS_ChemName>
Gonadorelin hydrochloride

> <TS_ChemName_Synonyms>
GONADORELIN

> <TS_CASRN>
51952-41-1

> <CASRN_ChemName_Relationship>
primary

> <TS_Description>
single chemical compound

> <ChemNote>
stereochem; parent [33515-09-2]

> <STRUCTURE_Shown>
tested chemical

> <STRUCTURE_Formula>
C55H76ClN17O13

> <STRUCTURE_MW>
1218.751

> <STRUCTURE_ChemType>
defined organic

> <STRUCTURE_DefinedOrganicForm>
complex

> <STRUCTURE_IUPAC>
5-oxo-D-prolyl-L-histidyl-D-tryptophyl-D-seryl-L-tyrosylglycylleucyl-D-arginyl-D-prolylglycinamide hydrochloride (1:1)

> <STRUCTURE_SMILES>
Cl.O=C(NCC(N)=O)[C@H]6CCCN6C(=O)[C@@H](CCCNC(=N)N)NC(=O)C(CC(C)C)NC(=O)CNC(=O)[C@H](Cc1ccc(O)cc1)NC(=O)[C@@H](CO)NC(=O)[C@@H](Cc3cnc2ccccc23)NC(=O)[C@H](Cc4cncn4)NC(=O)[C@H]5CCC(=O)N5

> <STRUCTURE_SMILES_Desalt>
O=C(NCC(N)=O)[C@H]6CCCN6C(=O)[C@@H](CCCNC(=N)N)NC(=O)C(CC(C)C)NC(=O)CNC(=O)[C@H](Cc1ccc(O)cc1)NC(=O)[C@@H](CO)NC(=O)[C@@H](Cc3cnc2ccccc23)NC(=O)[C@H](Cc4cncn4)NC(=O)[C@H]5CCC(=O)N5

> <Substance_modify_yyyymmdd>
20111204

$$$$
