51990-12-6
ChemmineR-0915142007XD

 16 15  0  0  0  0  0  0  0  0  1 V2000
    1.1494   -1.9986    0.0000 C    0  0  0  0  0  0  0  0  0  0  0  0
    2.3092   -1.3255    0.0000 C    0  0  0  0  0  0  0  0  0  0  0  0
    0.0000   -1.3255    0.0000 C    0  0  0  0  0  0  0  0  0  0  0  0
    3.4587   -1.9986    0.0000 C    0  0  0  0  0  0  0  0  0  0  0  0
    4.6081   -1.3255    0.0000 C    0  0  0  0  0  0  0  0  0  0  0  0
    5.7576   -1.9986    0.0000 C    0  0  0  0  0  0  0  0  0  0  0  0
    6.9174   -1.3255    0.0000 C    0  0  0  0  0  0  0  0  0  0  0  0
    8.0668   -1.9986    0.0000 C    0  0  0  0  0  0  0  0  0  0  0  0
    9.2059   -1.3255    0.0000 C    0  0  0  0  0  0  0  0  0  0  0  0
   10.3553   -1.9986    0.0000 C    0  0  0  0  0  0  0  0  0  0  0  0
    1.1494   -3.3241    0.0000 Cl   0  0  0  0  0  0  0  0  0  0  0  0
    2.3092    0.0000    0.0000 Cl   0  0  0  0  0  0  0  0  0  0  0  0
    3.4587   -3.3241    0.0000 Cl   0  0  0  0  0  0  0  0  0  0  0  0
    4.6081    0.0000    0.0000 Cl   0  0  0  0  0  0  0  0  0  0  0  0
    5.7576   -3.3241    0.0000 Cl   0  0  0  0  0  0  0  0  0  0  0  0
    8.0668   -3.3241    0.0000 Cl   0  0  0  0  0  0  0  0  0  0  0  0
  1  2  1  0  0  0  0
  1  3  1  0  0  0  0
  1 11  1  0  0  0  0
  2  4  1  0  0  0  0
  2 12  1  0  0  0  0
  4  5  1  0  0  0  0
  4 13  1  0  0  0  0
  5  6  1  0  0  0  0
  5 14  1  0  0  0  0
  6  7  1  0  0  0  0
  6 15  1  0  0  0  0
  7  8  1  0  0  0  0
  8  9  1  0  0  0  0
  8 16  1  0  0  0  0
  9 10  1  0  0  0  0
M  END
> <ID>
6612

> <Formula>
C10H16Cl6

> <FW>
348.952

> <DSSTox_CID>
13326

> <DSSTox_RID>
79063

> <DSSTox_GSID>
33326

> <DSSTox_FileID_Sort>
3745

> <TS_ChemName>
Chlorowax 500C

> <TS_ChemName_Synonyms>


> <TS_CASRN>
51990-12-6

> <CASRN_ChemName_Relationship>
primary

> <TS_Description>
mixture or formulation

> <ChemNote>
mixture of C10-12 chlorinated alkanes containing 60-70 % Cl; structure shown C10

> <STRUCTURE_Shown>
representative component

> <STRUCTURE_Formula>
C10H16Cl6

> <STRUCTURE_MW>
348.952

> <STRUCTURE_ChemType>
defined organic

> <STRUCTURE_DefinedOrganicForm>
parent

> <STRUCTURE_IUPAC>
2,3,4,5,6,8-hexachlorodecane

> <STRUCTURE_SMILES>
ClC(CC(Cl)CC)C(Cl)C(Cl)C(Cl)C(C)Cl

> <STRUCTURE_SMILES_Desalt>
ClC(CC(Cl)CC)C(Cl)C(Cl)C(Cl)C(C)Cl

> <Substance_modify_yyyymmdd>
20080429

$$$$
