52-01-7
ChemmineR-0915142007XD

 32 36  0  0  1  0  0  0  0  0  1 V2000
    3.4499   -4.9434    0.0000 C   0  0  0  0  0  0  0  0  0  0  0  0
    3.4499   -6.2476    0.0000 C   0  0  0  0  0  0  0  0  0  0  0  0
    2.3034   -4.2597    0.0000 C   0  0  0  0  0  0  0  0  0  0  0  0
    2.3034   -6.9313    0.0000 C   0  0  0  0  0  0  0  0  0  0  0  0
    1.1780   -4.9434    0.0000 C   0  0  0  0  0  0  0  0  0  0  0  0
    1.1780   -6.2476    0.0000 C   0  0  0  0  0  0  0  0  0  0  0  0
    4.6279   -4.2597    0.0000 C   0  0  0  0  0  0  0  0  0  0  0  0
    5.7533   -4.9434    0.0000 C   0  0  0  0  0  0  0  0  0  0  0  0
    4.6279   -6.9313    0.0000 C   0  0  0  0  0  0  0  0  0  0  0  0
    5.7533   -6.2792    0.0000 C   0  0  0  0  0  0  0  0  0  0  0  0
    4.6279   -2.9450    0.0000 C   0  0  0  0  0  0  0  0  0  0  0  0
    5.7533   -2.2719    0.0000 C   0  0  0  0  0  0  0  0  0  0  0  0
    6.9103   -4.2597    0.0000 C   0  0  0  0  0  0  0  0  0  0  0  0
    6.9103   -2.9450    0.0000 C   0  0  0  0  0  0  0  0  0  0  0  0
    8.1619   -4.6699    0.0000 C   0  0  0  0  0  0  0  0  0  0  0  0
    8.9612   -3.6076    0.0000 C   0  0  0  0  0  0  0  0  0  0  0  0
    8.1619   -2.5243    0.0000 C   0  0  0  0  0  0  0  0  0  0  0  0
    7.4046   -1.4620    0.0000 C   0  0  0  0  0  0  0  0  0  0  0  0
    9.4346   -2.1141    0.0000 O   0  0  0  0  0  0  0  0  0  0  0  0
    8.1829   -0.3681    0.0000 C   0  0  0  0  0  0  0  0  0  0  0  0
    9.4346   -0.7994    0.0000 C   0  0  0  0  0  0  0  0  0  0  0  0
    6.8366   -1.6092    0.0000 C   0  0  0  0  0  0  0  0  0  0  0  0
    0.0000   -6.9313    0.0000 O   0  0  0  0  0  0  0  0  0  0  0  0
   10.5179    0.0000    0.0000 O   0  0  0  0  0  0  0  0  0  0  0  0
    3.4499   -3.5866    0.0000 C   0  0  0  0  0  0  0  0  0  0  0  0
    4.6279   -5.5955    0.0000 H   0  0  0  0  0  0  0  0  0  0  0  0
    5.7533   -3.6076    0.0000 H   0  0  0  0  0  0  0  0  0  0  0  0
    6.9103   -5.5955    0.0000 H   0  0  0  0  0  0  0  0  0  0  0  0
    6.9103   -6.9313    0.0000 S   0  0  0  0  0  0  0  0  0  0  0  0
    6.9103   -8.2671    0.0000 C   0  0  0  0  0  0  0  0  0  0  0  0
    8.0567   -8.9297    0.0000 O   0  0  0  0  0  0  0  0  0  0  0  0
    5.7533   -8.9297    0.0000 C   0  0  0  0  0  0  0  0  0  0  0  0
  1  3  1  0  0  0  0
  1  7  1  0  0  0  0
  1  2  1  0  0  0  0
  1 25  1  1  0  0  0
  2  4  2  0  0  0  0
  2  9  1  0  0  0  0
  3  5  1  0  0  0  0
  4  6  1  0  0  0  0
  5  6  1  0  0  0  0
  6 23  2  0  0  0  0
  7 11  1  0  0  0  0
  7  8  1  0  0  0  0
  7 26  1  6  0  0  0
  8 10  1  0  0  0  0
  8 13  1  0  0  0  0
  8 27  1  1  0  0  0
  9 10  1  0  0  0  0
 10 29  1  6  0  0  0
 11 12  1  0  0  0  0
 12 14  1  0  0  0  0
 13 15  1  0  0  0  0
 13 14  1  0  0  0  0
 13 28  1  6  0  0  0
 14 17  1  0  0  0  0
 14 22  1  1  0  0  0
 15 16  1  0  0  0  0
 16 17  1  0  0  0  0
 17 18  1  6  0  0  0
 17 19  1  1  0  0  0
 18 20  1  0  0  0  0
 19 21  1  0  0  0  0
 20 21  1  0  0  0  0
 21 24  2  0  0  0  0
 29 30  1  0  0  0  0
 30 31  2  0  0  0  0
 30 32  1  0  0  0  0
M  END
> <ID>
6673

> <Formula>
C24H32O4S

> <FW>
416.5735

> <DSSTox_CID>
14186

> <DSSTox_RID>
79120

> <DSSTox_GSID>
34186

> <DSSTox_FileID_Sort>
3802

> <TS_ChemName>
Spironolactone

> <TS_ChemName_Synonyms>


> <TS_CASRN>
52-01-7

> <CASRN_ChemName_Relationship>
primary

> <TS_Description>
single chemical compound

> <ChemNote>
stereochem

> <STRUCTURE_Shown>
tested chemical

> <STRUCTURE_Formula>
C24H32O4S

> <STRUCTURE_MW>
416.5735

> <STRUCTURE_ChemType>
defined organic

> <STRUCTURE_DefinedOrganicForm>
parent

> <STRUCTURE_IUPAC>
S-[(7R,8R,9S,10R,13S,14S,17R)-10,13-dimethyl-3,5'-dioxo-1,2,3,4',5',6,7,8,9,10,11,12,13,14,15,16-hexadecahydro-3'H-spiro[cyclopenta[a]phenanthrene-17,2'-furan]-7-yl] ethanethioate

> <STRUCTURE_SMILES>
CC(=O)S[C@@H]4CC1=CC(=O)CC[C@]1(C)[C@H]5CC[C@@]3(C)[C@@H](CC[C@]23CCC(=O)O2)[C@H]45

> <STRUCTURE_SMILES_Desalt>
CC(=O)S[C@@H]4CC1=CC(=O)CC[C@]1(C)[C@H]5CC[C@@]3(C)[C@@H](CC[C@]23CCC(=O)O2)[C@H]45

> <Substance_modify_yyyymmdd>
20080429

$$$$
