52-49-3
ChemmineR-0915142007XD

 23 24  0  0  0  0  0  0  0  0  1 V2000
    4.2747   -7.9519    0.0000 Cl   0  0  0  0  0  0  0  0  0  0  0  0
    1.5062   -2.7853    0.0000 O    0  0  0  0  0  0  0  0  0  0  0  0
    2.6675   -3.4416    0.0000 C    0  0  0  0  0  0  0  0  0  0  0  0
    3.8203   -4.1148    0.0000 C    0  0  0  0  0  0  0  0  0  0  0  0
    4.9647   -3.4584    0.0000 C    0  0  0  0  0  0  0  0  0  0  0  0
    6.1175   -4.1316    0.0000 N    0  0  0  0  0  0  0  0  0  0  0  0
    7.2787   -3.4584    0.0000 C    0  0  0  0  0  0  0  0  0  0  0  0
    8.4147   -4.1316    0.0000 C    0  0  0  0  0  0  0  0  0  0  0  0
    8.4147   -5.4611    0.0000 C    0  0  0  0  0  0  0  0  0  0  0  0
    7.2619   -6.1175    0.0000 C    0  0  0  0  0  0  0  0  0  0  0  0
    6.1175   -5.4443    0.0000 C    0  0  0  0  0  0  0  0  0  0  0  0
    1.9943   -4.5944    0.0000 C    0  0  0  0  0  0  0  0  0  0  0  0
    0.6563   -4.5776    0.0000 C    0  0  0  0  0  0  0  0  0  0  0  0
    0.0000   -5.7388    0.0000 C    0  0  0  0  0  0  0  0  0  0  0  0
    0.6563   -6.8916    0.0000 C    0  0  0  0  0  0  0  0  0  0  0  0
    1.9943   -6.8916    0.0000 C    0  0  0  0  0  0  0  0  0  0  0  0
    2.6675   -5.7556    0.0000 C    0  0  0  0  0  0  0  0  0  0  0  0
    3.3406   -2.2972    0.0000 C    0  0  0  0  0  0  0  0  0  0  0  0
    4.6702   -2.2972    0.0000 C    0  0  0  0  0  0  0  0  0  0  0  0
    5.3349   -1.1612    0.0000 C    0  0  0  0  0  0  0  0  0  0  0  0
    4.6702    0.0000    0.0000 C    0  0  0  0  0  0  0  0  0  0  0  0
    3.3406    0.0000    0.0000 C    0  0  0  0  0  0  0  0  0  0  0  0
    2.6675   -1.1444    0.0000 C    0  0  0  0  0  0  0  0  0  0  0  0
  2  3  1  0  0  0  0
  3  4  1  0  0  0  0
  3 12  1  0  0  0  0
  3 18  1  0  0  0  0
  4  5  1  0  0  0  0
  5  6  1  0  0  0  0
  6  7  1  0  0  0  0
  6 11  1  0  0  0  0
  7  8  1  0  0  0  0
  8  9  1  0  0  0  0
  9 10  1  0  0  0  0
 10 11  1  0  0  0  0
 12 13  1  0  0  0  0
 12 17  1  0  0  0  0
 13 14  1  0  0  0  0
 14 15  1  0  0  0  0
 15 16  1  0  0  0  0
 16 17  1  0  0  0  0
 18 19  2  0  0  0  0
 18 23  1  0  0  0  0
 19 20  1  0  0  0  0
 20 21  2  0  0  0  0
 21 22  1  0  0  0  0
 22 23  2  0  0  0  0
M  END
> <ID>
11208

> <Formula>
C20H32ClNO

> <FW>
337.9272 (36.4609+301.4662)

> <DSSTox_CID>
25802

> <DSSTox_RID>
81140

> <DSSTox_GSID>
45802

> <DSSTox_FileID_Sort>
5821

> <TS_ChemName>
Trihexyphenidyl hydrochloride

> <TS_ChemName_Synonyms>


> <TS_CASRN>
52-49-3

> <CASRN_ChemName_Relationship>
primary

> <TS_Description>
single chemical compound

> <ChemNote>
parent [144-11-6]

> <STRUCTURE_Shown>
tested chemical

> <STRUCTURE_Formula>
C20H32ClNO

> <STRUCTURE_MW>
337.9272

> <STRUCTURE_ChemType>
defined organic

> <STRUCTURE_DefinedOrganicForm>
complex

> <STRUCTURE_IUPAC>
1-cyclohexyl-1-phenyl-3-(piperidin-1-yl)propan-1-ol hydrochloride (1:1)

> <STRUCTURE_SMILES>
Cl.OC(CCN1CCCCC1)(c2ccccc2)C3CCCCC3

> <STRUCTURE_SMILES_Desalt>
OC(CCN1CCCCC1)(c2ccccc2)C3CCCCC3

> <Substance_modify_yyyymmdd>
20110930

$$$$
