52-51-7
ChemmineR-0915142007XD

  9  8  0  0  0  0  0  0  0  0  2 V2000
    3.1476   -3.9893    0.0000 O    0  5  0  0  0  0  0  0  0  0  0  0
    1.9947   -3.3231    0.0000 N    0  3  0  0  0  0  0  0  0  0  0  0
    0.8417   -3.9893    0.0000 O    0  0  0  0  0  0  0  0  0  0  0  0
    1.9947   -1.9947    0.0000 C    0  0  0  0  0  0  0  0  0  0  0  0
    3.3231   -1.9947    0.0000 Br   0  0  0  0  0  0  0  0  0  0  0  0
    0.6662   -1.9947    0.0000 C    0  0  0  0  0  0  0  0  0  0  0  0
    0.0000   -3.1476    0.0000 O    0  0  0  0  0  0  0  0  0  0  0  0
    1.9947   -0.6662    0.0000 C    0  0  0  0  0  0  0  0  0  0  0  0
    3.1476    0.0000    0.0000 O    0  0  0  0  0  0  0  0  0  0  0  0
  1  2  1  0  0  0  0
  2  3  2  0  0  0  0
  2  4  1  0  0  0  0
  4  5  1  0  0  0  0
  4  6  1  0  0  0  0
  4  8  1  0  0  0  0
  6  7  1  0  0  0  0
  8  9  1  0  0  0  0
M  END
> <ID>
3789

> <Formula>
C3H6BrNO4

> <FW>
199.988

> <DSSTox_CID>
4652

> <DSSTox_RID>
77484

> <DSSTox_GSID>
24652

> <DSSTox_FileID_Sort>
2167

> <TS_ChemName>
Bronopol

> <TS_ChemName_Synonyms>
Bronopol (2-Bromo-2-nitro-1,3-propanediol)

> <TS_CASRN>
52-51-7

> <CASRN_ChemName_Relationship>
primary

> <TS_Description>
single chemical compound

> <ChemNote>


> <STRUCTURE_Shown>
tested chemical

> <STRUCTURE_Formula>
C3H6BrNO4

> <STRUCTURE_MW>
199.988

> <STRUCTURE_ChemType>
defined organic

> <STRUCTURE_DefinedOrganicForm>
parent

> <STRUCTURE_IUPAC>
2-bromo-2-nitropropane-1,3-diol

> <STRUCTURE_SMILES>
[O-][N+](=O)C(Br)(CO)CO

> <STRUCTURE_SMILES_Desalt>
[O-][N+](=O)C(Br)(CO)CO

> <Substance_modify_yyyymmdd>
20080429

$$$$
