52-53-9
ChemmineR-0915142007XD

 33 34  0  0  0  0  0  0  0  0  1 V2000
    4.6141   -4.6464    0.0000 C   0  0  0  0  0  0  0  0  0  0  0  0
    3.4525   -3.9849    0.0000 C   0  0  0  0  0  0  0  0  0  0  0  0
    2.3070   -4.6464    0.0000 C   0  0  0  0  0  0  0  0  0  0  0  0
    1.1616   -3.9849    0.0000 C   0  0  0  0  0  0  0  0  0  0  0  0
   13.8261   -1.9844    0.0000 C   0  0  0  0  0  0  0  0  0  0  0  0
    1.1616   -2.6620    0.0000 C   0  0  0  0  0  0  0  0  0  0  0  0
   14.9716   -2.6620    0.0000 C   0  0  0  0  0  0  0  0  0  0  0  0
    3.4525   -2.6620    0.0000 C   0  0  0  0  0  0  0  0  0  0  0  0
   12.6645   -2.6620    0.0000 C   0  0  0  0  0  0  0  0  0  0  0  0
    2.3070   -1.9844    0.0000 C   0  0  0  0  0  0  0  0  0  0  0  0
   14.9716   -3.9849    0.0000 C   0  0  0  0  0  0  0  0  0  0  0  0
   12.6645   -3.9849    0.0000 C   0  0  0  0  0  0  0  0  0  0  0  0
    9.2120   -4.6464    0.0000 N   0  0  0  0  0  0  0  0  0  0  0  0
   13.8261   -4.6464    0.0000 C   0  0  0  0  0  0  0  0  0  0  0  0
    0.0000   -4.6464    0.0000 O   0  0  0  0  0  0  0  0  0  0  0  0
   10.3575   -3.9849    0.0000 C   0  0  0  0  0  0  0  0  0  0  0  0
   13.8261   -0.6615    0.0000 O   0  0  0  0  0  0  0  0  0  0  0  0
   11.5191   -4.6464    0.0000 C   0  0  0  0  0  0  0  0  0  0  0  0
    5.7595   -3.9849    0.0000 C   0  0  0  0  0  0  0  0  0  0  0  0
   16.1332   -1.9844    0.0000 O   0  0  0  0  0  0  0  0  0  0  0  0
    0.0000   -1.9844    0.0000 O   0  0  0  0  0  0  0  0  0  0  0  0
    6.9211   -4.6464    0.0000 C   0  0  0  0  0  0  0  0  0  0  0  0
    8.0504   -3.9849    0.0000 C   0  0  0  0  0  0  0  0  0  0  0  0
    9.2120   -5.9854    0.0000 C   0  0  0  0  0  0  0  0  0  0  0  0
    0.0000   -5.9854    0.0000 C   0  0  0  0  0  0  0  0  0  0  0  0
   12.6645    0.0000    0.0000 C   0  0  0  0  0  0  0  0  0  0  0  0
    0.0000   -0.6615    0.0000 C   0  0  0  0  0  0  0  0  0  0  0  0
   16.1332   -0.6615    0.0000 C   0  0  0  0  0  0  0  0  0  0  0  0
    5.2594   -5.8079    0.0000 C   0  0  0  0  0  0  0  0  0  0  0  0
    6.5985   -5.8241    0.0000 C   0  0  0  0  0  0  0  0  0  0  0  0
    3.9365   -5.7918    0.0000 C   0  0  0  0  0  0  0  0  0  0  0  0
    3.2589   -6.9373    0.0000 N   0  0  0  0  0  0  0  0  0  0  0  0
    4.5980   -6.9534    0.0000 C   0  0  0  0  0  0  0  0  0  0  0  0
  1  2  1  0  0  0  0
  1 19  1  0  0  0  0
  1 29  1  0  0  0  0
  1 31  1  0  0  0  0
  2  3  1  0  0  0  0
  2  8  2  0  0  0  0
  3  4  2  0  0  0  0
  4 15  1  0  0  0  0
  4  6  1  0  0  0  0
  5  9  2  0  0  0  0
  5 17  1  0  0  0  0
  5  7  1  0  0  0  0
  6 10  2  0  0  0  0
  6 21  1  0  0  0  0
  7 11  2  0  0  0  0
  7 20  1  0  0  0  0
  8 10  1  0  0  0  0
  9 12  1  0  0  0  0
 11 14  1  0  0  0  0
 12 18  1  0  0  0  0
 12 14  2  0  0  0  0
 13 23  1  0  0  0  0
 13 16  1  0  0  0  0
 13 24  1  0  0  0  0
 15 25  1  0  0  0  0
 16 18  1  0  0  0  0
 17 26  1  0  0  0  0
 19 22  1  0  0  0  0
 20 28  1  0  0  0  0
 21 27  1  0  0  0  0
 22 23  1  0  0  0  0
 29 30  1  0  0  0  0
 29 33  1  0  0  0  0
 31 32  3  0  0  0  0
M  END
> <ID>
8144

> <Formula>
C27H38N2O4

> <FW>
454.6016

> <DSSTox_CID>
21152

> <DSSTox_RID>
79636

> <DSSTox_GSID>
41152

> <DSSTox_FileID_Sort>
4318

> <TS_ChemName>
Verapamil

> <TS_ChemName_Synonyms>


> <TS_CASRN>
52-53-9

> <CASRN_ChemName_Relationship>
primary

> <TS_Description>
single chemical compound

> <ChemNote>


> <STRUCTURE_Shown>
tested chemical

> <STRUCTURE_Formula>
C27H38N2O4

> <STRUCTURE_MW>
454.6016

> <STRUCTURE_ChemType>
defined organic

> <STRUCTURE_DefinedOrganicForm>
parent

> <STRUCTURE_IUPAC>
2-(3,4-dimethoxyphenyl)-5-{[2-(3,4-dimethoxyphenyl)ethyl](methyl)amino}-2-(propan-2-yl)pentanenitrile

> <STRUCTURE_SMILES>
COc1cc(ccc1OC)C(C#N)(CCCN(C)CCc2ccc(OC)c(OC)c2)C(C)C

> <STRUCTURE_SMILES_Desalt>
COc1cc(ccc1OC)C(C#N)(CCCN(C)CCc2ccc(OC)c(OC)c2)C(C)C

> <Substance_modify_yyyymmdd>
20080429

$$$$
