52-67-5
ChemmineR-0915142007XD

  9  8  0  0  1  0  0  0  0  0  1 V2000
    2.3173   -1.9856    0.0000 C   0  0  0  0  0  0  0  0  0  0  0  0
    3.4644   -1.3176    0.0000 C   0  0  0  0  0  0  0  0  0  0  0  0
    1.1748   -1.3176    0.0000 C   0  0  0  0  0  0  0  0  0  0  0  0
    3.4644    0.0000    0.0000 O   0  0  0  0  0  0  0  0  0  0  0  0
    2.3173   -3.3032    0.0000 N   0  0  0  0  0  0  0  0  0  0  0  0
    0.0000   -0.6496    0.0000 S   0  0  0  0  0  0  0  0  0  0  0  0
    4.6070   -1.9856    0.0000 O   0  0  0  0  0  0  0  0  0  0  0  0
    0.4929   -2.4786    0.0000 C   0  0  0  0  0  0  0  0  0  0  0  0
    1.8290   -0.1566    0.0000 C   0  0  0  0  0  0  0  0  0  0  0  0
  1  2  1  0  0  0  0
  1  3  1  0  0  0  0
  1  5  1  6  0  0  0
  2  4  2  0  0  0  0
  2  7  1  0  0  0  0
  3  6  1  0  0  0  0
  3  8  1  0  0  0  0
  3  9  1  0  0  0  0
M  END
> <ID>
7248

> <Formula>
C5H11NO2S

> <FW>
149.2113

> <DSSTox_CID>
17069

> <DSSTox_RID>
79300

> <DSSTox_GSID>
37069

> <DSSTox_FileID_Sort>
3982

> <TS_ChemName>
D-Penicillamine

> <TS_ChemName_Synonyms>
D-Penicillamine (Penicillamine)

> <TS_CASRN>
52-67-5

> <CASRN_ChemName_Relationship>
primary

> <TS_Description>
single chemical compound

> <ChemNote>
stereochem

> <STRUCTURE_Shown>
tested chemical

> <STRUCTURE_Formula>
C5H11NO2S

> <STRUCTURE_MW>
149.2113

> <STRUCTURE_ChemType>
defined organic

> <STRUCTURE_DefinedOrganicForm>
parent

> <STRUCTURE_IUPAC>
3-sulfanyl-D-valine

> <STRUCTURE_SMILES>
O=C(O)[C@H](N)C(C)(C)S

> <STRUCTURE_SMILES_Desalt>
O=C(O)[C@H](N)C(C)(C)S

> <Substance_modify_yyyymmdd>
20080429

$$$$
