52-62-0
ChemmineR-0915142007XD

 37 36  0  0  1  0  0  0  0  0  2 V2000
   11.7973   -1.9258    0.0000 C   0  0  0  0  0  0  0  0  0  0  0  0
   13.0104   -2.4717    0.0000 N   0  3  0  0  0  0  0  0  0  0  0  0
   12.3432   -3.6241    0.0000 C   0  0  0  0  0  0  0  0  0  0  0  0
   11.0088   -3.6241    0.0000 C   0  0  0  0  0  0  0  0  0  0  0  0
   10.3567   -2.4717    0.0000 C   0  0  0  0  0  0  0  0  0  0  0  0
    9.0223   -2.4717    0.0000 C   0  0  0  0  0  0  0  0  0  0  0  0
    8.3551   -1.3192    0.0000 C   0  0  0  0  0  0  0  0  0  0  0  0
    7.0208   -1.3192    0.0000 N   0  3  0  0  0  0  0  0  0  0  0  0
    7.1572    0.0000    0.0000 C   0  0  0  0  0  0  0  0  0  0  0  0
    7.1572   -2.6385    0.0000 C   0  0  0  0  0  0  0  0  0  0  0  0
    5.9441   -3.1844    0.0000 C   0  0  0  0  0  0  0  0  0  0  0  0
    5.0495   -2.1987    0.0000 C   0  0  0  0  0  0  0  0  0  0  0  0
    5.7167   -1.0463    0.0000 C   0  0  0  0  0  0  0  0  0  0  0  0
   13.4198   -1.2131    0.0000 C   0  0  0  0  0  0  0  0  0  0  0  0
   14.7542   -1.2131    0.0000 C   0  0  0  0  0  0  0  0  0  0  0  0
   15.1636   -2.4717    0.0000 C   0  0  0  0  0  0  0  0  0  0  0  0
   14.0870   -3.2602    0.0000 C   0  0  0  0  0  0  0  0  0  0  0  0
    9.4924   -5.0950    0.0000 O   0  0  0  0  0  0  0  0  0  0  0  0
    9.4924   -6.4142    0.0000 C   0  0  0  0  0  0  0  0  0  0  0  0
   10.6449   -7.0814    0.0000 C   0  0  0  0  0  0  0  0  0  0  0  0
   10.6449   -8.4158    0.0000 O   0  0  0  0  0  0  0  0  0  0  0  0
   11.7973   -6.4142    0.0000 C   0  0  0  0  0  0  0  0  0  0  0  0
   12.9497   -7.0814    0.0000 O   0  5  0  0  0  0  0  0  0  0  0  0
   11.7973   -5.0950    0.0000 O   0  0  0  0  0  0  0  0  0  0  0  0
    8.3400   -7.0814    0.0000 C   0  0  0  0  0  0  0  0  0  0  0  0
    7.1876   -6.4142    0.0000 O   0  0  0  0  0  0  0  0  0  0  0  0
    8.3400   -8.4158    0.0000 O   0  0  0  0  0  0  0  0  0  0  0  0
    2.3049   -5.0950    0.0000 O   0  0  0  0  0  0  0  0  0  0  0  0
    2.3049   -6.4142    0.0000 C   0  0  0  0  0  0  0  0  0  0  0  0
    3.4573   -7.0814    0.0000 C   0  0  0  0  0  0  0  0  0  0  0  0
    3.4573   -8.4158    0.0000 O   0  0  0  0  0  0  0  0  0  0  0  0
    4.6097   -6.4142    0.0000 C   0  0  0  0  0  0  0  0  0  0  0  0
    5.7622   -7.0814    0.0000 O   0  5  0  0  0  0  0  0  0  0  0  0
    4.6097   -5.0950    0.0000 O   0  0  0  0  0  0  0  0  0  0  0  0
    1.1524   -7.0814    0.0000 C   0  0  0  0  0  0  0  0  0  0  0  0
    0.0000   -6.4142    0.0000 O   0  0  0  0  0  0  0  0  0  0  0  0
    1.1524   -8.4158    0.0000 O   0  0  0  0  0  0  0  0  0  0  0  0
  1  2  1  0  0  0  0
  2  3  1  0  0  0  0
  2 14  1  0  0  0  0
  2 17  1  0  0  0  0
  3  4  1  0  0  0  0
  4  5  1  0  0  0  0
  5  6  1  0  0  0  0
  6  7  1  0  0  0  0
  7  8  1  0  0  0  0
  8  9  1  0  0  0  0
  8 10  1  0  0  0  0
  8 13  1  0  0  0  0
 10 11  1  0  0  0  0
 11 12  1  0  0  0  0
 12 13  1  0  0  0  0
 14 15  1  0  0  0  0
 15 16  1  0  0  0  0
 16 17  1  0  0  0  0
 19 18  1  6  0  0  0
 19 20  1  0  0  0  0
 19 25  1  0  0  0  0
 20 21  1  1  0  0  0
 20 22  1  0  0  0  0
 22 23  1  0  0  0  0
 22 24  2  0  0  0  0
 25 26  1  0  0  0  0
 25 27  2  0  0  0  0
 29 28  1  6  0  0  0
 29 30  1  0  0  0  0
 29 35  1  0  0  0  0
 30 31  1  1  0  0  0
 30 32  1  0  0  0  0
 32 33  1  0  0  0  0
 32 34  2  0  0  0  0
 35 36  1  0  0  0  0
 35 37  2  0  0  0  0
M  END
> <ID>
11011

> <Formula>
C23H42N2O12

> <FW>
538.5858 (240.4269+149.0794+149.0794)

> <DSSTox_CID>
25542

> <DSSTox_RID>
80943

> <DSSTox_GSID>
45542

> <DSSTox_FileID_Sort>
5624

> <TS_ChemName>
Pentolinium ditartrate

> <TS_ChemName_Synonyms>


> <TS_CASRN>
52-62-0

> <CASRN_ChemName_Relationship>
primary

> <TS_Description>
single chemical compound

> <ChemNote>
stereochem; parent [144-44-5]

> <STRUCTURE_Shown>
tested chemical

> <STRUCTURE_Formula>
C23H42N2O12

> <STRUCTURE_MW>
538.5858

> <STRUCTURE_ChemType>
defined organic

> <STRUCTURE_DefinedOrganicForm>
complex

> <STRUCTURE_IUPAC>
1,1'-pentane-1,5-diylbis(1-methylpyrrolidinium) bis[(2S,3R)-3-carboxy-2,3-dihydroxypropanoate]

> <STRUCTURE_SMILES>
O=C(O)[C@H](O)[C@H](O)C([O-])=O.O=C(O)[C@H](O)[C@H](O)C([O-])=O.C[N+]1(CCCC1)CCCCC[N+]2(C)CCCC2

> <STRUCTURE_SMILES_Desalt>
C[N+]1(CCCC1)CCCCC[N+]2(C)CCCC2

> <Substance_modify_yyyymmdd>
20100107

$$$$
