52-86-8
ChemmineR-0915142007XD

 26 28  0  0  0  0  0  0  0  0  1 V2000
   12.7007   -1.8259    0.0000 C    0  0  0  0  0  0  0  0  0  0  0  0
   11.5050   -1.1473    0.0000 C    0  0  0  0  0  0  0  0  0  0  0  0
   12.7007   -3.1509    0.0000 C    0  0  0  0  0  0  0  0  0  0  0  0
   13.8641   -1.1473    0.0000 C    0  0  0  0  0  0  0  0  0  0  0  0
   10.3577   -0.4848    0.0000 C    0  0  0  0  0  0  0  0  0  0  0  0
   11.5050   -2.4884    0.0000 C    0  0  0  0  0  0  0  0  0  0  0  0
   12.1998    0.0000    0.0000 O    0  0  0  0  0  0  0  0  0  0  0  0
   13.8641   -3.8134    0.0000 C    0  0  0  0  0  0  0  0  0  0  0  0
   15.0275   -1.8259    0.0000 C    0  0  0  0  0  0  0  0  0  0  0  0
    9.2266   -1.1473    0.0000 C    0  0  0  0  0  0  0  0  0  0  0  0
   10.3577   -3.1509    0.0000 C    0  0  0  0  0  0  0  0  0  0  0  0
   15.0275   -3.1509    0.0000 C    0  0  0  0  0  0  0  0  0  0  0  0
    9.2266   -2.4884    0.0000 N    0  0  0  0  0  0  0  0  0  0  0  0
   16.1586   -3.8134    0.0000 Cl   0  0  0  0  0  0  0  0  0  0  0  0
    8.0308   -3.1509    0.0000 C    0  0  0  0  0  0  0  0  0  0  0  0
    6.8836   -2.4884    0.0000 C    0  0  0  0  0  0  0  0  0  0  0  0
    5.7040   -3.1509    0.0000 C    0  0  0  0  0  0  0  0  0  0  0  0
    4.5729   -2.4884    0.0000 C    0  0  0  0  0  0  0  0  0  0  0  0
    3.3610   -3.1509    0.0000 C    0  0  0  0  0  0  0  0  0  0  0  0
    4.5729   -1.1473    0.0000 O    0  0  0  0  0  0  0  0  0  0  0  0
    3.3610   -4.5244    0.0000 C    0  0  0  0  0  0  0  0  0  0  0  0
    2.2784   -2.4884    0.0000 C    0  0  0  0  0  0  0  0  0  0  0  0
    2.2784   -5.1385    0.0000 C    0  0  0  0  0  0  0  0  0  0  0  0
    1.1473   -3.1509    0.0000 C    0  0  0  0  0  0  0  0  0  0  0  0
    1.1473   -4.5244    0.0000 C    0  0  0  0  0  0  0  0  0  0  0  0
    0.0000   -5.1385    0.0000 F    0  0  0  0  0  0  0  0  0  0  0  0
  1  2  1  0  0  0  0
  1  3  2  0  0  0  0
  1  4  1  0  0  0  0
  2  5  1  0  0  0  0
  2  6  1  0  0  0  0
  2  7  1  0  0  0  0
  3  8  1  0  0  0  0
  4  9  2  0  0  0  0
  5 10  1  0  0  0  0
  6 11  1  0  0  0  0
  8 12  2  0  0  0  0
  9 12  1  0  0  0  0
 10 13  1  0  0  0  0
 11 13  1  0  0  0  0
 12 14  1  0  0  0  0
 13 15  1  0  0  0  0
 15 16  1  0  0  0  0
 16 17  1  0  0  0  0
 17 18  1  0  0  0  0
 18 19  1  0  0  0  0
 18 20  2  0  0  0  0
 19 21  1  0  0  0  0
 19 22  2  0  0  0  0
 21 23  2  0  0  0  0
 22 24  1  0  0  0  0
 23 25  1  0  0  0  0
 24 25  2  0  0  0  0
 25 26  1  0  0  0  0
M  END
> <ID>
6667

> <Formula>
C21H23ClFNO2

> <FW>
375.8642

> <DSSTox_CID>
14150

> <DSSTox_RID>
79117

> <DSSTox_GSID>
34150

> <DSSTox_FileID_Sort>
3799

> <TS_ChemName>
Haloperidol

> <TS_ChemName_Synonyms>


> <TS_CASRN>
52-86-8

> <CASRN_ChemName_Relationship>
primary

> <TS_Description>
single chemical compound

> <ChemNote>


> <STRUCTURE_Shown>
tested chemical

> <STRUCTURE_Formula>
C21H23ClFNO2

> <STRUCTURE_MW>
375.8642

> <STRUCTURE_ChemType>
defined organic

> <STRUCTURE_DefinedOrganicForm>
parent

> <STRUCTURE_IUPAC>
4-[4-(4-chlorophenyl)-4-hydroxypiperidin-1-yl]-1-(4-fluorophenyl)butan-1-one

> <STRUCTURE_SMILES>
Fc1ccc(cc1)C(=O)CCCN2CCC(O)(CC2)c3ccc(Cl)cc3

> <STRUCTURE_SMILES_Desalt>
Fc1ccc(cc1)C(=O)CCCN2CCC(O)(CC2)c3ccc(Cl)cc3

> <Substance_modify_yyyymmdd>
20080429

$$$$
