52-89-1
ChemmineR-0915142007XD

  8  6  0  0  1  0  0  0  0  0  1 V2000
    3.3264   -1.1594    0.0000 C    0  0  0  0  0  0  0  0  0  0  0  0
    1.9990   -1.1594    0.0000 C    0  0  0  0  0  0  0  0  0  0  0  0
    3.9981    0.0000    0.0000 O    0  0  0  0  0  0  0  0  0  0  0  0
    1.3274    0.0000    0.0000 N    0  0  0  0  0  0  0  0  0  0  0  0
    3.9981   -2.2989    0.0000 O    0  0  0  0  0  0  0  0  0  0  0  0
    0.0000   -2.2989    0.0000 S    0  0  0  0  0  0  0  0  0  0  0  0
    1.3274   -2.2989    0.0000 C    0  0  0  0  0  0  0  0  0  0  0  0
    2.6547   -2.5028    0.0000 Cl   0  0  0  0  0  0  0  0  0  0  0  0
  1  2  1  0  0  0  0
  1  3  2  0  0  0  0
  1  5  1  0  0  0  0
  2  4  1  6  0  0  0
  2  7  1  0  0  0  0
  6  7  1  0  0  0  0
M  END
> <ID>
357

> <Formula>
C3H8ClNO2S

> <FW>
157.6191 (121.1582+36.4609)

> <DSSTox_CID>
367

> <DSSTox_RID>
75543

> <DSSTox_GSID>
20367

> <DSSTox_FileID_Sort>
227

> <TS_ChemName>
l-Cysteine hydrochloride

> <TS_ChemName_Synonyms>


> <TS_CASRN>
52-89-1

> <CASRN_ChemName_Relationship>
primary

> <TS_Description>
single chemical compound

> <ChemNote>
stereochem; parent [52-90-4]

> <STRUCTURE_Shown>
tested chemical

> <STRUCTURE_Formula>
C3H8ClNO2S

> <STRUCTURE_MW>
157.6191

> <STRUCTURE_ChemType>
defined organic

> <STRUCTURE_DefinedOrganicForm>
complex

> <STRUCTURE_IUPAC>
L-cysteine hydrochloride (1:1)

> <STRUCTURE_SMILES>
Cl.O=C(O)[C@@H](N)CS

> <STRUCTURE_SMILES_Desalt>
O=C(O)[C@@H](N)CS

> <Substance_modify_yyyymmdd>
20080429

$$$$
