52-88-0
ChemmineR-0915142007XD

 26 27  0  0  1  0  0  0  0  0  2 V2000
    6.1800   -5.1912    0.0000 C   0  0  0  0  0  0  0  0  0  0  0  0
    6.1800   -6.4843    0.0000 C   0  0  0  0  0  0  0  0  0  0  0  0
    7.2924   -4.5732    0.0000 O   0  0  0  0  0  0  0  0  0  0  0  0
    7.2924   -7.1308    0.0000 C   0  0  0  0  0  0  0  0  0  0  0  0
    5.0771   -7.1308    0.0000 C   0  0  0  0  0  0  0  0  0  0  0  0
    3.9362   -6.4843    0.0000 O   0  0  0  0  0  0  0  0  0  0  0  0
    8.3953   -6.4843    0.0000 C   0  0  0  0  0  0  0  0  0  0  0  0
    7.2924   -8.4239    0.0000 C   0  0  0  0  0  0  0  0  0  0  0  0
    8.3953   -9.0609    0.0000 C   0  0  0  0  0  0  0  0  0  0  0  0
    9.5077   -7.1308    0.0000 C   0  0  0  0  0  0  0  0  0  0  0  0
    9.5077   -8.4239    0.0000 C   0  0  0  0  0  0  0  0  0  0  0  0
    3.4228   -2.1107    0.0000 C   0  0  0  0  0  0  0  0  0  0  0  0
    5.0771   -3.3467    0.0000 C   0  0  0  0  0  0  0  0  0  0  0  0
    4.2785   -2.6907    0.0000 C   0  0  0  0  0  0  0  0  0  0  0  0
    2.7668   -2.6907    0.0000 C   0  0  0  0  0  0  0  0  0  0  0  0
    2.5576   -1.4262    0.0000 N   0  3  0  0  0  0  0  0  0  0  0  0
    4.8585   -2.0727    0.0000 C   0  0  0  0  0  0  0  0  0  0  0  0
    1.9681   -3.7936    0.0000 C   0  0  0  0  0  0  0  0  0  0  0  0
    2.9284   -3.2041    0.0000 C   0  0  0  0  0  0  0  0  0  0  0  0
    2.3674    0.0000    0.0000 C   0  0  0  0  0  0  0  0  0  0  0  0
    5.0771   -4.3260    0.0000 O   0  0  0  0  0  0  0  0  0  0  0  0
    0.8082   -1.1790    0.0000 C   0  0  0  0  0  0  0  0  0  0  0  0
    2.5671   -4.6017    0.0000 O   0  5  0  0  0  0  0  0  0  0  0  0
    2.0917   -7.4065    0.0000 O   0  5  0  0  0  0  0  0  0  0  0  0
    1.5498   -5.8092    0.0000 N   0  3  0  0  0  0  0  0  0  0  0  0
    0.0000   -5.6191    0.0000 O   0  0  0  0  0  0  0  0  0  0  0  0
  1  2  1  0  0  0  0
  1  3  2  0  0  0  0
  1 21  1  0  0  0  0
  2  4  1  0  0  0  0
  2  5  1  0  0  0  0
  4  7  1  0  0  0  0
  4  8  2  0  0  0  0
  5  6  1  0  0  0  0
  7 10  2  0  0  0  0
  8  9  1  0  0  0  0
  9 11  2  0  0  0  0
 10 11  1  0  0  0  0
 12 16  1  1  0  0  0
 12 17  1  0  0  0  0
 12 19  1  0  0  0  0
 13 14  1  0  0  0  0
 13 17  1  0  0  0  0
 13 21  1  6  0  0  0
 14 15  1  0  0  0  0
 15 16  1  6  0  0  0
 15 18  1  0  0  0  0
 16 20  1  0  0  0  0
 16 22  1  0  0  0  0
 18 19  1  0  0  0  0
 23 25  1  0  0  0  0
 24 25  1  0  0  0  0
 25 26  2  0  0  0  0
M  END
> <ID>
11012

> <Formula>
C18H26N2O6

> <FW>
366.4088 (304.4034+62.0054)

> <DSSTox_CID>
25543

> <DSSTox_RID>
80944

> <DSSTox_GSID>
45543

> <DSSTox_FileID_Sort>
5625

> <TS_ChemName>
Methylatropine nitrate

> <TS_ChemName_Synonyms>


> <TS_CASRN>
52-88-0

> <CASRN_ChemName_Relationship>
primary

> <TS_Description>
single chemical compound

> <ChemNote>
stereochem; parent [31610-87-4]

> <STRUCTURE_Shown>
tested chemical

> <STRUCTURE_Formula>
C18H26N2O6

> <STRUCTURE_MW>
366.4088

> <STRUCTURE_ChemType>
defined organic

> <STRUCTURE_DefinedOrganicForm>
complex

> <STRUCTURE_IUPAC>
(3-endo)-3-[(3-hydroxy-2-phenylpropanoyl)oxy]-8,8-dimethyl-8-azoniabicyclo[3.2.1]octane nitrate

> <STRUCTURE_SMILES>
C[N+]2(C)[C@H]1C[C@@H](C[C@@H]2CC1)OC(=O)C(CO)c3ccccc3.[O-][N+]([O-])=O

> <STRUCTURE_SMILES_Desalt>
C[N+]2(C)[C@H]1C[C@@H](C[C@@H]2CC1)OC(=O)C(CO)c3ccccc3

> <Substance_modify_yyyymmdd>
20100107

$$$$
