52-85-7
ChemmineR-0915142007XD

 19 19  0  0  0  0  0  0  0  0  1 V2000
    2.0049   -3.4648    0.0000 S   0  0  0  0  0  0  0  0  0  0  0  0
    7.9784   -2.3133    0.0000 P   0  0  0  0  0  0  0  0  0  0  0  0
    3.3312   -3.4648    0.0000 C   0  0  0  0  0  0  0  0  0  0  0  0
    0.6683   -3.4648    0.0000 N   0  0  0  0  0  0  0  0  0  0  0  0
    2.0049   -4.7911    0.0000 O   0  0  0  0  0  0  0  0  0  0  0  0
    2.0049   -2.1282    0.0000 O   0  0  0  0  0  0  0  0  0  0  0  0
    6.8268   -1.6347    0.0000 S   0  0  0  0  0  0  0  0  0  0  0  0
    7.3203   -3.4648    0.0000 O   0  0  0  0  0  0  0  0  0  0  0  0
    3.9892   -2.3133    0.0000 C   0  0  0  0  0  0  0  0  0  0  0  0
    3.9892   -4.6163    0.0000 C   0  0  0  0  0  0  0  0  0  0  0  0
    9.1299   -2.9610    0.0000 O   0  0  0  0  0  0  0  0  0  0  0  0
    8.6466   -1.1515    0.0000 O   0  0  0  0  0  0  0  0  0  0  0  0
    5.9940   -3.4648    0.0000 C   0  0  0  0  0  0  0  0  0  0  0  0
    5.3155   -4.6163    0.0000 C   0  0  0  0  0  0  0  0  0  0  0  0
    5.3155   -2.3133    0.0000 C   0  0  0  0  0  0  0  0  0  0  0  0
    0.0000   -2.3133    0.0000 C   0  0  0  0  0  0  0  0  0  0  0  0
    0.0000   -4.6163    0.0000 C   0  0  0  0  0  0  0  0  0  0  0  0
   10.2814   -2.3133    0.0000 C   0  0  0  0  0  0  0  0  0  0  0  0
    7.9784    0.0000    0.0000 C   0  0  0  0  0  0  0  0  0  0  0  0
  1  3  1  0  0  0  0
  1  4  1  0  0  0  0
  1  5  2  0  0  0  0
  1  6  2  0  0  0  0
  2  8  1  0  0  0  0
  2  7  2  0  0  0  0
  2 11  1  0  0  0  0
  2 12  1  0  0  0  0
  3  9  1  0  0  0  0
  3 10  2  0  0  0  0
  4 16  1  0  0  0  0
  4 17  1  0  0  0  0
  8 13  1  0  0  0  0
  9 15  2  0  0  0  0
 10 14  1  0  0  0  0
 11 18  1  0  0  0  0
 12 19  1  0  0  0  0
 13 14  2  0  0  0  0
 13 15  1  0  0  0  0
M  END
> <ID>
8901

> <Formula>
C10H16NO5PS2

> <FW>
325.3415

> <DSSTox_CID>
21966

> <DSSTox_RID>
79889

> <DSSTox_GSID>
41966

> <DSSTox_FileID_Sort>
4571

> <TS_ChemName>
Famphur

> <TS_ChemName_Synonyms>


> <TS_CASRN>
52-85-7

> <CASRN_ChemName_Relationship>
primary

> <TS_Description>
single chemical compound

> <ChemNote>


> <STRUCTURE_Shown>
tested chemical

> <STRUCTURE_Formula>
C10H16NO5PS2

> <STRUCTURE_MW>
325.3415

> <STRUCTURE_ChemType>
defined organic

> <STRUCTURE_DefinedOrganicForm>
parent

> <STRUCTURE_IUPAC>
O-[4-(dimethylsulfamoyl)phenyl] O,O-dimethyl phosphorothioate

> <STRUCTURE_SMILES>
O=S(=O)(N(C)C)c1ccc(OP(=S)(OC)OC)cc1

> <STRUCTURE_SMILES_Desalt>
O=S(=O)(N(C)C)c1ccc(OP(=S)(OC)OC)cc1

> <Substance_modify_yyyymmdd>
20080825

$$$$
