520-26-3
ChemmineR-0915142007XD

 43 47  0  0  1  0  0  0  0  0  1 V2000
   13.9002   -5.3558    0.0000 C   0  0  0  0  0  0  0  0  0  0  0  0
   15.0672   -6.0227    0.0000 C   0  0  0  0  0  0  0  0  0  0  0  0
   13.9002   -4.0638    0.0000 C   0  0  0  0  0  0  0  0  0  0  0  0
   15.0672   -3.4177    0.0000 O   0  0  0  0  0  0  0  0  0  0  0  0
   12.7748   -6.0227    0.0000 C   0  0  0  0  0  0  0  0  0  0  0  0
   16.2134   -4.0638    0.0000 C   0  0  0  0  0  0  0  0  0  0  0  0
   16.2134   -5.3558    0.0000 C   0  0  0  0  0  0  0  0  0  0  0  0
   11.6286   -4.0638    0.0000 C   0  0  0  0  0  0  0  0  0  0  0  0
   12.7748   -3.4177    0.0000 C   0  0  0  0  0  0  0  0  0  0  0  0
   10.3574   -3.3344    0.0000 O   0  0  0  0  0  0  0  0  0  0  0  0
   11.6286   -5.3558    0.0000 C   0  0  0  0  0  0  0  0  0  0  0  0
   17.3804   -3.4177    0.0000 C   0  0  0  0  0  0  0  0  0  0  0  0
   17.3804   -2.1048    0.0000 C   0  0  0  0  0  0  0  0  0  0  0  0
   18.5058   -1.4171    0.0000 C   0  0  0  0  0  0  0  0  0  0  0  0
   15.0672   -7.3773    0.0000 O   0  0  0  0  0  0  0  0  0  0  0  0
   19.6728   -2.1048    0.0000 C   0  0  0  0  0  0  0  0  0  0  0  0
   18.5058   -4.0638    0.0000 C   0  0  0  0  0  0  0  0  0  0  0  0
   19.6728   -3.4177    0.0000 C   0  0  0  0  0  0  0  0  0  0  0  0
   12.7748   -7.3773    0.0000 O   0  0  0  0  0  0  0  0  0  0  0  0
   18.5058   -0.0625    0.0000 O   0  0  0  0  0  0  0  0  0  0  0  0
   20.8399   -1.4171    0.0000 O   0  0  0  0  0  0  0  0  0  0  0  0
   20.8399   -0.0625    0.0000 C   0  0  0  0  0  0  0  0  0  0  0  0
    9.2112   -4.0013    0.0000 C   0  0  0  0  0  0  0  0  0  0  0  0
    9.2112   -5.3142    0.0000 C   0  0  0  0  0  0  0  0  0  0  0  0
    8.0442   -3.3344    0.0000 O   0  0  0  0  0  0  0  0  0  0  0  0
    8.0442   -5.9810    0.0000 C   0  0  0  0  0  0  0  0  0  0  0  0
    6.8980   -4.0013    0.0000 C   0  0  0  0  0  0  0  0  0  0  0  0
    6.8980   -5.3142    0.0000 C   0  0  0  0  0  0  0  0  0  0  0  0
   10.3574   -5.9810    0.0000 O   0  0  0  0  0  0  0  0  0  0  0  0
    8.0442   -7.3148    0.0000 O   0  0  0  0  0  0  0  0  0  0  0  0
    5.7310   -5.9810    0.0000 O   0  0  0  0  0  0  0  0  0  0  0  0
    5.7310   -3.3344    0.0000 C   0  0  0  0  0  0  0  0  0  0  0  0
    4.5848   -4.0013    0.0000 O   0  0  0  0  0  0  0  0  0  0  0  0
    3.4386   -3.3344    0.0000 C   0  0  0  0  0  0  0  0  0  0  0  0
    2.2924   -4.0013    0.0000 C   0  0  0  0  0  0  0  0  0  0  0  0
    3.4386   -2.0006    0.0000 O   0  0  0  0  0  0  0  0  0  0  0  0
    1.1462   -3.3344    0.0000 C   0  0  0  0  0  0  0  0  0  0  0  0
    2.2924   -1.3338    0.0000 C   0  0  0  0  0  0  0  0  0  0  0  0
    1.1462   -2.0006    0.0000 C   0  0  0  0  0  0  0  0  0  0  0  0
    2.2924   -5.3142    0.0000 O   0  0  0  0  0  0  0  0  0  0  0  0
    0.0000   -4.0013    0.0000 O   0  0  0  0  0  0  0  0  0  0  0  0
    0.0000   -1.3338    0.0000 O   0  0  0  0  0  0  0  0  0  0  0  0
    2.2924    0.0000    0.0000 C   0  0  0  0  0  0  0  0  0  0  0  0
  1  2  1  0  0  0  0
  1  3  2  0  0  0  0
  1  5  1  0  0  0  0
  2  7  1  0  0  0  0
  2 15  2  0  0  0  0
  3  4  1  0  0  0  0
  3  9  1  0  0  0  0
  4  6  1  0  0  0  0
  5 11  2  0  0  0  0
  5 19  1  0  0  0  0
  6 12  1  6  0  0  0
  6  7  1  0  0  0  0
  8 11  1  0  0  0  0
  8 10  1  0  0  0  0
  8  9  2  0  0  0  0
 23 10  1  1  0  0  0
 12 13  2  0  0  0  0
 12 17  1  0  0  0  0
 13 14  1  0  0  0  0
 14 20  1  0  0  0  0
 14 16  2  0  0  0  0
 16 18  1  0  0  0  0
 16 21  1  0  0  0  0
 17 18  2  0  0  0  0
 21 22  1  0  0  0  0
 23 24  1  0  0  0  0
 23 25  1  0  0  0  0
 24 26  1  0  0  0  0
 24 29  1  6  0  0  0
 25 27  1  0  0  0  0
 26 28  1  0  0  0  0
 26 30  1  1  0  0  0
 27 28  1  0  0  0  0
 27 32  1  1  0  0  0
 28 31  1  6  0  0  0
 32 33  1  0  0  0  0
 34 33  1  1  0  0  0
 34 35  1  0  0  0  0
 34 36  1  0  0  0  0
 35 37  1  0  0  0  0
 35 40  1  6  0  0  0
 36 38  1  0  0  0  0
 37 39  1  0  0  0  0
 37 41  1  6  0  0  0
 38 39  1  0  0  0  0
 38 43  1  6  0  0  0
 39 42  1  1  0  0  0
M  END
> <ID>
9990

> <Formula>
C28H34O15

> <FW>
610.5606

> <DSSTox_CID>
24328

> <DSSTox_RID>
80154

> <DSSTox_GSID>
44328

> <DSSTox_FileID_Sort>
4836

> <TS_ChemName>
Hesperidin

> <TS_ChemName_Synonyms>


> <TS_CASRN>
520-26-3

> <CASRN_ChemName_Relationship>
primary

> <TS_Description>
single chemical compound

> <ChemNote>
stereochem

> <STRUCTURE_Shown>
tested chemical

> <STRUCTURE_Formula>
C28H34O15

> <STRUCTURE_MW>
610.5606

> <STRUCTURE_ChemType>
defined organic

> <STRUCTURE_DefinedOrganicForm>
parent

> <STRUCTURE_IUPAC>
(2S)-5-hydroxy-2-(3-hydroxy-4-methoxyphenyl)-4-oxo-3,4-dihydro-2H-chromen-7-yl 6-O-(6-deoxy-alpha-L-mannopyranosyl)-beta-D-glucopyranoside

> <STRUCTURE_SMILES>
COc1ccc(cc1O)[C@@H]2CC(=O)c3c(O)cc(cc3O2)O[C@@H]5O[C@H](CO[C@@H]4O[C@@H](C)[C@H](O)[C@@H](O)[C@H]4O)[C@@H](O)[C@H](O)[C@H]5O

> <STRUCTURE_SMILES_Desalt>
COc1ccc(cc1O)[C@@H]2CC(=O)c3c(O)cc(cc3O2)O[C@@H]5O[C@H](CO[C@@H]4O[C@@H](C)[C@H](O)[C@@H](O)[C@H]4O)[C@@H](O)[C@H](O)[C@H]5O

> <Substance_modify_yyyymmdd>
20090602

$$$$
