520-18-3
ChemmineR-0915142007XD

 21 23  0  0  0  0  0  0  0  0  1 V2000
    4.6012    0.0000    0.0000 O   0  0  0  0  0  0  0  0  0  0  0  0
    4.6012   -1.3265    0.0000 C   0  0  0  0  0  0  0  0  0  0  0  0
    3.4509   -1.9897    0.0000 C   0  0  0  0  0  0  0  0  0  0  0  0
    3.4509   -3.3162    0.0000 C   0  0  0  0  0  0  0  0  0  0  0  0
    2.3006   -3.9898    0.0000 C   0  0  0  0  0  0  0  0  0  0  0  0
    1.1503   -3.3162    0.0000 C   0  0  0  0  0  0  0  0  0  0  0  0
    1.1503   -1.9897    0.0000 C   0  0  0  0  0  0  0  0  0  0  0  0
    2.3006   -1.3265    0.0000 C   0  0  0  0  0  0  0  0  0  0  0  0
    2.3006    0.0000    0.0000 O   0  0  0  0  0  0  0  0  0  0  0  0
    0.0000   -3.9898    0.0000 O   0  0  0  0  0  0  0  0  0  0  0  0
    4.6012   -3.9898    0.0000 O   0  0  0  0  0  0  0  0  0  0  0  0
    5.7619   -3.3162    0.0000 C   0  0  0  0  0  0  0  0  0  0  0  0
    5.7619   -1.9897    0.0000 C   0  0  0  0  0  0  0  0  0  0  0  0
    6.9122   -1.3265    0.0000 O   0  0  0  0  0  0  0  0  0  0  0  0
    6.9122   -3.9898    0.0000 C   0  0  0  0  0  0  0  0  0  0  0  0
    8.0625   -3.3162    0.0000 C   0  0  0  0  0  0  0  0  0  0  0  0
    9.2128   -3.9898    0.0000 C   0  0  0  0  0  0  0  0  0  0  0  0
    9.2128   -5.3163    0.0000 C   0  0  0  0  0  0  0  0  0  0  0  0
    8.0625   -5.9795    0.0000 C   0  0  0  0  0  0  0  0  0  0  0  0
    6.9122   -5.3163    0.0000 C   0  0  0  0  0  0  0  0  0  0  0  0
   10.3631   -5.9795    0.0000 O   0  0  0  0  0  0  0  0  0  0  0  0
  1  2  2  0  0  0  0
  2  3  1  0  0  0  0
  2 13  1  0  0  0  0
  3  4  2  0  0  0  0
  3  8  1  0  0  0  0
  4  5  1  0  0  0  0
  4 11  1  0  0  0  0
  5  6  2  0  0  0  0
  6  7  1  0  0  0  0
  6 10  1  0  0  0  0
  7  8  2  0  0  0  0
  8  9  1  0  0  0  0
 11 12  1  0  0  0  0
 12 13  2  0  0  0  0
 12 15  1  0  0  0  0
 13 14  1  0  0  0  0
 15 16  2  0  0  0  0
 15 20  1  0  0  0  0
 16 17  1  0  0  0  0
 17 18  2  0  0  0  0
 18 19  1  0  0  0  0
 18 21  1  0  0  0  0
 19 20  2  0  0  0  0
M  END
> <ID>
738

> <Formula>
C15H10O6

> <FW>
286.2363

> <DSSTox_CID>
768

> <DSSTox_RID>
75781

> <DSSTox_GSID>
20768

> <DSSTox_FileID_Sort>
465

> <TS_ChemName>
Kaempferol

> <TS_ChemName_Synonyms>


> <TS_CASRN>
520-18-3

> <CASRN_ChemName_Relationship>
primary

> <TS_Description>
single chemical compound

> <ChemNote>
tautomers

> <STRUCTURE_Shown>
tested chemical

> <STRUCTURE_Formula>
C15H10O6

> <STRUCTURE_MW>
286.2363

> <STRUCTURE_ChemType>
defined organic

> <STRUCTURE_DefinedOrganicForm>
parent

> <STRUCTURE_IUPAC>
3,5,7-trihydroxy-2-(4-hydroxyphenyl)-4H-chromen-4-one

> <STRUCTURE_SMILES>
Oc1ccc(cc1)C=3Oc2cc(O)cc(O)c2C(=O)C=3O

> <STRUCTURE_SMILES_Desalt>
Oc1ccc(cc1)C=3Oc2cc(O)cc(O)c2C(=O)C=3O

> <Substance_modify_yyyymmdd>
20080429

$$$$
