520-52-5
ChemmineR-0915142007XD

 19 20  0  0  0  0  0  0  0  0  1 V2000
    3.4612   -1.9871    0.0000 C   0  0  0  0  0  0  0  0  0  0  0  0
    3.4612   -0.6597    0.0000 C   0  0  0  0  0  0  0  0  0  0  0  0
    4.7153   -2.4025    0.0000 C   0  0  0  0  0  0  0  0  0  0  0  0
    2.3047   -2.6631    0.0000 C   0  0  0  0  0  0  0  0  0  0  0  0
    4.7153   -0.2443    0.0000 N   0  0  0  0  0  0  0  0  0  0  0  0
    2.3047    0.0000    0.0000 C   0  0  0  0  0  0  0  0  0  0  0  0
    5.4972   -1.3356    0.0000 C   0  0  0  0  0  0  0  0  0  0  0  0
    5.1307   -3.6729    0.0000 C   0  0  0  0  0  0  0  0  0  0  0  0
    1.1564   -1.9871    0.0000 C   0  0  0  0  0  0  0  0  0  0  0  0
    2.3047   -3.9905    0.0000 O   0  0  0  0  0  0  0  0  0  0  0  0
    1.1564   -0.6597    0.0000 C   0  0  0  0  0  0  0  0  0  0  0  0
    6.4256   -3.9417    0.0000 C   0  0  0  0  0  0  0  0  0  0  0  0
    1.1564   -4.6502    0.0000 P   0  0  0  0  0  0  0  0  0  0  0  0
    6.8490   -5.2121    0.0000 N   0  0  0  0  0  0  0  0  0  0  0  0
    0.4805   -3.4937    0.0000 O   0  0  0  0  0  0  0  0  0  0  0  0
    1.8080   -5.8066    0.0000 O   0  0  0  0  0  0  0  0  0  0  0  0
    0.0000   -5.3261    0.0000 O   0  0  0  0  0  0  0  0  0  0  0  0
    8.1439   -5.4809    0.0000 C   0  0  0  0  0  0  0  0  0  0  0  0
    5.9451   -6.1894    0.0000 C   0  0  0  0  0  0  0  0  0  0  0  0
  1  2  2  0  0  0  0
  1  3  1  0  0  0  0
  1  4  1  0  0  0  0
  2  5  1  0  0  0  0
  2  6  1  0  0  0  0
  3  7  2  0  0  0  0
  3  8  1  0  0  0  0
  4  9  2  0  0  0  0
  4 10  1  0  0  0  0
  5  7  1  0  0  0  0
  6 11  2  0  0  0  0
  8 12  1  0  0  0  0
  9 11  1  0  0  0  0
 10 13  1  0  0  0  0
 12 14  1  0  0  0  0
 13 15  2  0  0  0  0
 13 16  1  0  0  0  0
 13 17  1  0  0  0  0
 14 18  1  0  0  0  0
 14 19  1  0  0  0  0
M  END
> <ID>
13887

> <Formula>
C12H17N2O4P

> <FW>
284.2481

> <DSSTox_CID>
28824

> <DSSTox_RID>
83093

> <DSSTox_GSID>
48898

> <DSSTox_FileID_Sort>
7770

> <TS_ChemName>
Psilocybin

> <TS_ChemName_Synonyms>


> <TS_CASRN>
520-52-5

> <CASRN_ChemName_Relationship>
primary

> <TS_Description>
single chemical compound

> <ChemNote>


> <STRUCTURE_Shown>
tested chemical

> <STRUCTURE_Formula>
C12H17N2O4P

> <STRUCTURE_MW>
284.2481

> <STRUCTURE_ChemType>
defined organic

> <STRUCTURE_DefinedOrganicForm>
parent

> <STRUCTURE_IUPAC>
3-[2-(dimethylamino)ethyl]-1H-indol-4-yl dihydrogen phosphate

> <STRUCTURE_SMILES>
O=P(O)(O)Oc2cccc1ncc(CCN(C)C)c12

> <STRUCTURE_SMILES_Desalt>
O=P(O)(O)Oc2cccc1ncc(CCN(C)C)c12

> <Substance_modify_yyyymmdd>
20111204

$$$$
