520-27-4
ChemmineR-0915142007XD

 43 47  0  0  1  0  0  0  0  0  1 V2000
   13.7910   -5.3632    0.0000 C   0  0  0  0  0  0  0  0  0  0  0  0
   13.7910   -4.0060    0.0000 C   0  0  0  0  0  0  0  0  0  0  0  0
   14.9512   -6.0199    0.0000 C   0  0  0  0  0  0  0  0  0  0  0  0
   12.6089   -6.0199    0.0000 C   0  0  0  0  0  0  0  0  0  0  0  0
   14.9512   -3.3274    0.0000 O   0  0  0  0  0  0  0  0  0  0  0  0
   12.6089   -3.3274    0.0000 C   0  0  0  0  0  0  0  0  0  0  0  0
   16.0895   -5.3632    0.0000 C   0  0  0  0  0  0  0  0  0  0  0  0
   14.9512   -7.3552    0.0000 O   0  0  0  0  0  0  0  0  0  0  0  0
   11.4706   -5.3632    0.0000 C   0  0  0  0  0  0  0  0  0  0  0  0
   12.6089   -7.3552    0.0000 O   0  0  0  0  0  0  0  0  0  0  0  0
   16.0895   -4.0060    0.0000 C   0  0  0  0  0  0  0  0  0  0  0  0
   11.4706   -4.0060    0.0000 C   0  0  0  0  0  0  0  0  0  0  0  0
   17.2497   -3.3274    0.0000 C   0  0  0  0  0  0  0  0  0  0  0  0
   10.3104   -3.3274    0.0000 O   0  0  0  0  0  0  0  0  0  0  0  0
   17.2497   -2.0139    0.0000 C   0  0  0  0  0  0  0  0  0  0  0  0
   18.4099   -4.0060    0.0000 C   0  0  0  0  0  0  0  0  0  0  0  0
   18.4099   -1.3353    0.0000 C   0  0  0  0  0  0  0  0  0  0  0  0
   19.5920   -3.3274    0.0000 C   0  0  0  0  0  0  0  0  0  0  0  0
   19.5920   -2.0139    0.0000 C   0  0  0  0  0  0  0  0  0  0  0  0
   18.4099    0.0000    0.0000 O   0  0  0  0  0  0  0  0  0  0  0  0
   20.7303   -1.3353    0.0000 O   0  0  0  0  0  0  0  0  0  0  0  0
   21.8905   -2.0139    0.0000 C   0  0  0  0  0  0  0  0  0  0  0  0
    9.1502   -4.0060    0.0000 C   0  0  0  0  0  0  0  0  0  0  0  0
    9.1502   -5.3632    0.0000 C   0  0  0  0  0  0  0  0  0  0  0  0
    7.9900   -3.3274    0.0000 O   0  0  0  0  0  0  0  0  0  0  0  0
    7.9900   -6.0199    0.0000 C   0  0  0  0  0  0  0  0  0  0  0  0
    6.8298   -4.0060    0.0000 C   0  0  0  0  0  0  0  0  0  0  0  0
    6.8298   -5.3632    0.0000 C   0  0  0  0  0  0  0  0  0  0  0  0
    5.7134   -3.3711    0.0000 C   0  0  0  0  0  0  0  0  0  0  0  0
    5.7134   -5.9980    0.0000 O   0  0  0  0  0  0  0  0  0  0  0  0
    7.9900   -7.3114    0.0000 O   0  0  0  0  0  0  0  0  0  0  0  0
   10.2666   -5.9980    0.0000 O   0  0  0  0  0  0  0  0  0  0  0  0
    4.5970   -4.0060    0.0000 O   0  0  0  0  0  0  0  0  0  0  0  0
    3.4368   -3.3274    0.0000 C   0  0  0  0  0  0  0  0  0  0  0  0
    2.2766   -4.0060    0.0000 C   0  0  0  0  0  0  0  0  0  0  0  0
    3.4368   -2.0139    0.0000 O   0  0  0  0  0  0  0  0  0  0  0  0
    1.1164   -3.3274    0.0000 C   0  0  0  0  0  0  0  0  0  0  0  0
    2.2766   -1.3353    0.0000 C   0  0  0  0  0  0  0  0  0  0  0  0
    1.1164   -2.0139    0.0000 C   0  0  0  0  0  0  0  0  0  0  0  0
    2.2766   -0.0438    0.0000 C   0  0  0  0  0  0  0  0  0  0  0  0
    0.0000   -1.3572    0.0000 O   0  0  0  0  0  0  0  0  0  0  0  0
    0.0000   -3.9841    0.0000 O   0  0  0  0  0  0  0  0  0  0  0  0
    2.2766   -5.2975    0.0000 O   0  0  0  0  0  0  0  0  0  0  0  0
  1  2  2  0  0  0  0
  1  3  1  0  0  0  0
  1  4  1  0  0  0  0
  2  5  1  0  0  0  0
  2  6  1  0  0  0  0
  3  7  1  0  0  0  0
  3  8  2  0  0  0  0
  4  9  2  0  0  0  0
  4 10  1  0  0  0  0
  5 11  1  0  0  0  0
  6 12  2  0  0  0  0
  7 11  2  0  0  0  0
  9 12  1  0  0  0  0
 11 13  1  0  0  0  0
 12 14  1  0  0  0  0
 13 15  1  0  0  0  0
 13 16  2  0  0  0  0
 23 14  1  1  0  0  0
 15 17  2  0  0  0  0
 16 18  1  0  0  0  0
 17 19  1  0  0  0  0
 17 20  1  0  0  0  0
 18 19  2  0  0  0  0
 19 21  1  0  0  0  0
 21 22  1  0  0  0  0
 23 24  1  0  0  0  0
 23 25  1  0  0  0  0
 24 26  1  0  0  0  0
 24 32  1  6  0  0  0
 25 27  1  0  0  0  0
 26 28  1  0  0  0  0
 26 31  1  1  0  0  0
 27 28  1  0  0  0  0
 27 29  1  1  0  0  0
 28 30  1  6  0  0  0
 29 33  1  0  0  0  0
 34 33  1  1  0  0  0
 34 35  1  0  0  0  0
 34 36  1  0  0  0  0
 35 37  1  0  0  0  0
 35 43  1  6  0  0  0
 36 38  1  0  0  0  0
 37 39  1  0  0  0  0
 37 42  1  6  0  0  0
 38 39  1  0  0  0  0
 38 40  1  6  0  0  0
 39 41  1  1  0  0  0
M  END
> <ID>
11274

> <Formula>
C28H32O15

> <FW>
608.5447

> <DSSTox_CID>
25892

> <DSSTox_RID>
81206

> <DSSTox_GSID>
45892

> <DSSTox_FileID_Sort>
5887

> <TS_ChemName>
Diosmin

> <TS_ChemName_Synonyms>


> <TS_CASRN>
520-27-4

> <CASRN_ChemName_Relationship>
primary

> <TS_Description>
single chemical compound

> <ChemNote>
stereochem

> <STRUCTURE_Shown>
tested chemical

> <STRUCTURE_Formula>
C28H32O15

> <STRUCTURE_MW>
608.5447

> <STRUCTURE_ChemType>
defined organic

> <STRUCTURE_DefinedOrganicForm>
parent

> <STRUCTURE_IUPAC>
5-hydroxy-2-(3-hydroxy-4-methoxyphenyl)-4-oxo-4H-chromen-7-yl 6-O-(6-deoxy-alpha-L-mannopyranosyl)-beta-D-glucopyranoside

> <STRUCTURE_SMILES>
COc1ccc(cc1O)C2=CC(=O)c3c(O)cc(cc3O2)O[C@@H]5O[C@H](CO[C@@H]4O[C@@H](C)[C@H](O)[C@@H](O)[C@H]4O)[C@@H](O)[C@H](O)[C@H]5O

> <STRUCTURE_SMILES_Desalt>
COc1ccc(cc1O)C2=CC(=O)c3c(O)cc(cc3O2)O[C@@H]5O[C@H](CO[C@@H]4O[C@@H](C)[C@H](O)[C@@H](O)[C@H]4O)[C@@H](O)[C@H](O)[C@H]5O

> <Substance_modify_yyyymmdd>
20110922

$$$$
