520-85-4
ChemmineR-0915142007XD

 28 31  0  0  1  0  0  0  0  0  1 V2000
    3.4611   -4.4459    0.0000 C   0  0  0  0  0  0  0  0  0  0  0  0
    6.8638   -2.4082    0.0000 C   0  0  0  0  0  0  0  0  0  0  0  0
    3.4611   -5.7523    0.0000 C   0  0  0  0  0  0  0  0  0  0  0  0
    5.7523   -4.4459    0.0000 C   0  0  0  0  0  0  0  0  0  0  0  0
    8.1410   -2.0182    0.0000 C   0  0  0  0  0  0  0  0  0  0  0  0
    4.5531   -3.7536    0.0000 C   0  0  0  0  0  0  0  0  0  0  0  0
    6.8638   -3.7536    0.0000 C   0  0  0  0  0  0  0  0  0  0  0  0
    5.7523   -5.7523    0.0000 C   0  0  0  0  0  0  0  0  0  0  0  0
    2.2912   -6.4056    0.0000 C   0  0  0  0  0  0  0  0  0  0  0  0
    4.5531   -6.4056    0.0000 C   0  0  0  0  0  0  0  0  0  0  0  0
    5.7523   -1.7647    0.0000 C   0  0  0  0  0  0  0  0  0  0  0  0
    8.9015   -3.0907    0.0000 C   0  0  0  0  0  0  0  0  0  0  0  0
    4.5531   -2.4082    0.0000 C   0  0  0  0  0  0  0  0  0  0  0  0
    2.2912   -3.7536    0.0000 C   0  0  0  0  0  0  0  0  0  0  0  0
    8.1410   -4.1534    0.0000 C   0  0  0  0  0  0  0  0  0  0  0  0
    8.1410   -0.8287    0.0000 C   0  0  0  0  0  0  0  0  0  0  0  0
    1.1505   -5.7523    0.0000 C   0  0  0  0  0  0  0  0  0  0  0  0
    6.8540   -0.0097    0.0000 O   0  0  0  0  0  0  0  0  0  0  0  0
    0.0000   -6.4056    0.0000 O   0  0  0  0  0  0  0  0  0  0  0  0
    9.7497   -2.0182    0.0000 O   0  0  0  0  0  0  0  0  0  0  0  0
    1.1505   -4.4459    0.0000 C   0  0  0  0  0  0  0  0  0  0  0  0
    3.4611   -3.0907    0.0000 C   0  0  0  0  0  0  0  0  0  0  0  0
    6.8638   -1.1115    0.0000 C   0  0  0  0  0  0  0  0  0  0  0  0
    4.5531   -7.3903    0.0000 C   0  0  0  0  0  0  0  0  0  0  0  0
    9.2525    0.0000    0.0000 C   0  0  0  0  0  0  0  0  0  0  0  0
    5.7523   -3.1004    0.0000 H   0  0  0  0  0  0  0  0  0  0  0  0
    6.8638   -5.0991    0.0000 H   0  0  0  0  0  0  0  0  0  0  0  0
    4.5531   -5.0991    0.0000 H   0  0  0  0  0  0  0  0  0  0  0  0
  1  3  1  0  0  0  0
  1  6  1  0  0  0  0
  1 14  1  0  0  0  0
  1 22  1  1  0  0  0
  2 11  1  0  0  0  0
  2  5  1  0  0  0  0
  2 23  1  1  0  0  0
  2  7  1  0  0  0  0
  3  9  2  0  0  0  0
  3 10  1  0  0  0  0
  4  6  1  0  0  0  0
  4  7  1  0  0  0  0
  4  8  1  0  0  0  0
  4 26  1  1  0  0  0
  5 16  1  0  0  0  0
  5 20  1  6  0  0  0
  5 12  1  0  0  0  0
  6 13  1  0  0  0  0
  6 28  1  6  0  0  0
  7 15  1  0  0  0  0
  7 27  1  6  0  0  0
  8 10  1  0  0  0  0
  9 17  1  0  0  0  0
 10 24  1  6  0  0  0
 11 13  1  0  0  0  0
 12 15  1  0  0  0  0
 14 21  1  0  0  0  0
 16 18  2  0  0  0  0
 16 25  1  0  0  0  0
 17 21  1  0  0  0  0
 17 19  2  0  0  0  0
M  END
> <ID>
7134

> <Formula>
C22H32O3

> <FW>
344.4877

> <DSSTox_CID>
16508

> <DSSTox_RID>
79284

> <DSSTox_GSID>
36508

> <DSSTox_FileID_Sort>
3966

> <TS_ChemName>
Medroxyprogesterone

> <TS_ChemName_Synonyms>
6a-Methyl-17a-hydroxy-progesterone

> <TS_CASRN>
520-85-4

> <CASRN_ChemName_Relationship>
primary

> <TS_Description>
single chemical compound

> <ChemNote>
stereochem

> <STRUCTURE_Shown>
tested chemical

> <STRUCTURE_Formula>
C22H32O3

> <STRUCTURE_MW>
344.4877

> <STRUCTURE_ChemType>
defined organic

> <STRUCTURE_DefinedOrganicForm>
parent

> <STRUCTURE_IUPAC>
(6alpha)-17-hydroxy-6-methylpregn-4-ene-3,20-dione

> <STRUCTURE_SMILES>
CC(=O)[C@@]3(O)CC[C@H]2[C@@H]4C[C@H](C)C1=CC(=O)CC[C@]1(C)[C@H]4CC[C@@]23C

> <STRUCTURE_SMILES_Desalt>
CC(=O)[C@@]3(O)CC[C@H]2[C@@H]4C[C@H](C)C1=CC(=O)CC[C@]1(C)[C@H]4CC[C@@]23C

> <Substance_modify_yyyymmdd>
20080429

$$$$
