5205-82-3
ChemmineR-0915142007XD

 32 33  0  0  0  0  0  0  0  0  2 V2000
    1.2894   -1.8845    0.0000 S   0  0  0  0  0  0  0  0  0  0  0  0
    2.6213   -1.8845    0.0000 O   0  5  0  0  0  0  0  0  0  0  0  0
    0.0000   -1.8845    0.0000 O   0  0  0  0  0  0  0  0  0  0  0  0
    1.2894   -0.5951    0.0000 O   0  0  0  0  0  0  0  0  0  0  0  0
    1.2894   -3.2164    0.0000 O   0  0  0  0  0  0  0  0  0  0  0  0
    2.4654   -3.8540    0.0000 C   0  0  0  0  0  0  0  0  0  0  0  0
    4.9450   -1.3319    0.0000 N   0  3  0  0  0  0  0  0  0  0  0  0
   10.6977   -1.9837    0.0000 C   0  0  0  0  0  0  0  0  0  0  0  0
    9.5500   -1.3319    0.0000 C   0  0  0  0  0  0  0  0  0  0  0  0
    8.4023   -1.9837    0.0000 O   0  0  0  0  0  0  0  0  0  0  0  0
    6.1069   -1.9837    0.0000 C   0  0  0  0  0  0  0  0  0  0  0  0
    9.5500    0.0000    0.0000 O   0  0  0  0  0  0  0  0  0  0  0  0
   11.8454   -2.6496    0.0000 C   0  0  0  0  0  0  0  0  0  0  0  0
   10.0317   -3.1597    0.0000 C   0  0  0  0  0  0  0  0  0  0  0  0
    7.2546   -1.3319    0.0000 C   0  0  0  0  0  0  0  0  0  0  0  0
   11.3636   -0.8501    0.0000 O   0  0  0  0  0  0  0  0  0  0  0  0
    5.5968   -0.1700    0.0000 C   0  0  0  0  0  0  0  0  0  0  0  0
    4.2791   -0.1700    0.0000 C   0  0  0  0  0  0  0  0  0  0  0  0
    3.7690   -1.9837    0.0000 C   0  0  0  0  0  0  0  0  0  0  0  0
   10.6977   -4.3216    0.0000 C   0  0  0  0  0  0  0  0  0  0  0  0
   13.0214   -1.9837    0.0000 C   0  0  0  0  0  0  0  0  0  0  0  0
   11.8454   -3.9815    0.0000 C   0  0  0  0  0  0  0  0  0  0  0  0
    8.7140   -3.1597    0.0000 C   0  0  0  0  0  0  0  0  0  0  0  0
    6.1069   -3.3297    0.0000 C   0  0  0  0  0  0  0  0  0  0  0  0
    3.7690   -3.3297    0.0000 C   0  0  0  0  0  0  0  0  0  0  0  0
   10.0317   -5.4693    0.0000 C   0  0  0  0  0  0  0  0  0  0  0  0
    8.0480   -4.3216    0.0000 C   0  0  0  0  0  0  0  0  0  0  0  0
   13.0214   -4.6475    0.0000 C   0  0  0  0  0  0  0  0  0  0  0  0
   14.1691   -2.6496    0.0000 C   0  0  0  0  0  0  0  0  0  0  0  0
    4.9450   -3.9815    0.0000 C   0  0  0  0  0  0  0  0  0  0  0  0
    8.7140   -5.4693    0.0000 C   0  0  0  0  0  0  0  0  0  0  0  0
   14.1691   -3.9815    0.0000 C   0  0  0  0  0  0  0  0  0  0  0  0
  1  2  1  0  0  0  0
  1  3  2  0  0  0  0
  1  4  2  0  0  0  0
  1  5  1  0  0  0  0
  5  6  1  0  0  0  0
  7 11  1  0  0  0  0
  7 17  1  0  0  0  0
  7 18  1  0  0  0  0
  7 19  1  0  0  0  0
  8  9  1  0  0  0  0
  8 13  1  0  0  0  0
  8 14  1  0  0  0  0
  8 16  1  0  0  0  0
  9 10  1  0  0  0  0
  9 12  2  0  0  0  0
 10 15  1  0  0  0  0
 11 15  1  0  0  0  0
 11 24  1  0  0  0  0
 13 21  2  0  0  0  0
 13 22  1  0  0  0  0
 14 20  2  0  0  0  0
 14 23  1  0  0  0  0
 19 25  1  0  0  0  0
 20 26  1  0  0  0  0
 21 29  1  0  0  0  0
 22 28  2  0  0  0  0
 23 27  2  0  0  0  0
 24 30  1  0  0  0  0
 25 30  1  0  0  0  0
 26 31  2  0  0  0  0
 27 31  1  0  0  0  0
 28 32  1  0  0  0  0
 29 32  2  0  0  0  0
M  END
> <ID>
11833

> <Formula>
C23H31NO7S

> <FW>
465.5597 (111.0977+354.4621)

> <DSSTox_CID>
26615

> <DSSTox_RID>
81768

> <DSSTox_GSID>
46615

> <DSSTox_FileID_Sort>
6449

> <TS_ChemName>
Bevonium metilsulfate

> <TS_ChemName_Synonyms>


> <TS_CASRN>
5205-82-3

> <CASRN_ChemName_Relationship>
primary

> <TS_Description>
single chemical compound

> <ChemNote>
ammonium; parent [33371-53-8]

> <STRUCTURE_Shown>
tested chemical

> <STRUCTURE_Formula>
C23H31NO7S

> <STRUCTURE_MW>
465.5597

> <STRUCTURE_ChemType>
defined organic

> <STRUCTURE_DefinedOrganicForm>
complex

> <STRUCTURE_IUPAC>
2-({[hydroxy(diphenyl)acetyl]oxy}methyl)-1,1-dimethylpiperidinium methyl sulfate

> <STRUCTURE_SMILES>
[O-]S(=O)(=O)OC.OC(C(=O)OCC1CCCC[N+]1(C)C)(c2ccccc2)c3ccccc3

> <STRUCTURE_SMILES_Desalt>
OC(C(=O)OCC1CCCC[N+]1(C)C)(c2ccccc2)c3ccccc3

> <Substance_modify_yyyymmdd>
20110809

$$$$
