5205-11-8
ChemmineR-0915142007XD

 14 14  0  0  0  0  0  0  0  0  1 V2000
    2.3152   -2.0108    0.0000 C   0  0  0  0  0  0  0  0  0  0  0  0
    3.4589   -1.3374    0.0000 C   0  0  0  0  0  0  0  0  0  0  0  0
    4.6119   -1.9923    0.0000 O   0  0  0  0  0  0  0  0  0  0  0  0
    5.7556   -1.3374    0.0000 C   0  0  0  0  0  0  0  0  0  0  0  0
    6.9086   -1.9923    0.0000 C   0  0  0  0  0  0  0  0  0  0  0  0
    8.0708   -1.3374    0.0000 C   0  0  0  0  0  0  0  0  0  0  0  0
    8.0708    0.0000    0.0000 C   0  0  0  0  0  0  0  0  0  0  0  0
    9.2237   -1.9923    0.0000 C   0  0  0  0  0  0  0  0  0  0  0  0
    3.4589    0.0000    0.0000 O   0  0  0  0  0  0  0  0  0  0  0  0
    2.2967   -3.3298    0.0000 C   0  0  0  0  0  0  0  0  0  0  0  0
    1.1437   -4.0031    0.0000 C   0  0  0  0  0  0  0  0  0  0  0  0
    0.0000   -3.3482    0.0000 C   0  0  0  0  0  0  0  0  0  0  0  0
    0.0000   -2.0108    0.0000 C   0  0  0  0  0  0  0  0  0  0  0  0
    1.1530   -1.3374    0.0000 C   0  0  0  0  0  0  0  0  0  0  0  0
  1  2  1  0  0  0  0
  1 10  1  0  0  0  0
  1 14  2  0  0  0  0
  2  3  1  0  0  0  0
  2  9  2  0  0  0  0
  3  4  1  0  0  0  0
  4  5  1  0  0  0  0
  5  6  2  0  0  0  0
  6  7  1  0  0  0  0
  6  8  1  0  0  0  0
 10 11  2  0  0  0  0
 11 12  1  0  0  0  0
 12 13  2  0  0  0  0
 13 14  1  0  0  0  0
M  END
> <ID>
12281

> <Formula>
C12H14O2

> <FW>
190.2384

> <DSSTox_CID>
27131

> <DSSTox_RID>
82138

> <DSSTox_GSID>
47131

> <DSSTox_FileID_Sort>
6819

> <TS_ChemName>
3-Methyl-2-butenyl benzoate

> <TS_ChemName_Synonyms>


> <TS_CASRN>
5205-11-8

> <CASRN_ChemName_Relationship>
primary

> <TS_Description>
single chemical compound

> <ChemNote>


> <STRUCTURE_Shown>
tested chemical

> <STRUCTURE_Formula>
C12H14O2

> <STRUCTURE_MW>
190.2384

> <STRUCTURE_ChemType>
defined organic

> <STRUCTURE_DefinedOrganicForm>
parent

> <STRUCTURE_IUPAC>
3-methylbut-2-en-1-yl benzoate

> <STRUCTURE_SMILES>
C/C(C)=C\COC(=O)c1ccccc1

> <STRUCTURE_SMILES_Desalt>
C/C(C)=C\COC(=O)c1ccccc1

> <Substance_modify_yyyymmdd>
20100502

$$$$
