521-74-4
ChemmineR-0915142007XD

 13 14  0  0  0  0  0  0  0  0  1 V2000
    3.4552   -5.3211    0.0000 O    0  0  0  0  0  0  0  0  0  0  0  0
    3.4552   -3.9908    0.0000 C    0  0  0  0  0  0  0  0  0  0  0  0
    2.3035   -3.3285    0.0000 C    0  0  0  0  0  0  0  0  0  0  0  0
    1.1517   -3.9908    0.0000 N    0  0  0  0  0  0  0  0  0  0  0  0
    0.0000   -3.3285    0.0000 C    0  0  0  0  0  0  0  0  0  0  0  0
    0.0000   -1.9983    0.0000 C    0  0  0  0  0  0  0  0  0  0  0  0
    1.1517   -1.3303    0.0000 C    0  0  0  0  0  0  0  0  0  0  0  0
    2.3035   -1.9983    0.0000 C    0  0  0  0  0  0  0  0  0  0  0  0
    3.4552   -1.3303    0.0000 C    0  0  0  0  0  0  0  0  0  0  0  0
    3.4552    0.0000    0.0000 Br   0  0  0  0  0  0  0  0  0  0  0  0
    4.6070   -1.9983    0.0000 C    0  0  0  0  0  0  0  0  0  0  0  0
    4.6070   -3.3285    0.0000 C    0  0  0  0  0  0  0  0  0  0  0  0
    5.7587   -3.9908    0.0000 Br   0  0  0  0  0  0  0  0  0  0  0  0
  1  2  1  0  0  0  0
  2  3  2  0  0  0  0
  2 12  1  0  0  0  0
  3  4  1  0  0  0  0
  3  8  1  0  0  0  0
  4  5  2  0  0  0  0
  5  6  1  0  0  0  0
  6  7  2  0  0  0  0
  7  8  1  0  0  0  0
  8  9  2  0  0  0  0
  9 10  1  0  0  0  0
  9 11  1  0  0  0  0
 11 12  2  0  0  0  0
 12 13  1  0  0  0  0
M  END
> <ID>
11239

> <Formula>
C9H5Br2NO

> <FW>
302.9501

> <DSSTox_CID>
25849

> <DSSTox_RID>
81171

> <DSSTox_GSID>
45849

> <DSSTox_FileID_Sort>
5852

> <TS_ChemName>
Broxyquinoline

> <TS_ChemName_Synonyms>


> <TS_CASRN>
521-74-4

> <CASRN_ChemName_Relationship>
primary

> <TS_Description>
single chemical compound

> <ChemNote>


> <STRUCTURE_Shown>
tested chemical

> <STRUCTURE_Formula>
C9H5Br2NO

> <STRUCTURE_MW>
302.9501

> <STRUCTURE_ChemType>
defined organic

> <STRUCTURE_DefinedOrganicForm>
parent

> <STRUCTURE_IUPAC>
5,7-dibromoquinolin-8-ol

> <STRUCTURE_SMILES>
Oc1c(Br)cc(Br)c2cccnc12

> <STRUCTURE_SMILES_Desalt>
Oc1c(Br)cc(Br)c2cccnc12

> <Substance_modify_yyyymmdd>
20110922

$$$$
