521-17-5
ChemmineR-0915142007XD

 24 27  0  0  1  0  0  0  0  0  1 V2000
    3.4010   -3.7296    0.0000 C   0  0  0  0  0  0  0  0  0  0  0  0
    6.8464   -1.7760    0.0000 C   0  0  0  0  0  0  0  0  0  0  0  0
    3.4010   -5.0793    0.0000 C   0  0  0  0  0  0  0  0  0  0  0  0
    4.5554   -3.0724    0.0000 C   0  0  0  0  0  0  0  0  0  0  0  0
    6.8464   -3.0724    0.0000 C   0  0  0  0  0  0  0  0  0  0  0  0
    5.7186   -3.7296    0.0000 C   0  0  0  0  0  0  0  0  0  0  0  0
    4.5554   -5.7364    0.0000 C   0  0  0  0  0  0  0  0  0  0  0  0
    5.7186   -1.1011    0.0000 C   0  0  0  0  0  0  0  0  0  0  0  0
    5.7186   -5.0793    0.0000 C   0  0  0  0  0  0  0  0  0  0  0  0
    4.5554   -1.7760    0.0000 C   0  0  0  0  0  0  0  0  0  0  0  0
    2.2644   -3.0724    0.0000 C   0  0  0  0  0  0  0  0  0  0  0  0
    8.1251   -3.5253    0.0000 C   0  0  0  0  0  0  0  0  0  0  0  0
    8.1251   -1.3586    0.0000 C   0  0  0  0  0  0  0  0  0  0  0  0
    2.2644   -5.7364    0.0000 C   0  0  0  0  0  0  0  0  0  0  0  0
    8.8799   -2.4331    0.0000 C   0  0  0  0  0  0  0  0  0  0  0  0
    1.1100   -3.7296    0.0000 C   0  0  0  0  0  0  0  0  0  0  0  0
    1.1100   -5.0793    0.0000 C   0  0  0  0  0  0  0  0  0  0  0  0
    3.4010   -2.4331    0.0000 C   0  0  0  0  0  0  0  0  0  0  0  0
    6.8464   -0.4174    0.0000 C   0  0  0  0  0  0  0  0  0  0  0  0
    8.1251    0.0000    0.0000 O   0  0  0  0  0  0  0  0  0  0  0  0
    0.0000   -5.7986    0.0000 O   0  0  0  0  0  0  0  0  0  0  0  0
    5.7186   -2.4153    0.0000 H   0  0  0  0  0  0  0  0  0  0  0  0
    6.8464   -4.4222    0.0000 H   0  0  0  0  0  0  0  0  0  0  0  0
    4.5554   -4.4222    0.0000 H   0  0  0  0  0  0  0  0  0  0  0  0
  1  3  1  0  0  0  0
  1  4  1  0  0  0  0
  1 11  1  0  0  0  0
  1 18  1  1  0  0  0
  2  8  1  0  0  0  0
  2 13  1  0  0  0  0
  2 19  1  1  0  0  0
  2  5  1  0  0  0  0
  3  7  2  0  0  0  0
  3 14  1  0  0  0  0
  4  6  1  0  0  0  0
  4 10  1  0  0  0  0
  4 24  1  6  0  0  0
  5  6  1  0  0  0  0
  5 12  1  0  0  0  0
  5 23  1  6  0  0  0
  6  9  1  0  0  0  0
  6 22  1  1  0  0  0
  7  9  1  0  0  0  0
  8 10  1  0  0  0  0
 11 16  1  0  0  0  0
 12 15  1  0  0  0  0
 13 20  1  1  0  0  0
 13 15  1  0  0  0  0
 14 17  1  0  0  0  0
 16 17  1  0  0  0  0
 17 21  1  1  0  0  0
M  END
> <ID>
2364

> <Formula>
C19H30O2

> <FW>
290.4403

> <DSSTox_CID>
2609

> <DSSTox_RID>
76657

> <DSSTox_GSID>
22609

> <DSSTox_FileID_Sort>
1341

> <TS_ChemName>
Androstenediol

> <TS_ChemName_Synonyms>


> <TS_CASRN>
521-17-5

> <CASRN_ChemName_Relationship>
primary

> <TS_Description>
single chemical compound

> <ChemNote>
stereochem

> <STRUCTURE_Shown>
tested chemical

> <STRUCTURE_Formula>
C19H30O2

> <STRUCTURE_MW>
290.4403

> <STRUCTURE_ChemType>
defined organic

> <STRUCTURE_DefinedOrganicForm>
parent

> <STRUCTURE_IUPAC>
(3beta,17beta)-androst-5-ene-3,17-diol

> <STRUCTURE_SMILES>
O[C@H]4CC[C@@]3(C)C(=CC[C@@H]1[C@@H]3CC[C@]2(C)[C@@H](O)CC[C@@H]12)C4

> <STRUCTURE_SMILES_Desalt>
O[C@H]4CC[C@@]3(C)C(=CC[C@@H]1[C@@H]3CC[C@]2(C)[C@@H](O)CC[C@@H]12)C4

> <Substance_modify_yyyymmdd>
20080429

$$$$
