521-11-9
ChemmineR-0915142007XD

 26 29  0  0  1  0  0  0  0  0  1 V2000
    6.9123   -1.6548    0.0000 C   0  0  0  0  0  0  0  0  0  0  0  0
    3.4609   -3.6595    0.0000 C   0  0  0  0  0  0  0  0  0  0  0  0
    4.5956   -2.9692    0.0000 C   0  0  0  0  0  0  0  0  0  0  0  0
    6.9123   -2.9692    0.0000 C   0  0  0  0  0  0  0  0  0  0  0  0
    5.7682   -3.6595    0.0000 C   0  0  0  0  0  0  0  0  0  0  0  0
    3.4609   -4.9549    0.0000 C   0  0  0  0  0  0  0  0  0  0  0  0
    8.1227   -1.2387    0.0000 C   0  0  0  0  0  0  0  0  0  0  0  0
    5.7682   -0.9456    0.0000 C   0  0  0  0  0  0  0  0  0  0  0  0
    4.5956   -1.6548    0.0000 C   0  0  0  0  0  0  0  0  0  0  0  0
    2.3073   -2.9692    0.0000 C   0  0  0  0  0  0  0  0  0  0  0  0
    8.1227   -3.3853    0.0000 C   0  0  0  0  0  0  0  0  0  0  0  0
    5.7682   -4.9549    0.0000 C   0  0  0  0  0  0  0  0  0  0  0  0
    2.3073   -5.6074    0.0000 C   0  0  0  0  0  0  0  0  0  0  0  0
    4.5956   -5.6074    0.0000 C   0  0  0  0  0  0  0  0  0  0  0  0
    8.9265   -2.3073    0.0000 C   0  0  0  0  0  0  0  0  0  0  0  0
    1.1725   -4.9549    0.0000 C   0  0  0  0  0  0  0  0  0  0  0  0
    0.0000   -5.6452    0.0000 O   0  0  0  0  0  0  0  0  0  0  0  0
    1.1725   -3.6595    0.0000 C   0  0  0  0  0  0  0  0  0  0  0  0
    8.6428    0.0000    0.0000 O   0  0  0  0  0  0  0  0  0  0  0  0
    6.9123   -0.2931    0.0000 C   0  0  0  0  0  0  0  0  0  0  0  0
    3.4609   -2.3073    0.0000 C   0  0  0  0  0  0  0  0  0  0  0  0
    9.4560   -1.2955    0.0000 C   0  0  0  0  0  0  0  0  0  0  0  0
    3.4609   -6.3166    0.0000 H   0  0  0  0  0  0  0  0  0  0  0  0
    5.7682   -2.3073    0.0000 H   0  0  0  0  0  0  0  0  0  0  0  0
    6.9123   -4.2930    0.0000 H   0  0  0  0  0  0  0  0  0  0  0  0
    4.5956   -4.2930    0.0000 H   0  0  0  0  0  0  0  0  0  0  0  0
  1  4  1  0  0  0  0
  1  7  1  0  0  0  0
  1  8  1  0  0  0  0
  1 20  1  1  0  0  0
  2  3  1  0  0  0  0
  2  6  1  0  0  0  0
  2 10  1  0  0  0  0
  2 21  1  1  0  0  0
  3  9  1  0  0  0  0
  3  5  1  0  0  0  0
  3 26  1  6  0  0  0
  4  5  1  0  0  0  0
  4 11  1  0  0  0  0
  4 25  1  6  0  0  0
  5 12  1  0  0  0  0
  5 24  1  1  0  0  0
  6 13  1  0  0  0  0
  6 23  1  6  0  0  0
  6 14  1  0  0  0  0
  7 15  1  0  0  0  0
  7 19  1  0  0  0  0
  7 22  1  6  0  0  0
  8  9  1  0  0  0  0
 10 18  1  0  0  0  0
 11 15  1  0  0  0  0
 12 14  1  0  0  0  0
 13 16  1  0  0  0  0
 16 18  1  0  0  0  0
 16 17  2  0  0  0  0
M  END
> <ID>
13961

> <Formula>
C20H32O2

> <FW>
304.4669

> <DSSTox_CID>
28899

> <DSSTox_RID>
83167

> <DSSTox_GSID>
48973

> <DSSTox_FileID_Sort>
7844

> <TS_ChemName>
Mestanolone

> <TS_ChemName_Synonyms>


> <TS_CASRN>
521-11-9

> <CASRN_ChemName_Relationship>
primary

> <TS_Description>
single chemical compound

> <ChemNote>


> <STRUCTURE_Shown>
tested chemical

> <STRUCTURE_Formula>
C20H32O2

> <STRUCTURE_MW>
304.4669

> <STRUCTURE_ChemType>
defined organic

> <STRUCTURE_DefinedOrganicForm>
parent

> <STRUCTURE_IUPAC>
(5alpha,17beta)-17-hydroxy-17-methylandrostan-3-one

> <STRUCTURE_SMILES>
O=C3C[C@@H]4CC[C@@H]2[C@H](CC[C@@]1(C)[C@H]2CC[C@]1(C)O)[C@@]4(C)CC3

> <STRUCTURE_SMILES_Desalt>
O=C3C[C@@H]4CC[C@@H]2[C@H](CC[C@@]1(C)[C@H]2CC[C@]1(C)O)[C@@]4(C)CC3

> <Substance_modify_yyyymmdd>
20111204

$$$$
