521-35-7
ChemmineR-0915142007XD

 23 25  0  0  0  0  0  0  0  0  1 V2000
    3.4235   -4.0133    0.0000 C   0  0  0  0  0  0  0  0  0  0  0  0
    2.2900   -3.3310    0.0000 C   0  0  0  0  0  0  0  0  0  0  0  0
    3.4235   -5.3319    0.0000 C   0  0  0  0  0  0  0  0  0  0  0  0
    2.2900   -6.0027    0.0000 O   0  0  0  0  0  0  0  0  0  0  0  0
    1.1566   -4.0133    0.0000 C   0  0  0  0  0  0  0  0  0  0  0  0
    1.1566   -5.3319    0.0000 C   0  0  0  0  0  0  0  0  0  0  0  0
    4.6032   -3.3310    0.0000 C   0  0  0  0  0  0  0  0  0  0  0  0
    0.0000   -3.3310    0.0000 C   0  0  0  0  0  0  0  0  0  0  0  0
    2.2900   -2.0009    0.0000 C   0  0  0  0  0  0  0  0  0  0  0  0
    4.6032   -6.0027    0.0000 C   0  0  0  0  0  0  0  0  0  0  0  0
    5.7482   -4.0133    0.0000 C   0  0  0  0  0  0  0  0  0  0  0  0
    5.7482   -5.3319    0.0000 C   0  0  0  0  0  0  0  0  0  0  0  0
    4.6032   -2.0009    0.0000 O   0  0  0  0  0  0  0  0  0  0  0  0
    1.1566   -1.3301    0.0000 C   0  0  0  0  0  0  0  0  0  0  0  0
    0.0000   -2.0009    0.0000 C   0  0  0  0  0  0  0  0  0  0  0  0
    0.0694   -4.6726    0.0000 C   0  0  0  0  0  0  0  0  0  0  0  0
    1.1566   -6.6619    0.0000 C   0  0  0  0  0  0  0  0  0  0  0  0
    6.9164   -6.0258    0.0000 C   0  0  0  0  0  0  0  0  0  0  0  0
    1.1566    0.0000    0.0000 C   0  0  0  0  0  0  0  0  0  0  0  0
    8.1077   -5.3434    0.0000 C   0  0  0  0  0  0  0  0  0  0  0  0
   10.4093   -5.3781    0.0000 C   0  0  0  0  0  0  0  0  0  0  0  0
    9.2758   -6.0258    0.0000 C   0  0  0  0  0  0  0  0  0  0  0  0
   11.5658   -6.0258    0.0000 C   0  0  0  0  0  0  0  0  0  0  0  0
  1  2  1  0  0  0  0
  1  3  2  0  0  0  0
  1  7  1  0  0  0  0
  2  5  2  0  0  0  0
  2  9  1  0  0  0  0
  3  4  1  0  0  0  0
  3 10  1  0  0  0  0
  4  6  1  0  0  0  0
  5  8  1  0  0  0  0
  5  6  1  0  0  0  0
  6 16  1  0  0  0  0
  6 17  1  0  0  0  0
  7 11  2  0  0  0  0
  7 13  1  0  0  0  0
  8 15  2  0  0  0  0
  9 14  2  0  0  0  0
 10 12  2  0  0  0  0
 11 12  1  0  0  0  0
 12 18  1  0  0  0  0
 14 15  1  0  0  0  0
 14 19  1  0  0  0  0
 18 20  1  0  0  0  0
 20 22  1  0  0  0  0
 21 22  1  0  0  0  0
 21 23  1  0  0  0  0
M  END
> <ID>
13981

> <Formula>
C21H26O2

> <FW>
310.4299

> <DSSTox_CID>
28922

> <DSSTox_RID>
83188

> <DSSTox_GSID>
48996

> <DSSTox_FileID_Sort>
7864

> <TS_ChemName>
Cannabinol

> <TS_ChemName_Synonyms>


> <TS_CASRN>
521-35-7

> <CASRN_ChemName_Relationship>
primary

> <TS_Description>
single chemical compound

> <ChemNote>


> <STRUCTURE_Shown>
tested chemical

> <STRUCTURE_Formula>
C21H26O2

> <STRUCTURE_MW>
310.4299

> <STRUCTURE_ChemType>
defined organic

> <STRUCTURE_DefinedOrganicForm>
parent

> <STRUCTURE_IUPAC>
6,6,9-trimethyl-3-pentyl-6H-benzo[c]chromen-1-ol

> <STRUCTURE_SMILES>
Cc2cc3c1c(cc(cc1O)CCCCC)OC(C)(C)c3cc2

> <STRUCTURE_SMILES_Desalt>
Cc2cc3c1c(cc(cc1O)CCCCC)OC(C)(C)c3cc2

> <Substance_modify_yyyymmdd>
20111204

$$$$
