521-18-6
ChemmineR-0915142007XD

 25 28  0  0  1  0  0  0  0  0  1 V2000
    6.8159   -1.6510    0.0000 C   0  0  0  0  0  0  0  0  0  0  0  0
    6.8159   -2.9665    0.0000 C   0  0  0  0  0  0  0  0  0  0  0  0
    5.6770   -3.6198    0.0000 C   0  0  0  0  0  0  0  0  0  0  0  0
    5.6770   -4.9265    0.0000 C   0  0  0  0  0  0  0  0  0  0  0  0
    4.5380   -5.5887    0.0000 C   0  0  0  0  0  0  0  0  0  0  0  0
    3.4079   -4.9265    0.0000 C   0  0  0  0  0  0  0  0  0  0  0  0
    3.4079   -3.6198    0.0000 C   0  0  0  0  0  0  0  0  0  0  0  0
    4.5380   -2.9665    0.0000 C   0  0  0  0  0  0  0  0  0  0  0  0
    4.5380   -1.6510    0.0000 C   0  0  0  0  0  0  0  0  0  0  0  0
    5.6770   -0.9977    0.0000 C   0  0  0  0  0  0  0  0  0  0  0  0
    2.2690   -2.9665    0.0000 C   0  0  0  0  0  0  0  0  0  0  0  0
    1.1389   -3.6198    0.0000 C   0  0  0  0  0  0  0  0  0  0  0  0
    1.1389   -4.9265    0.0000 C   0  0  0  0  0  0  0  0  0  0  0  0
    0.0000   -5.5887    0.0000 O   0  0  0  0  0  0  0  0  0  0  0  0
    2.2690   -5.5887    0.0000 C   0  0  0  0  0  0  0  0  0  0  0  0
    8.0608   -3.3638    0.0000 C   0  0  0  0  0  0  0  0  0  0  0  0
    8.8289   -2.3043    0.0000 C   0  0  0  0  0  0  0  0  0  0  0  0
    8.0608   -1.2449    0.0000 C   0  0  0  0  0  0  0  0  0  0  0  0
    8.4669    0.0000    0.0000 O   0  0  0  0  0  0  0  0  0  0  0  0
    6.8159   -0.2825    0.0000 C   0  0  0  0  0  0  0  0  0  0  0  0
    5.6770   -2.4368    0.0000 H   0  0  0  0  0  0  0  0  0  0  0  0
    4.5380   -4.3173    0.0000 H   0  0  0  0  0  0  0  0  0  0  0  0
    6.8777   -4.3173    0.0000 H   0  0  0  0  0  0  0  0  0  0  0  0
    3.4079   -2.1807    0.0000 C   0  0  0  0  0  0  0  0  0  0  0  0
    3.4609   -6.6305    0.0000 H   0  0  0  0  0  0  0  0  0  0  0  0
  1  2  1  0  0  0  0
  1 10  1  0  0  0  0
  1 18  1  0  0  0  0
  1 20  1  1  0  0  0
  2  3  1  0  0  0  0
  2 16  1  0  0  0  0
  2 23  1  6  0  0  0
  3  4  1  0  0  0  0
  3  8  1  0  0  0  0
  3 21  1  1  0  0  0
  4  5  1  0  0  0  0
  5  6  1  0  0  0  0
  6  7  1  0  0  0  0
  6 15  1  0  0  0  0
  6 25  1  6  0  0  0
  7  8  1  0  0  0  0
  7 11  1  0  0  0  0
  7 24  1  1  0  0  0
  8  9  1  0  0  0  0
  8 22  1  6  0  0  0
  9 10  1  0  0  0  0
 11 12  1  0  0  0  0
 12 13  1  0  0  0  0
 13 14  2  0  0  0  0
 13 15  1  0  0  0  0
 16 17  1  0  0  0  0
 17 18  1  0  0  0  0
 18 19  1  1  0  0  0
M  END
> <ID>
2174

> <Formula>
C19H30O2

> <FW>
290.4403

> <DSSTox_CID>
2364

> <DSSTox_RID>
76558

> <DSSTox_GSID>
22364

> <DSSTox_FileID_Sort>
1242

> <TS_ChemName>
5alpha-Dihydrotestosterone

> <TS_ChemName_Synonyms>
Dihydrotestosterone (DHT) (5alpha dihydrotestosterone) (5alpha-Androstan-17beta-ol-3-one)

> <TS_CASRN>
521-18-6

> <CASRN_ChemName_Relationship>
primary

> <TS_Description>
single chemical compound

> <ChemNote>
stereochem

> <STRUCTURE_Shown>
tested chemical

> <STRUCTURE_Formula>
C19H30O2

> <STRUCTURE_MW>
290.4403

> <STRUCTURE_ChemType>
defined organic

> <STRUCTURE_DefinedOrganicForm>
parent

> <STRUCTURE_IUPAC>
(5alpha,17beta)-17-hydroxyandrostan-3-one

> <STRUCTURE_SMILES>
O=C3C[C@@H]4CC[C@@H]1[C@H](CC[C@]2(C)[C@@H](O)CC[C@@H]12)[C@@]4(C)CC3

> <STRUCTURE_SMILES_Desalt>
O=C3C[C@@H]4CC[C@@H]1[C@H](CC[C@]2(C)[C@@H](O)CC[C@@H]12)[C@@]4(C)CC3

> <Substance_modify_yyyymmdd>
20080429

$$$$
