521-78-8
ChemmineR-0915142007XD

 30 31  0  0  0  0  0  0  0  0  1 V2000
    9.9050   -4.9806    0.0000 C   0  0  0  0  0  0  0  0  0  0  0  0
    7.2405   -4.9806    0.0000 C   0  0  0  0  0  0  0  0  0  0  0  0
    7.9150   -3.8226    0.0000 C   0  0  0  0  0  0  0  0  0  0  0  0
    9.2529   -3.8226    0.0000 C   0  0  0  0  0  0  0  0  0  0  0  0
    9.2529   -6.1386    0.0000 O   0  0  0  0  0  0  0  0  0  0  0  0
    7.9150   -6.1386    0.0000 O   0  0  0  0  0  0  0  0  0  0  0  0
   11.2429   -4.9806    0.0000 O   0  0  0  0  0  0  0  0  0  0  0  0
    5.9025   -4.9806    0.0000 O   0  0  0  0  0  0  0  0  0  0  0  0
    4.5984   -2.9232    0.0000 N   0  0  0  0  0  0  0  0  0  0  0  0
    3.4066   -2.3498    0.0000 C   0  0  0  0  0  0  0  0  0  0  0  0
    5.8014   -2.3498    0.0000 C   0  0  0  0  0  0  0  0  0  0  0  0
    4.5984   -4.2611    0.0000 C   0  0  0  0  0  0  0  0  0  0  0  0
    6.0824   -1.0456    0.0000 C   0  0  0  0  0  0  0  0  0  0  0  0
    3.1031   -1.0456    0.0000 C   0  0  0  0  0  0  0  0  0  0  0  0
    3.4403   -4.9019    0.0000 C   0  0  0  0  0  0  0  0  0  0  0  0
    3.9238    0.0000    0.0000 C   0  0  0  0  0  0  0  0  0  0  0  0
    5.2617    0.0000    0.0000 C   0  0  0  0  0  0  0  0  0  0  0  0
    2.3048   -4.2611    0.0000 C   0  0  0  0  0  0  0  0  0  0  0  0
    1.1468   -4.9019    0.0000 N   0  0  0  0  0  0  0  0  0  0  0  0
    6.7682   -3.2267    0.0000 C   0  0  0  0  0  0  0  0  0  0  0  0
    2.4285   -3.2267    0.0000 C   0  0  0  0  0  0  0  0  0  0  0  0
    1.8326   -0.6408    0.0000 C   0  0  0  0  0  0  0  0  0  0  0  0
    7.3641   -0.6408    0.0000 C   0  0  0  0  0  0  0  0  0  0  0  0
    3.4403   -6.2398    0.0000 C   0  0  0  0  0  0  0  0  0  0  0  0
    1.1468   -6.2398    0.0000 C   0  0  0  0  0  0  0  0  0  0  0  0
    0.0000   -4.2611    0.0000 C   0  0  0  0  0  0  0  0  0  0  0  0
    8.0387   -2.8445    0.0000 C   0  0  0  0  0  0  0  0  0  0  0  0
    1.1580   -2.8445    0.0000 C   0  0  0  0  0  0  0  0  0  0  0  0
    8.3310   -1.5403    0.0000 C   0  0  0  0  0  0  0  0  0  0  0  0
    0.8545   -1.5403    0.0000 C   0  0  0  0  0  0  0  0  0  0  0  0
  1  4  1  0  0  0  0
  1  5  2  0  0  0  0
  1  7  1  0  0  0  0
  2  3  1  0  0  0  0
  2  6  2  0  0  0  0
  2  8  1  0  0  0  0
  3  4  2  0  0  0  0
  9 10  1  0  0  0  0
  9 11  1  0  0  0  0
  9 12  1  0  0  0  0
 10 14  2  0  0  0  0
 10 21  1  0  0  0  0
 11 13  2  0  0  0  0
 11 20  1  0  0  0  0
 12 15  1  0  0  0  0
 13 17  1  0  0  0  0
 13 23  1  0  0  0  0
 14 16  1  0  0  0  0
 14 22  1  0  0  0  0
 15 18  1  0  0  0  0
 15 24  1  0  0  0  0
 16 17  1  0  0  0  0
 18 19  1  0  0  0  0
 19 25  1  0  0  0  0
 19 26  1  0  0  0  0
 20 27  2  0  0  0  0
 21 28  2  0  0  0  0
 22 30  2  0  0  0  0
 23 29  2  0  0  0  0
 27 29  1  0  0  0  0
 28 30  1  0  0  0  0
M  END
> <ID>
10866

> <Formula>
C24H30N2O4

> <FW>
410.5060 (116.0722+294.4338)

> <DSSTox_CID>
25315

> <DSSTox_RID>
80796

> <DSSTox_GSID>
45315

> <DSSTox_FileID_Sort>
5477

> <TS_ChemName>
Trimipramine maleate

> <TS_ChemName_Synonyms>


> <TS_CASRN>
521-78-8

> <CASRN_ChemName_Relationship>
primary

> <TS_Description>
single chemical compound

> <ChemNote>
stereochem (complex); parent [739-71-9]

> <STRUCTURE_Shown>
tested chemical

> <STRUCTURE_Formula>
C24H30N2O4

> <STRUCTURE_MW>
410.506

> <STRUCTURE_ChemType>
defined organic

> <STRUCTURE_DefinedOrganicForm>
complex

> <STRUCTURE_IUPAC>
3-(10,11-dihydro-5H-dibenzo[b,f]azepin-5-yl)-N,N,2-trimethylpropan-1-amine (2Z)-but-2-enedioate (1:1)

> <STRUCTURE_SMILES>
O=C(O)/C=C\C(=O)O.CN(C)CC(C)CN2c3ccccc3CCc1ccccc12

> <STRUCTURE_SMILES_Desalt>
CN(C)CC(C)CN2c3ccccc3CCc1ccccc12

> <Substance_modify_yyyymmdd>
20110720

$$$$
