521-31-3
ChemmineR-0915142007XD

 13 14  0  0  0  0  0  0  0  0  1 V2000
    3.4580    0.0000    0.0000 O   0  0  0  0  0  0  0  0  0  0  0  0
    3.4580   -1.3300    0.0000 C   0  0  0  0  0  0  0  0  0  0  0  0
    4.6072   -1.9950    0.0000 N   0  0  0  0  0  0  0  0  0  0  0  0
    4.6072   -3.3250    0.0000 N   0  0  0  0  0  0  0  0  0  0  0  0
    3.4580   -3.9900    0.0000 C   0  0  0  0  0  0  0  0  0  0  0  0
    3.4580   -5.3201    0.0000 O   0  0  0  0  0  0  0  0  0  0  0  0
    2.3036   -3.3250    0.0000 C   0  0  0  0  0  0  0  0  0  0  0  0
    1.1491   -3.9900    0.0000 C   0  0  0  0  0  0  0  0  0  0  0  0
    1.1491   -5.3201    0.0000 N   0  0  0  0  0  0  0  0  0  0  0  0
    0.0000   -3.3250    0.0000 C   0  0  0  0  0  0  0  0  0  0  0  0
    0.0000   -1.9950    0.0000 C   0  0  0  0  0  0  0  0  0  0  0  0
    1.1491   -1.3300    0.0000 C   0  0  0  0  0  0  0  0  0  0  0  0
    2.3036   -1.9950    0.0000 C   0  0  0  0  0  0  0  0  0  0  0  0
  1  2  1  0  0  0  0
  2  3  2  0  0  0  0
  2 13  1  0  0  0  0
  3  4  1  0  0  0  0
  4  5  2  0  0  0  0
  5  6  1  0  0  0  0
  5  7  1  0  0  0  0
  7  8  2  0  0  0  0
  7 13  1  0  0  0  0
  8  9  1  0  0  0  0
  8 10  1  0  0  0  0
 10 11  2  0  0  0  0
 11 12  1  0  0  0  0
 12 13  2  0  0  0  0
M  END
> <ID>
3720

> <Formula>
C8H7N3O2

> <FW>
177.1601

> <DSSTox_CID>
4504

> <DSSTox_RID>
77433

> <DSSTox_GSID>
24504

> <DSSTox_FileID_Sort>
2116

> <TS_ChemName>
Luminol

> <TS_ChemName_Synonyms>
Luminol (o-Aminophthalylhydrazide)

> <TS_CASRN>
521-31-3

> <CASRN_ChemName_Relationship>
primary

> <TS_Description>
single chemical compound

> <ChemNote>


> <STRUCTURE_Shown>
tested chemical

> <STRUCTURE_Formula>
C8H7N3O2

> <STRUCTURE_MW>
177.1601

> <STRUCTURE_ChemType>
defined organic

> <STRUCTURE_DefinedOrganicForm>
parent

> <STRUCTURE_IUPAC>
5-aminophthalazine-1,4-diol

> <STRUCTURE_SMILES>
Oc2nnc(O)c1cccc(N)c12

> <STRUCTURE_SMILES_Desalt>
Oc2nnc(O)c1cccc(N)c12

> <Substance_modify_yyyymmdd>
20080429

$$$$
