52128-35-5_1
ChemmineR-0915142007XD

 30 29  0  0  0  0  0  0  0  0  1 V2000
   11.5042    0.0000    0.0000 C    0  0  0  0  0  0  0  0  0  0  0  0
   10.3441   -0.6491    0.0000 O    0  0  0  0  0  0  0  0  0  0  0  0
   10.3441   -1.9749    0.0000 C    0  0  0  0  0  0  0  0  0  0  0  0
   11.5042   -2.6378    0.0000 C    0  0  0  0  0  0  0  0  0  0  0  0
   12.6642   -1.9749    0.0000 O    0  0  0  0  0  0  0  0  0  0  0  0
   13.8105   -2.6378    0.0000 C    0  0  0  0  0  0  0  0  0  0  0  0
   11.5042   -3.9774    0.0000 C    0  0  0  0  0  0  0  0  0  0  0  0
   10.3441   -4.6403    0.0000 C    0  0  0  0  0  0  0  0  0  0  0  0
    9.1978   -3.9774    0.0000 C    0  0  0  0  0  0  0  0  0  0  0  0
    9.1978   -2.6378    0.0000 C    0  0  0  0  0  0  0  0  0  0  0  0
    8.0515   -4.6403    0.0000 N    0  0  0  0  0  0  0  0  0  0  0  0
    6.9053   -3.9774    0.0000 C    0  0  0  0  0  0  0  0  0  0  0  0
    5.7590   -4.6403    0.0000 C    0  0  0  0  0  0  0  0  0  0  0  0
    4.5989   -3.9774    0.0000 C    0  0  0  0  0  0  0  0  0  0  0  0
    4.5989   -2.6378    0.0000 C    0  0  0  0  0  0  0  0  0  0  0  0
    3.4388   -4.6403    0.0000 C    0  0  0  0  0  0  0  0  0  0  0  0
    3.4388   -5.9661    0.0000 C    0  0  0  0  0  0  0  0  0  0  0  0
    4.5989   -6.6291    0.0000 C    0  0  0  0  0  0  0  0  0  0  0  0
    5.7590   -5.9661    0.0000 C    0  0  0  0  0  0  0  0  0  0  0  0
    2.3064   -6.6291    0.0000 N    0  0  0  0  0  0  0  0  0  0  0  0
    1.1463   -5.9661    0.0000 C    0  0  0  0  0  0  0  0  0  0  0  0
    0.0000   -6.6291    0.0000 N    0  0  0  0  0  0  0  0  0  0  0  0
    1.1463   -4.6403    0.0000 N    0  0  0  0  0  0  0  0  0  0  0  0
    2.3064   -3.9774    0.0000 C    0  0  0  0  0  0  0  0  0  0  0  0
    2.3064   -2.6378    0.0000 N    0  0  0  0  0  0  0  0  0  0  0  0
   12.6642   -4.6403    0.0000 O    0  0  0  0  0  0  0  0  0  0  0  0
   13.8105   -3.9774    0.0000 C    0  0  0  0  0  0  0  0  0  0  0  0
    7.4439   -6.1733    0.0000 Cl   0  0  0  0  0  0  0  0  0  0  0  0
    9.4464   -6.2147    0.0000 Cl   0  0  0  0  0  0  0  0  0  0  0  0
   11.7389   -6.2562    0.0000 Cl   0  0  0  0  0  0  0  0  0  0  0  0
  1  2  1  0  0  0  0
  2  3  1  0  0  0  0
  3  4  2  0  0  0  0
  3 10  1  0  0  0  0
  4  5  1  0  0  0  0
  4  7  1  0  0  0  0
  5  6  1  0  0  0  0
  7  8  2  0  0  0  0
  7 26  1  0  0  0  0
  8  9  1  0  0  0  0
  9 10  2  0  0  0  0
  9 11  1  0  0  0  0
 11 12  1  0  0  0  0
 12 13  1  0  0  0  0
 13 14  2  0  0  0  0
 13 19  1  0  0  0  0
 14 15  1  0  0  0  0
 14 16  1  0  0  0  0
 16 17  2  0  0  0  0
 16 24  1  0  0  0  0
 17 18  1  0  0  0  0
 17 20  1  0  0  0  0
 18 19  2  0  0  0  0
 20 21  2  0  0  0  0
 21 22  1  0  0  0  0
 21 23  1  0  0  0  0
 23 24  2  0  0  0  0
 24 25  1  0  0  0  0
 26 27  1  0  0  0  0
M  END
> <ID>
12905

> <Formula>
C19H26Cl3N5O3

> <FW>
478.8004 (369.4176+36.4609+36.4609+36.4609)

> <DSSTox_CID>
27794

> <DSSTox_RID>
82566

> <DSSTox_GSID>
47817

> <DSSTox_FileID_Sort>
7244

> <TS_ChemName>
Trimetrexate trihydrochloride

> <TS_ChemName_Synonyms>


> <TS_CASRN>
52128-35-5_1

> <CASRN_ChemName_Relationship>
CAS for parent

> <TS_Description>
single chemical compound

> <ChemNote>
parent [52128-35-5]

> <STRUCTURE_Shown>
tested chemical

> <STRUCTURE_Formula>
C19H26Cl3N5O3

> <STRUCTURE_MW>
478.8004

> <STRUCTURE_ChemType>
defined organic

> <STRUCTURE_DefinedOrganicForm>
complex

> <STRUCTURE_IUPAC>
5-methyl-6-{[(3,4,5-trimethoxyphenyl)amino]methyl}quinazoline-2,4-diamine trihydrochloride

> <STRUCTURE_SMILES>
Cl.Cl.Cl.COc1cc(cc(OC)c1OC)NCc2ccc3nc(N)nc(N)c3c2C

> <STRUCTURE_SMILES_Desalt>
COc1cc(cc(OC)c1OC)NCc2ccc3nc(N)nc(N)c3c2C

> <Substance_modify_yyyymmdd>
20130911

$$$$
