52152-93-9
ChemmineR-0915142007XD

 37 39  0  0  1  0  0  0  0  0  2 V2000
    8.1053  -10.7094    0.0000 Na   0  3  0  0  0  0  0  0  0  0  0  0
   16.2757   -5.3873    0.0000 N    0  0  0  0  0  0  0  0  0  0  0  0
   15.1201   -4.7200    0.0000 C    0  0  0  0  0  0  0  0  0  0  0  0
   15.1201   -3.4016    0.0000 O    0  0  0  0  0  0  0  0  0  0  0  0
   13.9645   -5.3873    0.0000 C    0  0  0  0  0  0  0  0  0  0  0  0
   13.9645   -6.7219    0.0000 C    0  0  0  0  0  0  0  0  0  0  0  0
   12.8252   -7.3892    0.0000 C    0  0  0  0  0  0  0  0  0  0  0  0
   11.6697   -6.7219    0.0000 N    0  3  0  0  0  0  0  0  0  0  0  0
   10.5141   -7.3892    0.0000 C    0  0  0  0  0  0  0  0  0  0  0  0
    9.3585   -6.7219    0.0000 C    0  0  0  0  0  0  0  0  0  0  0  0
    8.2192   -7.3892    0.0000 C    0  0  0  0  0  0  0  0  0  0  0  0
    7.0637   -6.7219    0.0000 N    0  0  0  0  0  0  0  0  0  0  0  0
    7.0637   -5.3873    0.0000 C    0  0  0  0  0  0  0  0  0  0  0  0
    8.2192   -4.7200    0.0000 S    0  0  0  0  0  0  0  0  0  0  0  0
    9.3585   -5.3873    0.0000 C    0  0  0  0  0  0  0  0  0  0  0  0
    5.7290   -5.3873    0.0000 C    0  0  0  0  0  0  0  0  0  0  0  0
    4.8013   -4.4433    0.0000 N    0  0  0  0  0  0  0  0  0  0  0  0
    3.5156   -4.8013    0.0000 C    0  0  0  0  0  0  0  0  0  0  0  0
    3.1575   -6.0708    0.0000 O    0  0  0  0  0  0  0  0  0  0  0  0
    2.5716   -3.8573    0.0000 C    0  0  0  0  0  0  0  0  0  0  0  0
    2.9133   -2.5716    0.0000 C    0  0  0  0  0  0  0  0  0  0  0  0
    4.1991   -2.2298    0.0000 C    0  0  0  0  0  0  0  0  0  0  0  0
    4.5409   -0.9440    0.0000 C    0  0  0  0  0  0  0  0  0  0  0  0
    3.5969    0.0000    0.0000 C    0  0  0  0  0  0  0  0  0  0  0  0
    2.3111   -0.3418    0.0000 C    0  0  0  0  0  0  0  0  0  0  0  0
    1.9694   -1.6276    0.0000 C    0  0  0  0  0  0  0  0  0  0  0  0
    1.2858   -4.1991    0.0000 S    0  0  0  0  0  0  0  0  0  0  0  0
    0.0000   -4.5409    0.0000 O    0  5  0  0  0  0  0  0  0  0  0  0
    0.9440   -2.9133    0.0000 O    0  0  0  0  0  0  0  0  0  0  0  0
    1.6276   -5.4849    0.0000 O    0  0  0  0  0  0  0  0  0  0  0  0
    5.7290   -6.7219    0.0000 C    0  0  0  0  0  0  0  0  0  0  0  0
    4.8013   -7.6659    0.0000 O    0  0  0  0  0  0  0  0  0  0  0  0
    8.2192   -8.7075    0.0000 C    0  0  0  0  0  0  0  0  0  0  0  0
    9.3585   -9.3748    0.0000 O    0  5  0  0  0  0  0  0  0  0  0  0
    7.0637   -9.3748    0.0000 O    0  0  0  0  0  0  0  0  0  0  0  0
   11.6697   -5.3873    0.0000 C    0  0  0  0  0  0  0  0  0  0  0  0
   12.8252   -4.7200    0.0000 C    0  0  0  0  0  0  0  0  0  0  0  0
  2  3  1  0  0  0  0
  3  4  2  0  0  0  0
  3  5  1  0  0  0  0
  5  6  2  0  0  0  0
  5 37  1  0  0  0  0
  6  7  1  0  0  0  0
  7  8  2  0  0  0  0
  8  9  1  0  0  0  0
  8 36  1  0  0  0  0
  9 10  1  0  0  0  0
 10 11  2  0  0  0  0
 10 15  1  0  0  0  0
 11 12  1  0  0  0  0
 11 33  1  0  0  0  0
 12 13  1  0  0  0  0
 12 31  1  0  0  0  0
 13 14  1  6  0  0  0
 13 16  1  0  0  0  0
 14 15  1  0  0  0  0
 16 17  1  1  0  0  0
 16 31  1  0  0  0  0
 17 18  1  0  0  0  0
 18 19  2  0  0  0  0
 20 18  1  1  0  0  0
 20 21  1  0  0  0  0
 20 27  1  0  0  0  0
 21 22  2  0  0  0  0
 21 26  1  0  0  0  0
 22 23  1  0  0  0  0
 23 24  2  0  0  0  0
 24 25  1  0  0  0  0
 25 26  2  0  0  0  0
 27 28  1  0  0  0  0
 27 29  2  0  0  0  0
 27 30  2  0  0  0  0
 31 32  2  0  0  0  0
 33 34  1  0  0  0  0
 33 35  2  0  0  0  0
 36 37  2  0  0  0  0
M  END
> <ID>
11049

> <Formula>
C22H19N4NaO8S2

> <FW>
554.5280 (22.9892+531.5388)

> <DSSTox_CID>
25585

> <DSSTox_RID>
80981

> <DSSTox_GSID>
45585

> <DSSTox_FileID_Sort>
5662

> <TS_ChemName>
Cefsulodin sodium

> <TS_ChemName_Synonyms>


> <TS_CASRN>
52152-93-9

> <CASRN_ChemName_Relationship>
primary

> <TS_Description>
single chemical compound

> <ChemNote>
stereochem; parent [62587-73-9]

> <STRUCTURE_Shown>
tested chemical

> <STRUCTURE_Formula>
C22H19N4NaO8S2

> <STRUCTURE_MW>
554.528

> <STRUCTURE_ChemType>
defined organic

> <STRUCTURE_DefinedOrganicForm>
salt

> <STRUCTURE_IUPAC>
sodium (6S,7R)-3-[(4-carbamoylpyridinium-1-yl)methyl]-8-oxo-7-{[(2S)-2-phenyl-2-sulfonatoacetyl]amino}-5-thia-1-azabicyclo[4.2.0]oct-2-ene-2-carboxylate

> <STRUCTURE_SMILES>
[Na+].[O-]S(=O)(=O)[C@@H](c1ccccc1)C(=O)N[C@@H]4C(=O)N3[C@H]4SCC(C[n+]2ccc(cc2)C(N)=O)=C3C([O-])=O

> <STRUCTURE_SMILES_Desalt>
O=S(=O)(O)[C@@H](c1ccccc1)C(=O)N[C@@H]4C(=O)N3[C@H]4SCC(C[n+]2ccc(cc2)C(N)=O)=C3C(=O)O

> <Substance_modify_yyyymmdd>
20100107

$$$$
