5216-25-1
ChemmineR-0915142007XD

 11 11  0  0  0  0  0  0  0  0  1 V2000
    1.3304   -1.3304    0.0000 C    0  0  0  0  0  0  0  0  0  0  0  0
    2.4812   -1.9890    0.0000 C    0  0  0  0  0  0  0  0  0  0  0  0
    2.4812   -3.3194    0.0000 C    0  0  0  0  0  0  0  0  0  0  0  0
    1.3304   -3.9913    0.0000 C    0  0  0  0  0  0  0  0  0  0  0  0
    0.1796   -3.3194    0.0000 C    0  0  0  0  0  0  0  0  0  0  0  0
    0.1796   -1.9890    0.0000 C    0  0  0  0  0  0  0  0  0  0  0  0
    1.3304    0.0000    0.0000 Cl   0  0  0  0  0  0  0  0  0  0  0  0
    1.3304   -5.3217    0.0000 C    0  0  0  0  0  0  0  0  0  0  0  0
    0.0000   -5.3217    0.0000 Cl   0  0  0  0  0  0  0  0  0  0  0  0
    2.6609   -5.3217    0.0000 Cl   0  0  0  0  0  0  0  0  0  0  0  0
    1.3304   -6.6521    0.0000 Cl   0  0  0  0  0  0  0  0  0  0  0  0
  1  2  2  0  0  0  0
  1  6  1  0  0  0  0
  1  7  1  0  0  0  0
  2  3  1  0  0  0  0
  3  4  2  0  0  0  0
  4  5  1  0  0  0  0
  4  8  1  0  0  0  0
  5  6  2  0  0  0  0
  8  9  1  0  0  0  0
  8 10  1  0  0  0  0
  8 11  1  0  0  0  0
M  END
> <ID>
5276

> <Formula>
C7H4Cl4

> <FW>
229.9187

> <DSSTox_CID>
7593

> <DSSTox_RID>
78519

> <DSSTox_GSID>
27593

> <DSSTox_FileID_Sort>
3202

> <TS_ChemName>
4-Chlorobenzotrichloride

> <TS_ChemName_Synonyms>
4-Chlorobenzotrichloride (Benzene, 1-chloro-4-(trichloromethyl)-)

> <TS_CASRN>
5216-25-1

> <CASRN_ChemName_Relationship>
primary

> <TS_Description>
single chemical compound

> <ChemNote>


> <STRUCTURE_Shown>
tested chemical

> <STRUCTURE_Formula>
C7H4Cl4

> <STRUCTURE_MW>
229.9187

> <STRUCTURE_ChemType>
defined organic

> <STRUCTURE_DefinedOrganicForm>
parent

> <STRUCTURE_IUPAC>
1-chloro-4-(trichloromethyl)benzene

> <STRUCTURE_SMILES>
ClC(Cl)(Cl)c1ccc(Cl)cc1

> <STRUCTURE_SMILES_Desalt>
ClC(Cl)(Cl)c1ccc(Cl)cc1

> <Substance_modify_yyyymmdd>
20080429

$$$$
