522-48-5
ChemmineR-0915142007XD

 16 17  0  0  0  0  0  0  0  0  1 V2000
    1.1475   -3.9800    0.0000 C    0  0  0  0  0  0  0  0  0  0  0  0
    1.1475   -2.6694    0.0000 C    0  0  0  0  0  0  0  0  0  0  0  0
    2.3010   -1.9991    0.0000 C    0  0  0  0  0  0  0  0  0  0  0  0
    2.2225   -4.7772    0.0000 N    0  0  0  0  0  0  0  0  0  0  0  0
    0.0664   -4.7953    0.0000 N    0  0  0  0  0  0  0  0  0  0  0  0
    2.3010   -0.6704    0.0000 C    0  0  0  0  0  0  0  0  0  0  0  0
    0.0000   -1.9991    0.0000 C    0  0  0  0  0  0  0  0  0  0  0  0
    1.8239   -6.0394    0.0000 C    0  0  0  0  0  0  0  0  0  0  0  0
    3.4364   -2.6694    0.0000 C    0  0  0  0  0  0  0  0  0  0  0  0
    0.4952   -6.0394    0.0000 C    0  0  0  0  0  0  0  0  0  0  0  0
    0.0000   -0.6704    0.0000 C    0  0  0  0  0  0  0  0  0  0  0  0
    1.1475    0.0000    0.0000 C    0  0  0  0  0  0  0  0  0  0  0  0
    3.4364    0.0000    0.0000 C    0  0  0  0  0  0  0  0  0  0  0  0
    4.6021   -1.9991    0.0000 C    0  0  0  0  0  0  0  0  0  0  0  0
    4.6021   -0.6704    0.0000 C    0  0  0  0  0  0  0  0  0  0  0  0
    3.5935   -3.9317    0.0000 Cl   0  0  0  0  0  0  0  0  0  0  0  0
  1  2  1  0  0  0  0
  1  4  2  0  0  0  0
  1  5  1  0  0  0  0
  2  3  1  0  0  0  0
  2  7  1  0  0  0  0
  3  6  2  0  0  0  0
  3  9  1  0  0  0  0
  4  8  1  0  0  0  0
  5 10  1  0  0  0  0
  6 13  1  0  0  0  0
  6 12  1  0  0  0  0
  7 11  1  0  0  0  0
  8 10  1  0  0  0  0
  9 14  2  0  0  0  0
 11 12  1  0  0  0  0
 13 15  2  0  0  0  0
 14 15  1  0  0  0  0
M  END
> <ID>
10867

> <Formula>
C13H17ClN2

> <FW>
236.7405 (200.2795+36.4609)

> <DSSTox_CID>
25316

> <DSSTox_RID>
80797

> <DSSTox_GSID>
45316

> <DSSTox_FileID_Sort>
5478

> <TS_ChemName>
Tetrahydrozoline hydrochloride

> <TS_ChemName_Synonyms>


> <TS_CASRN>
522-48-5

> <CASRN_ChemName_Relationship>
primary

> <TS_Description>
single chemical compound

> <ChemNote>
parent [84-22-0]

> <STRUCTURE_Shown>
tested chemical

> <STRUCTURE_Formula>
C13H17ClN2

> <STRUCTURE_MW>
236.7405

> <STRUCTURE_ChemType>
defined organic

> <STRUCTURE_DefinedOrganicForm>
complex

> <STRUCTURE_IUPAC>
2-(1,2,3,4-tetrahydronaphthalen-1-yl)-4,5-dihydro-1H-imidazole hydrochloride (1:1)

> <STRUCTURE_SMILES>
Cl.C2CCC(C1=NCCN1)c3ccccc23

> <STRUCTURE_SMILES_Desalt>
C2CCC(C1=NCCN1)c3ccccc23

> <Substance_modify_yyyymmdd>
20110720

$$$$
