522-51-0
ChemmineR-0915142007XD

 36 37  0  0  0  0  0  0  0  0  2 V2000
   14.9527   -0.2349    0.0000 C    0  0  0  0  0  0  0  0  0  0  0  0
   16.1075   -0.9003    0.0000 C    0  0  0  0  0  0  0  0  0  0  0  0
   17.2622   -0.2349    0.0000 C    0  0  0  0  0  0  0  0  0  0  0  0
   18.4169   -0.9003    0.0000 C    0  0  0  0  0  0  0  0  0  0  0  0
   18.4169   -2.2312    0.0000 C    0  0  0  0  0  0  0  0  0  0  0  0
   19.5716   -2.8966    0.0000 C    0  0  0  0  0  0  0  0  0  0  0  0
   19.5716   -4.2275    0.0000 C    0  0  0  0  0  0  0  0  0  0  0  0
   18.4169   -4.8929    0.0000 C    0  0  0  0  0  0  0  0  0  0  0  0
   17.2622   -4.2275    0.0000 C    0  0  0  0  0  0  0  0  0  0  0  0
   17.2622   -2.8966    0.0000 C    0  0  0  0  0  0  0  0  0  0  0  0
   16.1075   -2.2312    0.0000 N    0  3  0  0  0  0  0  0  0  0  0  0
   14.9527   -2.8966    0.0000 C    0  0  0  0  0  0  0  0  0  0  0  0
   13.8176   -2.2312    0.0000 C    0  0  0  0  0  0  0  0  0  0  0  0
   12.6629   -2.8966    0.0000 C    0  0  0  0  0  0  0  0  0  0  0  0
   11.5081   -2.2312    0.0000 C    0  0  0  0  0  0  0  0  0  0  0  0
   10.3534   -2.8966    0.0000 C    0  0  0  0  0  0  0  0  0  0  0  0
    9.2182   -2.2312    0.0000 C    0  0  0  0  0  0  0  0  0  0  0  0
    8.0635   -2.8966    0.0000 C    0  0  0  0  0  0  0  0  0  0  0  0
    6.9088   -2.2312    0.0000 C    0  0  0  0  0  0  0  0  0  0  0  0
    5.7541   -2.8966    0.0000 C    0  0  0  0  0  0  0  0  0  0  0  0
    4.5993   -2.2312    0.0000 C    0  0  0  0  0  0  0  0  0  0  0  0
    3.4642   -2.8966    0.0000 N    0  3  0  0  0  0  0  0  0  0  0  0
    3.4642   -4.2275    0.0000 C    0  0  0  0  0  0  0  0  0  0  0  0
    4.5993   -4.8929    0.0000 C    0  0  0  0  0  0  0  0  0  0  0  0
    4.5993   -6.2238    0.0000 C    0  0  0  0  0  0  0  0  0  0  0  0
    3.4642   -6.8892    0.0000 C    0  0  0  0  0  0  0  0  0  0  0  0
    2.3095   -6.2238    0.0000 C    0  0  0  0  0  0  0  0  0  0  0  0
    2.3095   -4.8929    0.0000 C    0  0  0  0  0  0  0  0  0  0  0  0
    1.1547   -4.2275    0.0000 C    0  0  0  0  0  0  0  0  0  0  0  0
    0.0000   -4.8929    0.0000 N    0  0  0  0  0  0  0  0  0  0  0  0
    1.1547   -2.8966    0.0000 C    0  0  0  0  0  0  0  0  0  0  0  0
    2.3095   -2.2312    0.0000 C    0  0  0  0  0  0  0  0  0  0  0  0
    2.3095   -0.9003    0.0000 C    0  0  0  0  0  0  0  0  0  0  0  0
   19.5716   -0.2349    0.0000 N    0  0  0  0  0  0  0  0  0  0  0  0
    5.0886    0.0000    0.0000 Cl   0  5  0  0  0  0  0  0  0  0  0  0
   10.8623   -0.1957    0.0000 Cl   0  5  0  0  0  0  0  0  0  0  0  0
  1  2  1  0  0  0  0
  2  3  2  0  0  0  0
  2 11  1  0  0  0  0
  3  4  1  0  0  0  0
  4  5  2  0  0  0  0
  4 34  1  0  0  0  0
  5  6  1  0  0  0  0
  5 10  1  0  0  0  0
  6  7  2  0  0  0  0
  7  8  1  0  0  0  0
  8  9  2  0  0  0  0
  9 10  1  0  0  0  0
 10 11  2  0  0  0  0
 11 12  1  0  0  0  0
 12 13  1  0  0  0  0
 13 14  1  0  0  0  0
 14 15  1  0  0  0  0
 15 16  1  0  0  0  0
 16 17  1  0  0  0  0
 17 18  1  0  0  0  0
 18 19  1  0  0  0  0
 19 20  1  0  0  0  0
 20 21  1  0  0  0  0
 21 22  1  0  0  0  0
 22 23  2  0  0  0  0
 22 32  1  0  0  0  0
 23 24  1  0  0  0  0
 23 28  1  0  0  0  0
 24 25  2  0  0  0  0
 25 26  1  0  0  0  0
 26 27  2  0  0  0  0
 27 28  1  0  0  0  0
 28 29  2  0  0  0  0
 29 30  1  0  0  0  0
 29 31  1  0  0  0  0
 31 32  2  0  0  0  0
 32 33  1  0  0  0  0
M  END
> <ID>
10769

> <Formula>
C30H40Cl2N4

> <FW>
527.5714 (456.6643+35.4535+35.4535)

> <DSSTox_CID>
25144

> <DSSTox_RID>
80700

> <DSSTox_GSID>
45144

> <DSSTox_FileID_Sort>
5381

> <TS_ChemName>
Dequalinium dichloride

> <TS_ChemName_Synonyms>


> <TS_CASRN>
522-51-0

> <CASRN_ChemName_Relationship>
primary

> <TS_Description>
single chemical compound

> <ChemNote>
ammonium; parent [6707-58-0]

> <STRUCTURE_Shown>
tested chemical

> <STRUCTURE_Formula>
C30H40Cl2N4

> <STRUCTURE_MW>
527.5714

> <STRUCTURE_ChemType>
defined organic

> <STRUCTURE_DefinedOrganicForm>
salt

> <STRUCTURE_IUPAC>
1,1'-decane-1,10-diylbis(4-amino-2-methylquinolinium) dichloride

> <STRUCTURE_SMILES>
[Cl-].[Cl-].Nc4cc(C)[n+](CCCCCCCCCC[n+]2c1ccccc1c(N)cc2C)c3ccccc34

> <STRUCTURE_SMILES_Desalt>
Nc4cc(C)[n+](CCCCCCCCCC[n+]2c1ccccc1c(N)cc2C)c3ccccc34

> <Substance_modify_yyyymmdd>
20100107

$$$$
