522-40-7
ChemmineR-0915142007XD

 28 29  0  0  0  0  0  0  0  0  1 V2000
    5.8176   -1.1516    0.0000 C   0  0  0  0  0  0  0  0  0  0  0  0
    7.1486   -1.1516    0.0000 C   0  0  0  0  0  0  0  0  0  0  0  0
    7.8067   -2.3031    0.0000 C   0  0  0  0  0  0  0  0  0  0  0  0
    7.1486   -3.4547    0.0000 C   0  0  0  0  0  0  0  0  0  0  0  0
    7.8067   -4.6062    0.0000 C   0  0  0  0  0  0  0  0  0  0  0  0
    9.1377   -4.6062    0.0000 C   0  0  0  0  0  0  0  0  0  0  0  0
    5.8176   -3.4547    0.0000 C   0  0  0  0  0  0  0  0  0  0  0  0
    5.1446   -4.6062    0.0000 C   0  0  0  0  0  0  0  0  0  0  0  0
    3.8136   -4.6062    0.0000 C   0  0  0  0  0  0  0  0  0  0  0  0
    3.1556   -3.4547    0.0000 C   0  0  0  0  0  0  0  0  0  0  0  0
    1.8245   -3.4547    0.0000 O   0  0  0  0  0  0  0  0  0  0  0  0
    1.1516   -2.3031    0.0000 P   0  0  0  0  0  0  0  0  0  0  0  0
    2.3031   -1.6301    0.0000 O   0  0  0  0  0  0  0  0  0  0  0  0
    0.0000   -2.9612    0.0000 O   0  0  0  0  0  0  0  0  0  0  0  0
    0.4935   -1.1516    0.0000 O   0  0  0  0  0  0  0  0  0  0  0  0
    3.8136   -2.3031    0.0000 C   0  0  0  0  0  0  0  0  0  0  0  0
    5.1446   -2.3031    0.0000 C   0  0  0  0  0  0  0  0  0  0  0  0
    9.1377   -2.3031    0.0000 C   0  0  0  0  0  0  0  0  0  0  0  0
    9.8107   -1.1516    0.0000 C   0  0  0  0  0  0  0  0  0  0  0  0
   11.1417   -1.1516    0.0000 C   0  0  0  0  0  0  0  0  0  0  0  0
   11.7998   -2.3031    0.0000 C   0  0  0  0  0  0  0  0  0  0  0  0
   13.1308   -2.3031    0.0000 O   0  0  0  0  0  0  0  0  0  0  0  0
   13.8038   -1.1516    0.0000 P   0  0  0  0  0  0  0  0  0  0  0  0
   12.6522   -0.4786    0.0000 O   0  0  0  0  0  0  0  0  0  0  0  0
   14.4618    0.0000    0.0000 O   0  0  0  0  0  0  0  0  0  0  0  0
   14.9553   -1.8096    0.0000 O   0  0  0  0  0  0  0  0  0  0  0  0
   11.1417   -3.4547    0.0000 C   0  0  0  0  0  0  0  0  0  0  0  0
    9.8107   -3.4547    0.0000 C   0  0  0  0  0  0  0  0  0  0  0  0
  1  2  1  0  0  0  0
  2  3  1  0  0  0  0
  3  4  2  0  0  0  0
  3 18  1  0  0  0  0
  4  5  1  0  0  0  0
  4  7  1  0  0  0  0
  5  6  1  0  0  0  0
  7  8  2  0  0  0  0
  7 17  1  0  0  0  0
  8  9  1  0  0  0  0
  9 10  2  0  0  0  0
 10 11  1  0  0  0  0
 10 16  1  0  0  0  0
 11 12  1  0  0  0  0
 12 13  1  0  0  0  0
 12 14  1  0  0  0  0
 12 15  2  0  0  0  0
 16 17  2  0  0  0  0
 18 19  2  0  0  0  0
 18 28  1  0  0  0  0
 19 20  1  0  0  0  0
 20 21  2  0  0  0  0
 21 22  1  0  0  0  0
 21 27  1  0  0  0  0
 22 23  1  0  0  0  0
 23 24  1  0  0  0  0
 23 25  1  0  0  0  0
 23 26  2  0  0  0  0
 27 28  2  0  0  0  0
M  END
> <ID>
12067

> <Formula>
C18H22O8P2

> <FW>
428.31

> <DSSTox_CID>
26906

> <DSSTox_RID>
82005

> <DSSTox_GSID>
46906

> <DSSTox_FileID_Sort>
6686

> <TS_ChemName>
Diethylstilbestrol diphosphate

> <TS_ChemName_Synonyms>


> <TS_CASRN>
522-40-7

> <CASRN_ChemName_Relationship>
primary

> <TS_Description>
single chemical compound

> <ChemNote>
stereochem

> <STRUCTURE_Shown>
tested chemical

> <STRUCTURE_Formula>
C18H22O8P2

> <STRUCTURE_MW>
428.31

> <STRUCTURE_ChemType>
defined organic

> <STRUCTURE_DefinedOrganicForm>
parent

> <STRUCTURE_IUPAC>
(3E)-hex-3-ene-3,4-diyldibenzene-4,1-diyl bis[dihydrogen (phosphate)]

> <STRUCTURE_SMILES>
OP(=O)(O)Oc1ccc(cc1)C(\CC)=C(/CC)c2ccc(OP(=O)(O)O)cc2

> <STRUCTURE_SMILES_Desalt>
OP(=O)(O)Oc1ccc(cc1)C(\CC)=C(/CC)c2ccc(OP(=O)(O)O)cc2

> <Substance_modify_yyyymmdd>
20110726

$$$$
