52205-73-9
ChemmineR-0915142007XD

 38 39  0  0  1  0  0  0  0  0  2 V2000
   11.2134   -6.6529    0.0000 Na   0  3  0  0  0  0  0  0  0  0  0  0
   13.4132   -6.6529    0.0000 Na   0  3  0  0  0  0  0  0  0  0  0  0
   13.2657   -0.1341    0.0000 O    0  5  0  0  0  0  0  0  0  0  0  0
   12.9974   -1.9181    0.0000 O    0  5  0  0  0  0  0  0  0  0  0  0
   11.2537    0.0000    0.0000 O    0  0  0  0  0  0  0  0  0  0  0  0
   12.0182   -1.1669    0.0000 P    0  0  0  0  0  0  0  0  0  0  0  0
    9.0941   -3.7691    0.0000 C    0  0  0  0  0  0  0  0  0  0  0  0
    9.0941   -5.0702    0.0000 C    0  0  0  0  0  0  0  0  0  0  0  0
    7.9674   -5.7140    0.0000 C    0  0  0  0  0  0  0  0  0  0  0  0
    1.1401   -7.1090    0.0000 C    0  0  0  0  0  0  0  0  0  0  0  0
    6.8273   -5.0702    0.0000 C    0  0  0  0  0  0  0  0  0  0  0  0
    5.6872   -5.7140    0.0000 C    0  0  0  0  0  0  0  0  0  0  0  0
    5.6872   -7.1090    0.0000 C    0  0  0  0  0  0  0  0  0  0  0  0
    7.9674   -3.1253    0.0000 C    0  0  0  0  0  0  0  0  0  0  0  0
    6.8273   -3.7691    0.0000 C    0  0  0  0  0  0  0  0  0  0  0  0
    2.2802   -7.6723    0.0000 O    0  0  0  0  0  0  0  0  0  0  0  0
    7.9674   -7.1090    0.0000 C    0  0  0  0  0  0  0  0  0  0  0  0
   10.4086   -5.4726    0.0000 C    0  0  0  0  0  0  0  0  0  0  0  0
    4.5471   -5.0702    0.0000 C    0  0  0  0  0  0  0  0  0  0  0  0
    1.1401   -5.7140    0.0000 N    0  0  0  0  0  0  0  0  0  0  0  0
   10.4086   -3.2862    0.0000 C    0  0  0  0  0  0  0  0  0  0  0  0
    0.0000   -7.7528    0.0000 O    0  0  0  0  0  0  0  0  0  0  0  0
    4.5471   -7.6723    0.0000 C    0  0  0  0  0  0  0  0  0  0  0  0
    3.4070   -7.1090    0.0000 C    0  0  0  0  0  0  0  0  0  0  0  0
    6.8273   -7.6723    0.0000 C    0  0  0  0  0  0  0  0  0  0  0  0
   11.1330   -4.4129    0.0000 C    0  0  0  0  0  0  0  0  0  0  0  0
    3.4070   -5.7140    0.0000 C    0  0  0  0  0  0  0  0  0  0  0  0
    9.0941   -2.3875    0.0000 C    0  0  0  0  0  0  0  0  0  0  0  0
   10.8110   -2.0656    0.0000 O    0  0  0  0  0  0  0  0  0  0  0  0
    1.1401   -3.1253    0.0000 Cl   0  0  0  0  0  0  0  0  0  0  0  0
    3.4070   -3.0448    0.0000 Cl   0  0  0  0  0  0  0  0  0  0  0  0
    2.2802   -5.0702    0.0000 C    0  0  0  0  0  0  0  0  0  0  0  0
    0.0000   -5.0702    0.0000 C    0  0  0  0  0  0  0  0  0  0  0  0
    2.2802   -3.7691    0.0000 C    0  0  0  0  0  0  0  0  0  0  0  0
    0.0000   -3.7691    0.0000 C    0  0  0  0  0  0  0  0  0  0  0  0
    6.8273   -6.3847    0.0000 H    0  0  0  0  0  0  0  0  0  0  0  0
    7.9674   -4.4129    0.0000 H    0  0  0  0  0  0  0  0  0  0  0  0
    9.0941   -6.3847    0.0000 H    0  0  0  0  0  0  0  0  0  0  0  0
  3  6  1  0  0  0  0
  4  6  1  0  0  0  0
  5  6  2  0  0  0  0
  6 29  1  0  0  0  0
  7  8  1  0  0  0  0
  7 14  1  0  0  0  0
  7 21  1  0  0  0  0
  7 28  1  1  0  0  0
  8  9  1  0  0  0  0
  8 18  1  0  0  0  0
  8 38  1  6  0  0  0
  9 17  1  0  0  0  0
  9 11  1  0  0  0  0
  9 37  1  1  0  0  0
 10 16  1  0  0  0  0
 10 20  1  0  0  0  0
 10 22  2  0  0  0  0
 11 15  1  0  0  0  0
 11 12  1  0  0  0  0
 11 36  1  6  0  0  0
 12 13  2  0  0  0  0
 12 19  1  0  0  0  0
 13 23  1  0  0  0  0
 13 25  1  0  0  0  0
 14 15  1  0  0  0  0
 16 24  1  0  0  0  0
 17 25  1  0  0  0  0
 18 26  1  0  0  0  0
 19 27  2  0  0  0  0
 20 32  1  0  0  0  0
 20 33  1  0  0  0  0
 21 26  1  0  0  0  0
 21 29  1  1  0  0  0
 23 24  2  0  0  0  0
 24 27  1  0  0  0  0
 30 35  1  0  0  0  0
 31 34  1  0  0  0  0
 32 34  1  0  0  0  0
 33 35  1  0  0  0  0
M  END
> <ID>
13941

> <Formula>
C23H30Cl2NNa2O6P

> <FW>
564.3467 (22.9892+22.9892+518.3683)

> <DSSTox_CID>
28879

> <DSSTox_RID>
83147

> <DSSTox_GSID>
48953

> <DSSTox_FileID_Sort>
7824

> <TS_ChemName>
Estramustine phosphate sodium

> <TS_ChemName_Synonyms>


> <TS_CASRN>
52205-73-9

> <CASRN_ChemName_Relationship>
primary

> <TS_Description>
single chemical compound

> <ChemNote>
absolute stereochem; parent [4891-15-0]

> <STRUCTURE_Shown>
tested chemical

> <STRUCTURE_Formula>
C23H30Cl2NNa2O6P

> <STRUCTURE_MW>
564.3467

> <STRUCTURE_ChemType>
defined organic

> <STRUCTURE_DefinedOrganicForm>
salt

> <STRUCTURE_IUPAC>
disodium (17beta)-3-{[bis(2-chloroethyl)carbamoyl]oxy}estra-1,3,5(10)-trien-17-yl phosphate

> <STRUCTURE_SMILES>
[Na+].[Na+].ClCCN(CCCl)C(=O)Oc3cc4CC[C@@H]1[C@H](CC[C@]2(C)[C@H](CC[C@@H]12)OP([O-])([O-])=O)c4cc3

> <STRUCTURE_SMILES_Desalt>
ClCCN(CCCl)C(=O)Oc3cc4CC[C@@H]1[C@H](CC[C@]2(C)[C@H](CC[C@@H]12)OP(=O)(O)O)c4cc3

> <Substance_modify_yyyymmdd>
20111204

$$$$
