52212-02-9
ChemmineR-0915142007XD

 49 52  0  0  1  0  0  0  0  0  2 V2000
    7.0832   -5.7695    0.0000 C    0  0  0  0  0  0  0  0  0  0  0  0
    7.0832   -7.1010    0.0000 C    0  0  0  0  0  0  0  0  0  0  0  0
    5.9470   -5.0949    0.0000 C    0  0  0  0  0  0  0  0  0  0  0  0
    5.9470   -7.7578    0.0000 C    0  0  0  0  0  0  0  0  0  0  0  0
    4.7754   -5.7695    0.0000 C    0  0  0  0  0  0  0  0  0  0  0  0
    4.7754   -7.1010    0.0000 C    0  0  0  0  0  0  0  0  0  0  0  0
    8.2549   -5.0949    0.0000 C    0  0  0  0  0  0  0  0  0  0  0  0
    9.3910   -5.7695    0.0000 C    0  0  0  0  0  0  0  0  0  0  0  0
    8.2549   -7.7578    0.0000 C    0  0  0  0  0  0  0  0  0  0  0  0
    9.3910   -7.1010    0.0000 C    0  0  0  0  0  0  0  0  0  0  0  0
    8.2549   -3.7635    0.0000 C    0  0  0  0  0  0  0  0  0  0  0  0
    9.3910   -3.1067    0.0000 C    0  0  0  0  0  0  0  0  0  0  0  0
   10.5627   -5.0949    0.0000 C    0  0  0  0  0  0  0  0  0  0  0  0
   10.5627   -3.7635    0.0000 C    0  0  0  0  0  0  0  0  0  0  0  0
   11.8053   -5.4855    0.0000 C    0  0  0  0  0  0  0  0  0  0  0  0
   12.6042   -4.4381    0.0000 C    0  0  0  0  0  0  0  0  0  0  0  0
   11.8053   -3.3374    0.0000 C    0  0  0  0  0  0  0  0  0  0  0  0
   13.9356   -4.4381    0.0000 N    0  0  0  0  0  0  0  0  0  0  0  0
   14.6102   -3.2842    0.0000 C    0  0  0  0  0  0  0  0  0  0  0  0
   14.6102   -5.5920    0.0000 C    0  0  0  0  0  0  0  0  0  0  0  0
   15.9416   -3.2842    0.0000 C    0  0  0  0  0  0  0  0  0  0  0  0
   15.9416   -5.5920    0.0000 C    0  0  0  0  0  0  0  0  0  0  0  0
   16.5985   -4.4381    0.0000 N    0  3  0  0  0  0  0  0  0  0  0  0
    3.6392   -5.0949    0.0000 N    0  0  0  0  0  0  0  0  0  0  0  0
    2.4853   -5.7518    0.0000 C    0  0  0  0  0  0  0  0  0  0  0  0
    3.6392   -3.7635    0.0000 C    0  0  0  0  0  0  0  0  0  0  0  0
    1.3314   -5.0949    0.0000 C    0  0  0  0  0  0  0  0  0  0  0  0
    2.4853   -3.1067    0.0000 C    0  0  0  0  0  0  0  0  0  0  0  0
    1.3314   -3.7635    0.0000 N    0  3  0  0  0  0  0  0  0  0  0  0
    7.0832   -4.4381    0.0000 C    0  0  0  0  0  0  0  0  0  0  0  0
   10.5627   -2.4321    0.0000 C    0  0  0  0  0  0  0  0  0  0  0  0
   11.8053   -2.0060    0.0000 O    0  0  0  0  0  0  0  0  0  0  0  0
   12.9770   -1.3314    0.0000 C    0  0  0  0  0  0  0  0  0  0  0  0
   12.9770    0.0000    0.0000 O    0  0  0  0  0  0  0  0  0  0  0  0
   14.1131   -1.9883    0.0000 C    0  0  0  0  0  0  0  0  0  0  0  0
    3.6392   -7.7578    0.0000 O    0  0  0  0  0  0  0  0  0  0  0  0
    3.6392   -9.0892    0.0000 C    0  0  0  0  0  0  0  0  0  0  0  0
    4.7754   -9.7638    0.0000 O    0  0  0  0  0  0  0  0  0  0  0  0
    2.4853   -9.7638    0.0000 C    0  0  0  0  0  0  0  0  0  0  0  0
    0.6568   -2.6274    0.0000 C    0  0  0  0  0  0  0  0  0  0  0  0
    0.0000   -3.7635    0.0000 C    0  0  0  0  0  0  0  0  0  0  0  0
   17.7524   -3.7813    0.0000 C    0  0  0  0  0  0  0  0  0  0  0  0
   17.7524   -5.0949    0.0000 C    0  0  0  0  0  0  0  0  0  0  0  0
    7.0832   -8.4324    0.0000 H    0  0  0  0  0  0  0  0  0  0  0  0
    8.2549   -6.4264    0.0000 H    0  0  0  0  0  0  0  0  0  0  0  0
    9.3910   -4.4381    0.0000 H    0  0  0  0  0  0  0  0  0  0  0  0
   10.5627   -6.4264    0.0000 H    0  0  0  0  0  0  0  0  0  0  0  0
    1.0829   -6.4796    0.0000 Br   0  5  0  0  0  0  0  0  0  0  0  0
   15.1605   -7.0654    0.0000 Br   0  5  0  0  0  0  0  0  0  0  0  0
  1  3  1  0  0  0  0
  1  7  1  0  0  0  0
  1  2  1  0  0  0  0
  1 30  1  1  0  0  0
  2  4  1  0  0  0  0
  2  9  1  0  0  0  0
  2 44  1  6  0  0  0
  3  5  1  0  0  0  0
  4  6  1  0  0  0  0
  5  6  1  0  0  0  0
  5 24  1  1  0  0  0
  6 36  1  6  0  0  0
  7 11  1  0  0  0  0
  7  8  1  0  0  0  0
  7 45  1  6  0  0  0
  8 10  1  0  0  0  0
  8 13  1  0  0  0  0
  8 46  1  1  0  0  0
  9 10  1  0  0  0  0
 11 12  1  0  0  0  0
 12 14  1  0  0  0  0
 13 15  1  0  0  0  0
 13 14  1  0  0  0  0
 13 47  1  6  0  0  0
 14 17  1  0  0  0  0
 14 31  1  1  0  0  0
 15 16  1  0  0  0  0
 16 17  1  0  0  0  0
 16 18  1  1  0  0  0
 17 32  1  1  0  0  0
 18 19  1  0  0  0  0
 18 20  1  0  0  0  0
 19 21  1  0  0  0  0
 20 22  1  0  0  0  0
 21 23  1  0  0  0  0
 22 23  1  0  0  0  0
 23 42  1  0  0  0  0
 23 43  1  0  0  0  0
 24 25  1  0  0  0  0
 24 26  1  0  0  0  0
 25 27  1  0  0  0  0
 26 28  1  0  0  0  0
 27 29  1  0  0  0  0
 28 29  1  0  0  0  0
 29 40  1  0  0  0  0
 29 41  1  0  0  0  0
 32 33  1  0  0  0  0
 33 34  2  0  0  0  0
 33 35  1  0  0  0  0
 36 37  1  0  0  0  0
 37 38  2  0  0  0  0
 37 39  1  0  0  0  0
M  END
> <ID>
3117

> <Formula>
C35H62Br2N4O4

> <FW>
762.6992 (602.8901+79.9045+79.9045)

> <DSSTox_CID>
3478

> <DSSTox_RID>
77044

> <DSSTox_GSID>
23478

> <DSSTox_FileID_Sort>
1727

> <TS_ChemName>
Pipecuronium bromide

> <TS_ChemName_Synonyms>


> <TS_CASRN>
52212-02-9

> <CASRN_ChemName_Relationship>
primary

> <TS_Description>
single chemical compound

> <ChemNote>
ammonium; stereochem

> <STRUCTURE_Shown>
tested chemical

> <STRUCTURE_Formula>
C35H62Br2N4O4

> <STRUCTURE_MW>
762.6992

> <STRUCTURE_ChemType>
defined organic

> <STRUCTURE_DefinedOrganicForm>
salt

> <STRUCTURE_IUPAC>
(2beta,3alpha,5alpha,16beta,17beta)-3,17-bis(acetyloxy)-2,16-bis(4,4-dimethylpiperazin-4-ium-1-yl)androstane dibromide

> <STRUCTURE_SMILES>
[Br-].[Br-].C[N+]1(C)CCN(CC1)[C@H]6C[C@@]5(C)[C@@H](CC[C@@H]3[C@@H]5CC[C@]2(C)[C@@H](OC(C)=O)[C@H](C[C@H]23)N4CC[N+](C)(C)CC4)C[C@@H]6OC(C)=O

> <STRUCTURE_SMILES_Desalt>
C[N+]1(C)CCN(CC1)[C@H]6C[C@@]5(C)[C@@H](CC[C@@H]3[C@@H]5CC[C@]2(C)[C@@H](OC(C)=O)[C@H](C[C@H]23)N4CC[N+](C)(C)CC4)C[C@@H]6OC(C)=O

> <Substance_modify_yyyymmdd>
20080429

$$$$
