52239-63-1
ChemmineR-0915142007XD

 45 46  0  0  0  0  0  0  0  0  1 V2000
    4.2329   -3.9969    0.0000 N   0  0  0  0  0  0  0  0  0  0  0  0
    5.3832   -4.6753    0.0000 C   0  0  0  0  0  0  0  0  0  0  0  0
    4.2329   -6.6664    0.0000 S   0  0  0  0  0  0  0  0  0  0  0  0
    3.0825   -4.6753    0.0000 C   0  0  0  0  0  0  0  0  0  0  0  0
    5.3832   -5.9879    0.0000 C   0  0  0  0  0  0  0  0  0  0  0  0
    3.0825   -5.9879    0.0000 C   0  0  0  0  0  0  0  0  0  0  0  0
    6.5189   -3.9969    0.0000 C   0  0  0  0  0  0  0  0  0  0  0  0
    7.6693   -2.0206    0.0000 N   0  0  0  0  0  0  0  0  0  0  0  0
    9.9553   -0.6932    0.0000 N   0  0  0  0  0  0  0  0  0  0  0  0
    6.5189   -6.6664    0.0000 C   0  0  0  0  0  0  0  0  0  0  0  0
    4.2329   -2.6842    0.0000 C   0  0  0  0  0  0  0  0  0  0  0  0
    7.6693   -4.6753    0.0000 C   0  0  0  0  0  0  0  0  0  0  0  0
    9.9553   -2.0206    0.0000 C   0  0  0  0  0  0  0  0  0  0  0  0
    8.8049   -0.0147    0.0000 C   0  0  0  0  0  0  0  0  0  0  0  0
    7.6693   -0.6932    0.0000 C   0  0  0  0  0  0  0  0  0  0  0  0
    8.8049   -2.6842    0.0000 C   0  0  0  0  0  0  0  0  0  0  0  0
    5.3832   -2.0206    0.0000 C   0  0  0  0  0  0  0  0  0  0  0  0
    8.8049   -3.9969    0.0000 S   0  0  0  0  0  0  0  0  0  0  0  0
    7.6693   -5.9879    0.0000 C   0  0  0  0  0  0  0  0  0  0  0  0
    6.5189   -2.6842    0.0000 C   0  0  0  0  0  0  0  0  0  0  0  0
    1.9468   -3.9969    0.0000 C   0  0  0  0  0  0  0  0  0  0  0  0
    1.9468   -6.6664    0.0000 C   0  0  0  0  0  0  0  0  0  0  0  0
   11.1352    0.0000    0.0000 C   0  0  0  0  0  0  0  0  0  0  0  0
    9.9848   -4.6901    0.0000 C   0  0  0  0  0  0  0  0  0  0  0  0
    0.7964   -4.6753    0.0000 C   0  0  0  0  0  0  0  0  0  0  0  0
   11.1499   -4.0116    0.0000 C   0  0  0  0  0  0  0  0  0  0  0  0
    0.7964   -5.9879    0.0000 C   0  0  0  0  0  0  0  0  0  0  0  0
    2.2860  -10.1028    0.0000 C   0  0  0  0  0  0  0  0  0  0  0  0
    4.5868  -10.1028    0.0000 C   0  0  0  0  0  0  0  0  0  0  0  0
    1.1356   -9.4244    0.0000 C   0  0  0  0  0  0  0  0  0  0  0  0
    3.4364   -9.4244    0.0000 C   0  0  0  0  0  0  0  0  0  0  0  0
    5.7520   -9.4391    0.0000 O   0  0  0  0  0  0  0  0  0  0  0  0
    1.1356   -8.0675    0.0000 O   0  0  0  0  0  0  0  0  0  0  0  0
    4.5868  -11.4154    0.0000 O   0  0  0  0  0  0  0  0  0  0  0  0
    0.0000  -10.0733    0.0000 O   0  0  0  0  0  0  0  0  0  0  0  0
    3.4364   -8.0970    0.0000 O   0  0  0  0  0  0  0  0  0  0  0  0
   11.2827   -9.5866    0.0000 C   0  0  0  0  0  0  0  0  0  0  0  0
   13.5982   -9.5866    0.0000 C   0  0  0  0  0  0  0  0  0  0  0  0
   10.1470   -8.9082    0.0000 C   0  0  0  0  0  0  0  0  0  0  0  0
   12.4331   -8.9082    0.0000 C   0  0  0  0  0  0  0  0  0  0  0  0
   14.7486   -8.9229    0.0000 O   0  0  0  0  0  0  0  0  0  0  0  0
   10.1470   -7.5513    0.0000 O   0  0  0  0  0  0  0  0  0  0  0  0
   13.5982  -10.8992    0.0000 O   0  0  0  0  0  0  0  0  0  0  0  0
    8.9967   -9.5571    0.0000 O   0  0  0  0  0  0  0  0  0  0  0  0
   12.4331   -7.5808    0.0000 O   0  0  0  0  0  0  0  0  0  0  0  0
  1  2  1  0  0  0  0
  1  4  1  0  0  0  0
  1 11  1  0  0  0  0
  2  5  2  0  0  0  0
  2  7  1  0  0  0  0
  3  6  1  0  0  0  0
  3  5  1  0  0  0  0
  4  6  2  0  0  0  0
  4 21  1  0  0  0  0
  5 10  1  0  0  0  0
  6 22  1  0  0  0  0
  7 12  2  0  0  0  0
  8 20  1  0  0  0  0
  8 15  1  0  0  0  0
  8 16  1  0  0  0  0
  9 13  1  0  0  0  0
  9 23  1  0  0  0  0
  9 14  1  0  0  0  0
 10 19  2  0  0  0  0
 11 17  1  0  0  0  0
 12 18  1  0  0  0  0
 12 19  1  0  0  0  0
 13 16  1  0  0  0  0
 14 15  1  0  0  0  0
 17 20  1  0  0  0  0
 18 24  1  0  0  0  0
 21 25  2  0  0  0  0
 22 27  2  0  0  0  0
 24 26  1  0  0  0  0
 25 27  1  0  0  0  0
 28 30  1  0  0  0  0
 28 31  1  0  0  0  0
 29 31  1  0  0  0  0
 29 32  2  0  0  0  0
 29 34  1  0  0  0  0
 30 33  2  0  0  0  0
 30 35  1  0  0  0  0
 31 36  1  0  0  0  0
 37 39  1  0  0  0  0
 37 40  1  0  0  0  0
 38 40  1  0  0  0  0
 38 41  2  0  0  0  0
 38 43  1  0  0  0  0
 39 42  2  0  0  0  0
 39 44  1  0  0  0  0
 40 45  1  0  0  0  0
M  END
> <ID>
11050

> <Formula>
C30H41N3O10S2

> <FW>
667.7906 (399.6158+134.0874+134.0874)

> <DSSTox_CID>
25586

> <DSSTox_RID>
80982

> <DSSTox_GSID>
45586

> <DSSTox_FileID_Sort>
5663

> <TS_ChemName>
Thiethylperazine malate

> <TS_ChemName_Synonyms>
Thiethylperazine dimalate (Thiethylperazine malate)

> <TS_CASRN>
52239-63-1

> <CASRN_ChemName_Relationship>
primary

> <TS_Description>
single chemical compound

> <ChemNote>
stereochem; parent [1420-55-9]

> <STRUCTURE_Shown>
tested chemical

> <STRUCTURE_Formula>
C30H41N3O10S2

> <STRUCTURE_MW>
667.7906

> <STRUCTURE_ChemType>
defined organic

> <STRUCTURE_DefinedOrganicForm>
complex

> <STRUCTURE_IUPAC>
2-hydroxybutanedioic acid - 2-(ethylsulfanyl)-10-[3-(4-methylpiperazin-1-yl)propyl]-10H-phenothiazine (2:1)

> <STRUCTURE_SMILES>
O=C(O)C(O)CC(=O)O.O=C(O)C(O)CC(=O)O.CN1CCN(CC1)CCCN2c4ccccc4Sc3ccc(SCC)cc23

> <STRUCTURE_SMILES_Desalt>
CN1CCN(CC1)CCCN2c4ccccc4Sc3ccc(SCC)cc23

> <Substance_modify_yyyymmdd>
20110719

$$$$
