52253-69-7
ChemmineR-0915142007XD

 14 13  0  0  0  0  0  0  0  0  1 V2000
    0.0000    0.0000    0.0000 N    0  0  0  0  0  0  0  0  0  0  0  0
    1.0741   -0.7824    0.0000 C    0  0  0  0  0  0  0  0  0  0  0  0
    2.3402   -0.3699    0.0000 N    0  0  0  0  0  0  0  0  0  0  0  0
    3.1226   -1.4439    0.0000 C    0  0  0  0  0  0  0  0  0  0  0  0
    4.4527   -1.4439    0.0000 C    0  0  0  0  0  0  0  0  0  0  0  0
    5.1214   -0.2916    0.0000 C    0  0  0  0  0  0  0  0  0  0  0  0
    6.4515   -0.2916    0.0000 C    0  0  0  0  0  0  0  0  0  0  0  0
    7.1130   -1.4439    0.0000 C    0  0  0  0  0  0  0  0  0  0  0  0
    6.4515   -2.5963    0.0000 C    0  0  0  0  0  0  0  0  0  0  0  0
    5.1214   -2.5963    0.0000 C    0  0  0  0  0  0  0  0  0  0  0  0
    2.3402   -2.5180    0.0000 C    0  0  0  0  0  0  0  0  0  0  0  0
    1.0741   -2.1126    0.0000 S    0  0  0  0  0  0  0  0  0  0  0  0
    3.5921   -3.9264    0.0000 Br   0  0  0  0  0  0  0  0  0  0  0  0
    1.5222   -3.8197    0.0000 O    0  0  0  0  0  0  0  0  0  0  0  0
  1  2  1  0  0  0  0
  2  3  2  0  0  0  0
  2 12  1  0  0  0  0
  3  4  1  0  0  0  0
  4  5  1  0  0  0  0
  4 11  2  0  0  0  0
  5  6  2  0  0  0  0
  5 10  1  0  0  0  0
  6  7  1  0  0  0  0
  7  8  2  0  0  0  0
  8  9  1  0  0  0  0
  9 10  2  0  0  0  0
 11 12  1  0  0  0  0
M  END
> <ID>
3719

> <Formula>
C9H11BrN2OS

> <FW>
275.1654 (176.2382+80.9119+18.0153)

> <DSSTox_CID>
4503

> <DSSTox_RID>
77432

> <DSSTox_GSID>
24503

> <DSSTox_FileID_Sort>
2115

> <TS_ChemName>
2-Amino-4-phenylthiazole hydrobromide hydrate

> <TS_ChemName_Synonyms>


> <TS_CASRN>
52253-69-7

> <CASRN_ChemName_Relationship>
primary

> <TS_Description>
single chemical compound

> <ChemNote>
parent [2010-06-2]

> <STRUCTURE_Shown>
tested chemical

> <STRUCTURE_Formula>
C9H11BrN2OS

> <STRUCTURE_MW>
275.1654

> <STRUCTURE_ChemType>
defined organic

> <STRUCTURE_DefinedOrganicForm>
complex

> <STRUCTURE_IUPAC>
4-phenyl-1,3-thiazol-2-amine hydrobromide hydrate

> <STRUCTURE_SMILES>
Br.O.Nc1nc(cs1)c2ccccc2

> <STRUCTURE_SMILES_Desalt>
Nc1nc(cs1)c2ccccc2

> <Substance_modify_yyyymmdd>
20080429

$$$$
