52298-44-9
ChemmineR-0915142007XD

 21 22  0  0  0  0  0  0  0  0  1 V2000
    3.4622   -3.3141    0.0000 C   0  0  0  0  0  0  0  0  0  0  0  0
    2.3051   -3.9806    0.0000 C   0  0  0  0  0  0  0  0  0  0  0  0
    1.1572   -3.3141    0.0000 C   0  0  0  0  0  0  0  0  0  0  0  0
    1.1572   -1.9811    0.0000 C   0  0  0  0  0  0  0  0  0  0  0  0
    2.3051   -1.3238    0.0000 C   0  0  0  0  0  0  0  0  0  0  0  0
    3.4622   -1.9811    0.0000 C   0  0  0  0  0  0  0  0  0  0  0  0
    4.6101   -3.9806    0.0000 S   0  0  0  0  0  0  0  0  0  0  0  0
    3.9436   -5.1378    0.0000 O   0  0  0  0  0  0  0  0  0  0  0  0
    5.7673   -4.6379    0.0000 O   0  0  0  0  0  0  0  0  0  0  0  0
    5.2674   -2.8327    0.0000 N   0  0  0  0  0  0  0  0  0  0  0  0
    0.0000   -1.3238    0.0000 N   0  0  0  0  0  0  0  0  0  0  0  0
    4.6101   -1.3238    0.0000 O   0  0  0  0  0  0  0  0  0  0  0  0
    4.6101    0.0000    0.0000 C   0  0  0  0  0  0  0  0  0  0  0  0
    0.0000   -3.9806    0.0000 O   0  0  0  0  0  0  0  0  0  0  0  0
    0.0000   -5.3137    0.0000 C   0  0  0  0  0  0  0  0  0  0  0  0
    8.6000   -1.6756    0.0000 C   0  0  0  0  0  0  0  0  0  0  0  0
    9.2573   -2.8327    0.0000 C   0  0  0  0  0  0  0  0  0  0  0  0
    8.6000   -3.9806    0.0000 C   0  0  0  0  0  0  0  0  0  0  0  0
    7.2670   -3.9806    0.0000 C   0  0  0  0  0  0  0  0  0  0  0  0
    6.6004   -2.8327    0.0000 C   0  0  0  0  0  0  0  0  0  0  0  0
    7.2670   -1.6756    0.0000 C   0  0  0  0  0  0  0  0  0  0  0  0
  1  2  2  0  0  0  0
  1  6  1  0  0  0  0
  1  7  1  0  0  0  0
  2  3  1  0  0  0  0
  3  4  2  0  0  0  0
  3 14  1  0  0  0  0
  4  5  1  0  0  0  0
  4 11  1  0  0  0  0
  5  6  2  0  0  0  0
  6 12  1  0  0  0  0
  7  8  2  0  0  0  0
  7 10  1  0  0  0  0
  7  9  2  0  0  0  0
 10 20  1  0  0  0  0
 12 13  1  0  0  0  0
 14 15  1  0  0  0  0
 16 21  2  0  0  0  0
 16 17  1  0  0  0  0
 17 18  2  0  0  0  0
 18 19  1  0  0  0  0
 19 20  2  0  0  0  0
 20 21  1  0  0  0  0
M  END
> <ID>
10338

> <Formula>
C14H16N2O4S

> <FW>
308.3528

> <DSSTox_CID>
24686

> <DSSTox_RID>
80397

> <DSSTox_GSID>
44686

> <DSSTox_FileID_Sort>
5079

> <TS_ChemName>
4-Amino-2,5-dimethoxy-N-phenylbenzenesulfonamide

> <TS_ChemName_Synonyms>
4-Amino-2,5-dimethoxy-N-phenylbenzenesulfonamide (Benzenesulfonamide, 4-amino-2,5-dimethoxy-N-phenyl-)

> <TS_CASRN>
52298-44-9

> <CASRN_ChemName_Relationship>
primary

> <TS_Description>
single chemical compound

> <ChemNote>


> <STRUCTURE_Shown>
tested chemical

> <STRUCTURE_Formula>
C14H16N2O4S

> <STRUCTURE_MW>
308.3528

> <STRUCTURE_ChemType>
defined organic

> <STRUCTURE_DefinedOrganicForm>
parent

> <STRUCTURE_IUPAC>
4-amino-2,5-dimethoxy-N-phenylbenzenesulfonamide

> <STRUCTURE_SMILES>
O=S(=O)(Nc1ccccc1)c2cc(OC)c(N)cc2OC

> <STRUCTURE_SMILES_Desalt>
O=S(=O)(Nc1ccccc1)c2cc(OC)c(N)cc2OC

> <Substance_modify_yyyymmdd>
20091116

$$$$
