523-27-3
ChemmineR-0915142007XD

 16 18  0  0  0  0  0  0  0  0  1 V2000
    6.9129   -3.3320    0.0000 C    0  0  0  0  0  0  0  0  0  0  0  0
    6.9129   -2.0047    0.0000 C    0  0  0  0  0  0  0  0  0  0  0  0
    0.0000   -3.3320    0.0000 C    0  0  0  0  0  0  0  0  0  0  0  0
    0.0000   -2.0047    0.0000 C    0  0  0  0  0  0  0  0  0  0  0  0
    5.7585   -4.0026    0.0000 C    0  0  0  0  0  0  0  0  0  0  0  0
    5.7585   -1.3480    0.0000 C    0  0  0  0  0  0  0  0  0  0  0  0
    1.1545   -4.0026    0.0000 C    0  0  0  0  0  0  0  0  0  0  0  0
    1.1545   -1.3480    0.0000 C    0  0  0  0  0  0  0  0  0  0  0  0
    4.6109   -3.3320    0.0000 C    0  0  0  0  0  0  0  0  0  0  0  0
    4.6109   -2.0047    0.0000 C    0  0  0  0  0  0  0  0  0  0  0  0
    2.3020   -3.3320    0.0000 C    0  0  0  0  0  0  0  0  0  0  0  0
    2.3020   -2.0047    0.0000 C    0  0  0  0  0  0  0  0  0  0  0  0
    3.4565   -4.0026    0.0000 C    0  0  0  0  0  0  0  0  0  0  0  0
    3.4565   -1.3480    0.0000 C    0  0  0  0  0  0  0  0  0  0  0  0
    3.4565   -5.3299    0.0000 Br   0  0  0  0  0  0  0  0  0  0  0  0
    3.4565    0.0000    0.0000 Br   0  0  0  0  0  0  0  0  0  0  0  0
  1  2  1  0  0  0  0
  1  5  2  0  0  0  0
  2  6  2  0  0  0  0
  3  4  2  0  0  0  0
  3  7  1  0  0  0  0
  4  8  1  0  0  0  0
  5  9  1  0  0  0  0
  6 10  1  0  0  0  0
  7 11  2  0  0  0  0
  8 12  2  0  0  0  0
  9 10  1  0  0  0  0
  9 13  2  0  0  0  0
 10 14  2  0  0  0  0
 11 12  1  0  0  0  0
 11 13  1  0  0  0  0
 12 14  1  0  0  0  0
 13 15  1  0  0  0  0
 14 16  1  0  0  0  0
M  END
> <ID>
14176

> <Formula>
C14H8Br2

> <FW>
336.0213

> <DSSTox_CID>
29268

> <DSSTox_RID>
83387

> <DSSTox_GSID>
49312

> <DSSTox_FileID_Sort>
8062

> <TS_ChemName>
9,10-Dibromoanthracene

> <TS_ChemName_Synonyms>


> <TS_CASRN>
523-27-3

> <CASRN_ChemName_Relationship>
primary

> <TS_Description>
single chemical compound

> <ChemNote>


> <STRUCTURE_Shown>
tested chemical

> <STRUCTURE_Formula>
C14H8Br2

> <STRUCTURE_MW>
336.0213

> <STRUCTURE_ChemType>
defined organic

> <STRUCTURE_DefinedOrganicForm>
parent

> <STRUCTURE_IUPAC>
9,10-dibromoanthracene

> <STRUCTURE_SMILES>
Brc2c1ccccc1c(Br)c3ccccc23

> <STRUCTURE_SMILES_Desalt>
Brc2c1ccccc1c(Br)c3ccccc23

> <Substance_modify_yyyymmdd>
20111204

$$$$
