523-87-5
ChemmineR-0915142007XD

 33 35  0  0  0  0  0  0  0  0  1 V2000
    9.1116   -2.7239    0.0000 C    0  0  0  0  0  0  0  0  0  0  0  0
   10.2585   -3.3929    0.0000 N    0  0  0  0  0  0  0  0  0  0  0  0
   10.2585   -4.7310    0.0000 C    0  0  0  0  0  0  0  0  0  0  0  0
    9.1116   -5.3841    0.0000 O    0  0  0  0  0  0  0  0  0  0  0  0
   11.4054   -5.3841    0.0000 N    0  0  0  0  0  0  0  0  0  0  0  0
   11.4054   -6.7222    0.0000 C    0  0  0  0  0  0  0  0  0  0  0  0
   12.5682   -4.7310    0.0000 C    0  0  0  0  0  0  0  0  0  0  0  0
   12.5682   -3.3929    0.0000 C    0  0  0  0  0  0  0  0  0  0  0  0
   13.8267   -2.9788    0.0000 N    0  0  0  0  0  0  0  0  0  0  0  0
   14.6072   -4.0779    0.0000 C    0  0  0  0  0  0  0  0  0  0  0  0
   15.9293   -4.0779    0.0000 Cl   0  0  0  0  0  0  0  0  0  0  0  0
   13.8267   -5.1452    0.0000 N    0  0  0  0  0  0  0  0  0  0  0  0
   11.4054   -2.7239    0.0000 C    0  0  0  0  0  0  0  0  0  0  0  0
   11.4054   -1.4018    0.0000 O    0  0  0  0  0  0  0  0  0  0  0  0
    0.0000   -1.9912    0.0000 C    0  0  0  0  0  0  0  0  0  0  0  0
    1.1469   -1.3381    0.0000 N    0  0  0  0  0  0  0  0  0  0  0  0
    1.1469    0.0000    0.0000 C    0  0  0  0  0  0  0  0  0  0  0  0
    2.3098   -1.9912    0.0000 C    0  0  0  0  0  0  0  0  0  0  0  0
    2.3098   -3.3292    0.0000 C    0  0  0  0  0  0  0  0  0  0  0  0
    3.4567   -3.9983    0.0000 O    0  0  0  0  0  0  0  0  0  0  0  0
    3.4567   -5.3204    0.0000 C    0  0  0  0  0  0  0  0  0  0  0  0
    4.6036   -5.9894    0.0000 C    0  0  0  0  0  0  0  0  0  0  0  0
    5.7664   -5.3204    0.0000 C    0  0  0  0  0  0  0  0  0  0  0  0
    6.9133   -5.9894    0.0000 C    0  0  0  0  0  0  0  0  0  0  0  0
    6.9133   -7.3116    0.0000 C    0  0  0  0  0  0  0  0  0  0  0  0
    5.7664   -7.9806    0.0000 C    0  0  0  0  0  0  0  0  0  0  0  0
    4.6036   -7.3116    0.0000 C    0  0  0  0  0  0  0  0  0  0  0  0
    2.3098   -5.9894    0.0000 C    0  0  0  0  0  0  0  0  0  0  0  0
    2.3098   -7.3116    0.0000 C    0  0  0  0  0  0  0  0  0  0  0  0
    1.1469   -7.9806    0.0000 C    0  0  0  0  0  0  0  0  0  0  0  0
    0.0000   -7.3116    0.0000 C    0  0  0  0  0  0  0  0  0  0  0  0
    0.0000   -5.9894    0.0000 C    0  0  0  0  0  0  0  0  0  0  0  0
    1.1469   -5.3204    0.0000 C    0  0  0  0  0  0  0  0  0  0  0  0
  1  2  1  0  0  0  0
  2  3  1  0  0  0  0
  2 13  1  0  0  0  0
  3  4  2  0  0  0  0
  3  5  1  0  0  0  0
  5  6  1  0  0  0  0
  5  7  1  0  0  0  0
  7  8  2  0  0  0  0
  7 12  1  0  0  0  0
  8  9  1  0  0  0  0
  8 13  1  0  0  0  0
  9 10  2  0  0  0  0
 10 11  1  0  0  0  0
 10 12  1  0  0  0  0
 13 14  2  0  0  0  0
 15 16  1  0  0  0  0
 16 17  1  0  0  0  0
 16 18  1  0  0  0  0
 18 19  1  0  0  0  0
 19 20  1  0  0  0  0
 20 21  1  0  0  0  0
 21 22  1  0  0  0  0
 21 28  1  0  0  0  0
 22 23  2  0  0  0  0
 22 27  1  0  0  0  0
 23 24  1  0  0  0  0
 24 25  2  0  0  0  0
 25 26  1  0  0  0  0
 26 27  2  0  0  0  0
 28 29  2  0  0  0  0
 28 33  1  0  0  0  0
 29 30  1  0  0  0  0
 30 31  2  0  0  0  0
 31 32  1  0  0  0  0
 32 33  2  0  0  0  0
M  END
> <ID>
4011

> <Formula>
C24H28ClN5O3

> <FW>
469.9638 (214.6091+255.3547)

> <DSSTox_CID>
5087

> <DSSTox_RID>
77660

> <DSSTox_GSID>
25087

> <DSSTox_FileID_Sort>
2343

> <TS_ChemName>
Dimenhydrinate

> <TS_ChemName_Synonyms>


> <TS_CASRN>
523-87-5

> <CASRN_ChemName_Relationship>
primary

> <TS_Description>
single chemical compound

> <ChemNote>
1:1 mixture of 2-(diphenylmethoxy)-N,N-dimethylethylamine [58-73-1] and 8-Chlorotheophylline [85-18-7]

> <STRUCTURE_Shown>
tested chemical

> <STRUCTURE_Formula>
C24H28ClN5O3

> <STRUCTURE_MW>
469.9638

> <STRUCTURE_ChemType>
defined organic

> <STRUCTURE_DefinedOrganicForm>
complex

> <STRUCTURE_IUPAC>
8-chloro-1,3-dimethyl-3,9-dihydro-1H-purine-2,6-dione - 2-(diphenylmethoxy)-N,N-dimethylethanamine (1:1)

> <STRUCTURE_SMILES>
CN(C)CCOC(c1ccccc1)c2ccccc2.O=C2c1nc(Cl)nc1N(C)C(=O)N2C

> <STRUCTURE_SMILES_Desalt>
CN(C)CCOC(c1ccccc1)c2ccccc2

> <Substance_modify_yyyymmdd>
20080429

$$$$
