52304-36-6
ChemmineR-0915142007XD

 15 14  0  0  0  0  0  0  0  0  1 V2000
    8.0777   -2.7079    0.0000 C   0  0  0  0  0  0  0  0  0  0  0  0
    6.9254   -2.0511    0.0000 C   0  0  0  0  0  0  0  0  0  0  0  0
    8.0777   -4.0331    0.0000 O   0  0  0  0  0  0  0  0  0  0  0  0
    9.2184   -2.0511    0.0000 O   0  0  0  0  0  0  0  0  0  0  0  0
    4.6207   -2.0511    0.0000 N   0  0  0  0  0  0  0  0  0  0  0  0
    5.7730   -2.7079    0.0000 C   0  0  0  0  0  0  0  0  0  0  0  0
    3.4569   -2.7079    0.0000 C   0  0  0  0  0  0  0  0  0  0  0  0
    2.3046   -2.0511    0.0000 C   0  0  0  0  0  0  0  0  0  0  0  0
    1.1523   -2.7079    0.0000 C   0  0  0  0  0  0  0  0  0  0  0  0
    0.0000   -2.0511    0.0000 C   0  0  0  0  0  0  0  0  0  0  0  0
   10.3707   -2.7079    0.0000 C   0  0  0  0  0  0  0  0  0  0  0  0
   11.5230   -2.0511    0.0000 C   0  0  0  0  0  0  0  0  0  0  0  0
    4.6323   -0.6683    0.0000 C   0  0  0  0  0  0  0  0  0  0  0  0
    5.7846   -0.0115    0.0000 C   0  0  0  0  0  0  0  0  0  0  0  0
    3.4915    0.0000    0.0000 O   0  0  0  0  0  0  0  0  0  0  0  0
  1  2  1  0  0  0  0
  1  3  2  0  0  0  0
  1  4  1  0  0  0  0
  2  6  1  0  0  0  0
  4 11  1  0  0  0  0
  5  6  1  0  0  0  0
  5  7  1  0  0  0  0
  5 13  1  0  0  0  0
  7  8  1  0  0  0  0
  8  9  1  0  0  0  0
  9 10  1  0  0  0  0
 11 12  1  0  0  0  0
 13 14  1  0  0  0  0
 13 15  2  0  0  0  0
M  END
> <ID>
7074

> <Formula>
C11H21NO3

> <FW>
215.2893

> <DSSTox_CID>
15753

> <DSSTox_RID>
79268

> <DSSTox_GSID>
35753

> <DSSTox_FileID_Sort>
3950

> <TS_ChemName>
Ethyl 3-(N-butylacetamido)propionate

> <TS_ChemName_Synonyms>
Ethyl 3-(N-butylacetamido)propionate (.beta.-Alanine, N-acetyl-N-butyl-, ethyl ester)

> <TS_CASRN>
52304-36-6

> <CASRN_ChemName_Relationship>
primary

> <TS_Description>
single chemical compound

> <ChemNote>


> <STRUCTURE_Shown>
tested chemical

> <STRUCTURE_Formula>
C11H21NO3

> <STRUCTURE_MW>
215.2893

> <STRUCTURE_ChemType>
defined organic

> <STRUCTURE_DefinedOrganicForm>
parent

> <STRUCTURE_IUPAC>
ethyl N-acetyl-N-butyl-beta-alaninate

> <STRUCTURE_SMILES>
O=C(CCN(CCCC)C(C)=O)OCC

> <STRUCTURE_SMILES_Desalt>
O=C(CCN(CCCC)C(C)=O)OCC

> <Substance_modify_yyyymmdd>
20080429

$$$$
