52315-07-8
ChemmineR-0915142007XD

 28 30  0  0  0  0  0  0  0  0  1 V2000
    4.1368   -1.0756    0.0000 C    0  0  0  0  0  0  0  0  0  0  0  0
    3.4418   -2.2339    0.0000 C    0  0  0  0  0  0  0  0  0  0  0  0
    4.7987   -2.2339    0.0000 C    0  0  0  0  0  0  0  0  0  0  0  0
    6.0066   -2.8626    0.0000 C    0  0  0  0  0  0  0  0  0  0  0  0
    2.3166   -2.8626    0.0000 C    0  0  0  0  0  0  0  0  0  0  0  0
    7.1649   -2.2339    0.0000 O    0  0  0  0  0  0  0  0  0  0  0  0
    1.1087   -2.2339    0.0000 C    0  0  0  0  0  0  0  0  0  0  0  0
    8.3232   -5.4936    0.0000 N    0  0  0  0  0  0  0  0  0  0  0  0
    8.3232   -4.1864    0.0000 C    0  0  0  0  0  0  0  0  0  0  0  0
    8.3232   -2.8626    0.0000 C    0  0  0  0  0  0  0  0  0  0  0  0
    9.4815   -2.2339    0.0000 C    0  0  0  0  0  0  0  0  0  0  0  0
    6.0066   -4.1864    0.0000 O    0  0  0  0  0  0  0  0  0  0  0  0
   10.6563   -2.8792    0.0000 C    0  0  0  0  0  0  0  0  0  0  0  0
   11.8312   -2.2835    0.0000 C    0  0  0  0  0  0  0  0  0  0  0  0
   12.9895   -2.8626    0.0000 O    0  0  0  0  0  0  0  0  0  0  0  0
    3.5907    0.0000    0.0000 C    0  0  0  0  0  0  0  0  0  0  0  0
    4.7987    0.0000    0.0000 C    0  0  0  0  0  0  0  0  0  0  0  0
    0.0000   -2.8626    0.0000 Cl   0  0  0  0  0  0  0  0  0  0  0  0
    1.1087   -0.8770    0.0000 Cl   0  0  0  0  0  0  0  0  0  0  0  0
   14.1974   -2.2339    0.0000 C    0  0  0  0  0  0  0  0  0  0  0  0
    9.4815   -0.8935    0.0000 C    0  0  0  0  0  0  0  0  0  0  0  0
   10.6563   -0.2151    0.0000 C    0  0  0  0  0  0  0  0  0  0  0  0
   11.8312   -0.8935    0.0000 C    0  0  0  0  0  0  0  0  0  0  0  0
   15.4054   -2.8626    0.0000 C    0  0  0  0  0  0  0  0  0  0  0  0
   14.1974   -0.8935    0.0000 C    0  0  0  0  0  0  0  0  0  0  0  0
   15.3226   -0.2317    0.0000 C    0  0  0  0  0  0  0  0  0  0  0  0
   16.5471   -2.2835    0.0000 C    0  0  0  0  0  0  0  0  0  0  0  0
   16.5471   -0.8770    0.0000 C    0  0  0  0  0  0  0  0  0  0  0  0
  1  2  1  0  0  0  0
  1  3  1  0  0  0  0
  1 16  1  0  0  0  0
  1 17  1  0  0  0  0
  2  5  1  0  0  0  0
  2  3  1  0  0  0  0
  3  4  1  0  0  0  0
  4  6  1  0  0  0  0
  4 12  2  0  0  0  0
  5  7  2  0  0  0  0
  6 10  1  0  0  0  0
  7 18  1  0  0  0  0
  7 19  1  0  0  0  0
  8  9  3  0  0  0  0
  9 10  1  0  0  0  0
 10 11  1  0  0  0  0
 11 13  1  0  0  0  0
 11 21  2  0  0  0  0
 13 14  2  0  0  0  0
 14 15  1  0  0  0  0
 14 23  1  0  0  0  0
 15 20  1  0  0  0  0
 20 24  2  0  0  0  0
 20 25  1  0  0  0  0
 21 22  1  0  0  0  0
 22 23  2  0  0  0  0
 24 27  1  0  0  0  0
 25 26  2  0  0  0  0
 26 28  1  0  0  0  0
 27 28  2  0  0  0  0
M  END
> <ID>
3461

> <Formula>
C22H19Cl2NO3

> <FW>
416.2972

> <DSSTox_CID>
3998

> <DSSTox_RID>
77252

> <DSSTox_GSID>
23998

> <DSSTox_FileID_Sort>
1935

> <TS_ChemName>
Cypermethrin

> <TS_ChemName_Synonyms>
Cypermethrin (3-(2,2-Dichloroethenyl)-2,2-dimethylcyclopropanecarboxylic acid, cyano(3-phenoxyphenyl)methyl ester)

> <TS_CASRN>
52315-07-8

> <CASRN_ChemName_Relationship>
primary

> <TS_Description>
mixture or formulation

> <ChemNote>
commercial product is a mixture of 8 isomers (Merck); structure shown without stereochem

> <STRUCTURE_Shown>
non-stereo form of chemical

> <STRUCTURE_Formula>
C22H19Cl2NO3

> <STRUCTURE_MW>
416.2972

> <STRUCTURE_ChemType>
defined organic

> <STRUCTURE_DefinedOrganicForm>
parent

> <STRUCTURE_IUPAC>
cyano(3-phenoxyphenyl)methyl 3-(2,2-dichloroethenyl)-2,2-dimethylcyclopropanecarboxylate

> <STRUCTURE_SMILES>
Cl/C(Cl)=C/C3C(C(=O)OC(C#N)c2cccc(Oc1ccccc1)c2)C3(C)C

> <STRUCTURE_SMILES_Desalt>
Cl/C(Cl)=C/C3C(C(=O)OC(C#N)c2cccc(Oc1ccccc1)c2)C3(C)C

> <Substance_modify_yyyymmdd>
20130919

$$$$
