5232-99-5
ChemmineR-0915142007XD

 21 22  0  0  0  0  0  0  0  0  1 V2000
    3.4520   -3.3310    0.0000 C   0  0  0  0  0  0  0  0  0  0  0  0
    3.4520   -2.0083    0.0000 C   0  0  0  0  0  0  0  0  0  0  0  0
    4.5972   -1.3227    0.0000 C   0  0  0  0  0  0  0  0  0  0  0  0
    2.2905   -1.3388    0.0000 C   0  0  0  0  0  0  0  0  0  0  0  0
    5.7586   -1.9921    0.0000 O   0  0  0  0  0  0  0  0  0  0  0  0
    4.5811    0.0000    0.0000 O   0  0  0  0  0  0  0  0  0  0  0  0
    1.1291   -0.6856    0.0000 N   0  0  0  0  0  0  0  0  0  0  0  0
    6.9200   -1.3388    0.0000 C   0  0  0  0  0  0  0  0  0  0  0  0
    8.0653   -1.9921    0.0000 C   0  0  0  0  0  0  0  0  0  0  0  0
    2.3067   -4.0085    0.0000 C   0  0  0  0  0  0  0  0  0  0  0  0
    2.3067   -5.3312    0.0000 C   0  0  0  0  0  0  0  0  0  0  0  0
    1.1453   -3.3632    0.0000 C   0  0  0  0  0  0  0  0  0  0  0  0
    1.1614   -6.0167    0.0000 C   0  0  0  0  0  0  0  0  0  0  0  0
    0.0000   -4.0246    0.0000 C   0  0  0  0  0  0  0  0  0  0  0  0
    0.0000   -5.3473    0.0000 C   0  0  0  0  0  0  0  0  0  0  0  0
    4.5972   -3.9843    0.0000 C   0  0  0  0  0  0  0  0  0  0  0  0
    5.7586   -3.3310    0.0000 C   0  0  0  0  0  0  0  0  0  0  0  0
    4.6134   -5.3312    0.0000 C   0  0  0  0  0  0  0  0  0  0  0  0
    6.9039   -3.9843    0.0000 C   0  0  0  0  0  0  0  0  0  0  0  0
    5.7586   -5.9845    0.0000 C   0  0  0  0  0  0  0  0  0  0  0  0
    6.9362   -5.2989    0.0000 C   0  0  0  0  0  0  0  0  0  0  0  0
  1  2  2  0  0  0  0
  1 10  1  0  0  0  0
  1 16  1  0  0  0  0
  2  3  1  0  0  0  0
  2  4  1  0  0  0  0
  3  5  1  0  0  0  0
  3  6  2  0  0  0  0
  4  7  3  0  0  0  0
  5  8  1  0  0  0  0
  8  9  1  0  0  0  0
 10 11  1  0  0  0  0
 10 12  2  0  0  0  0
 11 13  2  0  0  0  0
 12 14  1  0  0  0  0
 13 15  1  0  0  0  0
 14 15  2  0  0  0  0
 16 17  1  0  0  0  0
 16 18  2  0  0  0  0
 17 19  2  0  0  0  0
 18 20  1  0  0  0  0
 19 21  1  0  0  0  0
 20 21  2  0  0  0  0
M  END
> <ID>
10469

> <Formula>
C18H15NO2

> <FW>
277.3172

> <DSSTox_CID>
24821

> <DSSTox_RID>
80502

> <DSSTox_GSID>
44821

> <DSSTox_FileID_Sort>
5184

> <TS_ChemName>
Ethyl 2-cyano-3,3-diphenylacrylate

> <TS_ChemName_Synonyms>
Ethyl 2-cyano-3,3-diphenylprop-2-enoate (2-Propenoic acid, 2-cyano-3,3-diphenyl-, ethyl ester)

> <TS_CASRN>
5232-99-5

> <CASRN_ChemName_Relationship>
primary

> <TS_Description>
single chemical compound

> <ChemNote>


> <STRUCTURE_Shown>
tested chemical

> <STRUCTURE_Formula>
C18H15NO2

> <STRUCTURE_MW>
277.3172

> <STRUCTURE_ChemType>
defined organic

> <STRUCTURE_DefinedOrganicForm>
parent

> <STRUCTURE_IUPAC>
ethyl 2-cyano-3,3-diphenylprop-2-enoate

> <STRUCTURE_SMILES>
O=C(OCC)C(\C#N)=C(\c1ccccc1)c2ccccc2

> <STRUCTURE_SMILES_Desalt>
O=C(OCC)C(\C#N)=C(\c1ccccc1)c2ccccc2

> <Substance_modify_yyyymmdd>
20091116

$$$$
