524-36-7
ChemmineR-0915142007XD

 14 12  0  0  0  0  0  0  0  0  1 V2000
    2.2947   -2.0045    0.0000 C    0  0  0  0  0  0  0  0  0  0  0  0
    3.4758   -2.6727    0.0000 C    0  0  0  0  0  0  0  0  0  0  0  0
    2.2947   -4.6772    0.0000 N    0  0  0  0  0  0  0  0  0  0  0  0
    1.1676   -2.6727    0.0000 C    0  0  0  0  0  0  0  0  0  0  0  0
    3.4758   -3.9820    0.0000 C    0  0  0  0  0  0  0  0  0  0  0  0
    1.1676   -3.9820    0.0000 C    0  0  0  0  0  0  0  0  0  0  0  0
    4.6165   -2.0045    0.0000 O    0  0  0  0  0  0  0  0  0  0  0  0
    2.2947   -0.6952    0.0000 C    0  0  0  0  0  0  0  0  0  0  0  0
    3.4488    0.0000    0.0000 N    0  0  0  0  0  0  0  0  0  0  0  0
    0.0000   -2.0248    0.0000 C    0  0  0  0  0  0  0  0  0  0  0  0
    0.0000   -0.6952    0.0000 O    0  0  0  0  0  0  0  0  0  0  0  0
    4.6165   -4.6772    0.0000 C    0  0  0  0  0  0  0  0  0  0  0  0
    6.7492   -0.8234    0.0000 Cl   0  0  0  0  0  0  0  0  0  0  0  0
    6.7357   -3.1249    0.0000 Cl   0  0  0  0  0  0  0  0  0  0  0  0
  1  2  1  0  0  0  0
  1  4  2  0  0  0  0
  1  8  1  0  0  0  0
  2  5  2  0  0  0  0
  2  7  1  0  0  0  0
  3  6  2  0  0  0  0
  3  5  1  0  0  0  0
  4  6  1  0  0  0  0
  4 10  1  0  0  0  0
  5 12  1  0  0  0  0
  8  9  1  0  0  0  0
 10 11  1  0  0  0  0
M  END
> <ID>
10731

> <Formula>
C8H14Cl2N2O2

> <FW>
241.1150 (168.1931+36.4609+36.4609)

> <DSSTox_CID>
25088

> <DSSTox_RID>
80662

> <DSSTox_GSID>
45088

> <DSSTox_FileID_Sort>
5344

> <TS_ChemName>
Pyridoxamine dihydrochloride

> <TS_ChemName_Synonyms>


> <TS_CASRN>
524-36-7

> <CASRN_ChemName_Relationship>
primary

> <TS_Description>
single chemical compound

> <ChemNote>
parent [85-87-0]

> <STRUCTURE_Shown>
tested chemical

> <STRUCTURE_Formula>
C8H14Cl2N2O2

> <STRUCTURE_MW>
241.115

> <STRUCTURE_ChemType>
defined organic

> <STRUCTURE_DefinedOrganicForm>
complex

> <STRUCTURE_IUPAC>
4-(aminomethyl)-5-(hydroxymethyl)-2-methylpyridin-3-ol dihydrochloride

> <STRUCTURE_SMILES>
Cl.Cl.Oc1c(CN)c(cnc1C)CO

> <STRUCTURE_SMILES_Desalt>
Oc1c(CN)c(cnc1C)CO

> <Substance_modify_yyyymmdd>
20100107

$$$$
