52432-72-1
ChemmineR-0915142007XD

 37 36  0  0  0  0  0  0  0  0  1 V2000
    3.4513   -2.0183    0.0000 C   0  0  0  0  0  0  0  0  0  0  0  0
    4.6018   -1.3321    0.0000 C   0  0  0  0  0  0  0  0  0  0  0  0
    4.6018    0.0000    0.0000 O   0  0  0  0  0  0  0  0  0  0  0  0
    2.3009   -2.6844    0.0000 C   0  0  0  0  0  0  0  0  0  0  0  0
    5.7522   -1.9981    0.0000 O   0  0  0  0  0  0  0  0  0  0  0  0
   12.6145   -1.9981    0.0000 N   0  0  0  0  0  0  0  0  0  0  0  0
    4.1174   -3.1688    0.0000 C   0  0  0  0  0  0  0  0  0  0  0  0
    2.7651   -0.8679    0.0000 C   0  0  0  0  0  0  0  0  0  0  0  0
    9.1834   -1.3321    0.0000 O   0  0  0  0  0  0  0  0  0  0  0  0
    1.1303   -2.0183    0.0000 C   0  0  0  0  0  0  0  0  0  0  0  0
    2.3009   -4.0165    0.0000 C   0  0  0  0  0  0  0  0  0  0  0  0
   11.4843   -1.3321    0.0000 C   0  0  0  0  0  0  0  0  0  0  0  0
   13.7650   -1.3321    0.0000 C   0  0  0  0  0  0  0  0  0  0  0  0
   12.6145   -3.3100    0.0000 C   0  0  0  0  0  0  0  0  0  0  0  0
    6.9027   -1.3321    0.0000 C   0  0  0  0  0  0  0  0  0  0  0  0
   10.3338   -1.9981    0.0000 C   0  0  0  0  0  0  0  0  0  0  0  0
    8.0329   -1.9981    0.0000 C   0  0  0  0  0  0  0  0  0  0  0  0
   14.9154   -1.9981    0.0000 C   0  0  0  0  0  0  0  0  0  0  0  0
   11.4843   -3.9761    0.0000 C   0  0  0  0  0  0  0  0  0  0  0  0
    1.1303   -4.6825    0.0000 C   0  0  0  0  0  0  0  0  0  0  0  0
    0.0000   -2.6844    0.0000 C   0  0  0  0  0  0  0  0  0  0  0  0
    0.0000   -4.0165    0.0000 C   0  0  0  0  0  0  0  0  0  0  0  0
    1.4330   -0.8679    0.0000 C   0  0  0  0  0  0  0  0  0  0  0  0
    5.4495   -3.1688    0.0000 C   0  0  0  0  0  0  0  0  0  0  0  0
   16.8732   -5.9339    0.0000 C   0  0  0  0  0  0  0  0  0  0  0  0
   18.2053   -5.9339    0.0000 C   0  0  0  0  0  0  0  0  0  0  0  0
   15.5209   -5.9339    0.0000 C   0  0  0  0  0  0  0  0  0  0  0  0
   16.8732   -7.2458    0.0000 C   0  0  0  0  0  0  0  0  0  0  0  0
   15.7025   -7.9118    0.0000 O   0  0  0  0  0  0  0  0  0  0  0  0
   14.8549   -4.7834    0.0000 C   0  0  0  0  0  0  0  0  0  0  0  0
   13.5228   -4.7834    0.0000 O   0  0  0  0  0  0  0  0  0  0  0  0
   15.5209   -3.6128    0.0000 O   0  0  0  0  0  0  0  0  0  0  0  0
   18.8511   -4.7632    0.0000 C   0  0  0  0  0  0  0  0  0  0  0  0
   18.1851   -3.6128    0.0000 O   0  0  0  0  0  0  0  0  0  0  0  0
   20.1832   -4.7632    0.0000 O   0  0  0  0  0  0  0  0  0  0  0  0
   16.8732   -4.6018    0.0000 O   0  0  0  0  0  0  0  0  0  0  0  0
   18.0236   -7.9118    0.0000 O   0  0  0  0  0  0  0  0  0  0  0  0
  1  2  1  0  0  0  0
  1  4  1  0  0  0  0
  1  7  1  0  0  0  0
  1  8  1  0  0  0  0
  2  3  2  0  0  0  0
  2  5  1  0  0  0  0
  4 10  1  0  0  0  0
  4 11  2  0  0  0  0
  5 15  1  0  0  0  0
  6 12  1  0  0  0  0
  6 13  1  0  0  0  0
  6 14  1  0  0  0  0
  7 24  1  0  0  0  0
  8 23  1  0  0  0  0
  9 17  1  0  0  0  0
  9 16  1  0  0  0  0
 10 21  2  0  0  0  0
 11 20  1  0  0  0  0
 12 16  1  0  0  0  0
 13 18  1  0  0  0  0
 14 19  1  0  0  0  0
 15 17  1  0  0  0  0
 20 22  2  0  0  0  0
 21 22  1  0  0  0  0
 25 28  1  0  0  0  0
 25 27  1  0  0  0  0
 25 36  1  0  0  0  0
 25 26  1  0  0  0  0
 26 33  1  0  0  0  0
 27 30  1  0  0  0  0
 28 29  1  0  0  0  0
 28 37  2  0  0  0  0
 30 31  1  0  0  0  0
 30 32  2  0  0  0  0
 33 34  2  0  0  0  0
 33 35  1  0  0  0  0
M  END
> <ID>
11828

> <Formula>
C26H41NO10

> <FW>
527.6044 (335.4809+192.1235)

> <DSSTox_CID>
26608

> <DSSTox_RID>
81763

> <DSSTox_GSID>
46608

> <DSSTox_FileID_Sort>
6444

> <TS_ChemName>
Oxeladin citrate

> <TS_ChemName_Synonyms>


> <TS_CASRN>
52432-72-1

> <CASRN_ChemName_Relationship>
primary

> <TS_Description>
single chemical compound

> <ChemNote>
parent [468-61-1]

> <STRUCTURE_Shown>
tested chemical

> <STRUCTURE_Formula>
C26H41NO10

> <STRUCTURE_MW>
527.6044

> <STRUCTURE_ChemType>
defined organic

> <STRUCTURE_DefinedOrganicForm>
complex

> <STRUCTURE_IUPAC>
2-[2-(diethylamino)ethoxy]ethyl 2-ethyl-2-phenylbutanoate 2-hydroxypropane-1,2,3-tricarboxylate (1:1)

> <STRUCTURE_SMILES>
CCC(CC)(C(=O)OCCOCCN(CC)CC)c1ccccc1.O=C(O)C(O)(CC(=O)O)CC(=O)O

> <STRUCTURE_SMILES_Desalt>
CCC(CC)(C(=O)OCCOCCN(CC)CC)c1ccccc1

> <Substance_modify_yyyymmdd>
20110809

$$$$
