52468-60-7
ChemmineR-0915142007XD

 30 33  0  0  0  0  0  0  0  0  1 V2000
    0.0000   -7.9786    0.0000 F   0  0  0  0  0  0  0  0  0  0  0  0
    1.1526   -7.3199    0.0000 C   0  0  0  0  0  0  0  0  0  0  0  0
    1.1526   -5.9877    0.0000 C   0  0  0  0  0  0  0  0  0  0  0  0
    2.3053   -5.3141    0.0000 C   0  0  0  0  0  0  0  0  0  0  0  0
    3.4579   -5.9877    0.0000 C   0  0  0  0  0  0  0  0  0  0  0  0
    3.4579   -7.3199    0.0000 C   0  0  0  0  0  0  0  0  0  0  0  0
    2.3053   -7.9786    0.0000 C   0  0  0  0  0  0  0  0  0  0  0  0
    4.6105   -5.3141    0.0000 C   0  0  0  0  0  0  0  0  0  0  0  0
    5.7631   -5.9877    0.0000 N   0  0  0  0  0  0  0  0  0  0  0  0
    6.9158   -5.3141    0.0000 C   0  0  0  0  0  0  0  0  0  0  0  0
    8.0534   -5.9877    0.0000 C   0  0  0  0  0  0  0  0  0  0  0  0
    8.0534   -7.3199    0.0000 N   0  0  0  0  0  0  0  0  0  0  0  0
    6.9158   -7.9786    0.0000 C   0  0  0  0  0  0  0  0  0  0  0  0
    5.7631   -7.3199    0.0000 C   0  0  0  0  0  0  0  0  0  0  0  0
    9.2060   -7.9786    0.0000 C   0  0  0  0  0  0  0  0  0  0  0  0
   10.3587   -7.3199    0.0000 C   0  0  0  0  0  0  0  0  0  0  0  0
   11.5113   -7.9786    0.0000 C   0  0  0  0  0  0  0  0  0  0  0  0
   12.6639   -7.3199    0.0000 C   0  0  0  0  0  0  0  0  0  0  0  0
   12.6639   -5.9877    0.0000 C   0  0  0  0  0  0  0  0  0  0  0  0
   13.8165   -5.3141    0.0000 C   0  0  0  0  0  0  0  0  0  0  0  0
   14.9692   -5.9877    0.0000 C   0  0  0  0  0  0  0  0  0  0  0  0
   14.9692   -7.3199    0.0000 C   0  0  0  0  0  0  0  0  0  0  0  0
   13.8165   -7.9786    0.0000 C   0  0  0  0  0  0  0  0  0  0  0  0
    4.6105   -3.9968    0.0000 C   0  0  0  0  0  0  0  0  0  0  0  0
    3.4579   -3.3232    0.0000 C   0  0  0  0  0  0  0  0  0  0  0  0
    3.4579   -1.9909    0.0000 C   0  0  0  0  0  0  0  0  0  0  0  0
    4.6105   -1.3323    0.0000 C   0  0  0  0  0  0  0  0  0  0  0  0
    4.6105    0.0000    0.0000 F   0  0  0  0  0  0  0  0  0  0  0  0
    5.7631   -1.9909    0.0000 C   0  0  0  0  0  0  0  0  0  0  0  0
    5.7631   -3.3232    0.0000 C   0  0  0  0  0  0  0  0  0  0  0  0
  1  2  1  0  0  0  0
  2  3  2  0  0  0  0
  2  7  1  0  0  0  0
  3  4  1  0  0  0  0
  4  5  2  0  0  0  0
  5  6  1  0  0  0  0
  5  8  1  0  0  0  0
  6  7  2  0  0  0  0
  8  9  1  0  0  0  0
  8 24  1  0  0  0  0
  9 10  1  0  0  0  0
  9 14  1  0  0  0  0
 10 11  1  0  0  0  0
 11 12  1  0  0  0  0
 12 13  1  0  0  0  0
 12 15  1  0  0  0  0
 13 14  1  0  0  0  0
 15 16  1  0  0  0  0
 16 17  2  0  0  0  0
 17 18  1  0  0  0  0
 18 19  2  0  0  0  0
 18 23  1  0  0  0  0
 19 20  1  0  0  0  0
 20 21  2  0  0  0  0
 21 22  1  0  0  0  0
 22 23  2  0  0  0  0
 24 25  2  0  0  0  0
 24 30  1  0  0  0  0
 25 26  1  0  0  0  0
 26 27  2  0  0  0  0
 27 28  1  0  0  0  0
 27 29  1  0  0  0  0
 29 30  2  0  0  0  0
M  END
> <ID>
11073

> <Formula>
C26H26F2N2

> <FW>
404.4948

> <DSSTox_CID>
25616

> <DSSTox_RID>
81005

> <DSSTox_GSID>
45616

> <DSSTox_FileID_Sort>
5686

> <TS_ChemName>
Flunarizine

> <TS_ChemName_Synonyms>


> <TS_CASRN>
52468-60-7

> <CASRN_ChemName_Relationship>
primary

> <TS_Description>
single chemical compound

> <ChemNote>
stereochem

> <STRUCTURE_Shown>
tested chemical

> <STRUCTURE_Formula>
C26H26F2N2

> <STRUCTURE_MW>
404.4948

> <STRUCTURE_ChemType>
defined organic

> <STRUCTURE_DefinedOrganicForm>
parent

> <STRUCTURE_IUPAC>
1-[bis(4-fluorophenyl)methyl]-4-[(2E)-3-phenylprop-2-en-1-yl]piperazine

> <STRUCTURE_SMILES>
Fc1ccc(cc1)C(c2ccc(F)cc2)N3CCN(CC3)C/C=C/c4ccccc4

> <STRUCTURE_SMILES_Desalt>
Fc1ccc(cc1)C(c2ccc(F)cc2)N3CCN(CC3)C/C=C/c4ccccc4

> <Substance_modify_yyyymmdd>
20100107

$$$$
