52479-85-3
ChemmineR-0915142007XD

 20 21  0  0  0  0  0  0  0  0  1 V2000
    3.4751   -1.9818    0.0000 C   0  0  0  0  0  0  0  0  0  0  0  0
    2.3228   -1.3089    0.0000 C   0  0  0  0  0  0  0  0  0  0  0  0
    4.5904   -1.3089    0.0000 C   0  0  0  0  0  0  0  0  0  0  0  0
    5.7426   -1.9818    0.0000 C   0  0  0  0  0  0  0  0  0  0  0  0
    1.1706   -1.9818    0.0000 C   0  0  0  0  0  0  0  0  0  0  0  0
    8.0470   -3.2999    0.0000 C   0  0  0  0  0  0  0  0  0  0  0  0
    6.8948   -3.9728    0.0000 C   0  0  0  0  0  0  0  0  0  0  0  0
    8.0470   -1.9818    0.0000 C   0  0  0  0  0  0  0  0  0  0  0  0
    5.7426   -3.2999    0.0000 C   0  0  0  0  0  0  0  0  0  0  0  0
    6.8948   -1.3089    0.0000 C   0  0  0  0  0  0  0  0  0  0  0  0
    3.4751   -3.2999    0.0000 C   0  0  0  0  0  0  0  0  0  0  0  0
    1.1706   -3.2999    0.0000 C   0  0  0  0  0  0  0  0  0  0  0  0
    4.5904    0.0000    0.0000 O   0  0  0  0  0  0  0  0  0  0  0  0
    2.3228   -3.9728    0.0000 C   0  0  0  0  0  0  0  0  0  0  0  0
    2.3228    0.0000    0.0000 O   0  0  0  0  0  0  0  0  0  0  0  0
    0.0000   -1.2997    0.0000 O   0  0  0  0  0  0  0  0  0  0  0  0
    9.2177   -3.9820    0.0000 O   0  0  0  0  0  0  0  0  0  0  0  0
    9.2177   -1.2997    0.0000 O   0  0  0  0  0  0  0  0  0  0  0  0
    6.8948   -5.2817    0.0000 O   0  0  0  0  0  0  0  0  0  0  0  0
    0.0000   -3.9820    0.0000 O   0  0  0  0  0  0  0  0  0  0  0  0
  1  2  1  0  0  0  0
  1  3  1  0  0  0  0
  1 11  2  0  0  0  0
  2  5  2  0  0  0  0
  2 15  1  0  0  0  0
  3  4  1  0  0  0  0
  3 13  2  0  0  0  0
  4  9  2  0  0  0  0
  4 10  1  0  0  0  0
  5 16  1  0  0  0  0
  5 12  1  0  0  0  0
  6  8  1  0  0  0  0
  6 17  1  0  0  0  0
  6  7  2  0  0  0  0
  7  9  1  0  0  0  0
  7 19  1  0  0  0  0
  8 10  2  0  0  0  0
  8 18  1  0  0  0  0
 11 14  1  0  0  0  0
 12 14  2  0  0  0  0
 12 20  1  0  0  0  0
M  END
> <ID>
10597

> <Formula>
C13H10O7

> <FW>
278.2143

> <DSSTox_CID>
24950

> <DSSTox_RID>
80610

> <DSSTox_GSID>
44950

> <DSSTox_FileID_Sort>
5292

> <TS_ChemName>
Exifone

> <TS_ChemName_Synonyms>


> <TS_CASRN>
52479-85-3

> <CASRN_ChemName_Relationship>
primary

> <TS_Description>
single chemical compound

> <ChemNote>


> <STRUCTURE_Shown>
tested chemical

> <STRUCTURE_Formula>
C13H10O7

> <STRUCTURE_MW>
278.2143

> <STRUCTURE_ChemType>
defined organic

> <STRUCTURE_DefinedOrganicForm>
parent

> <STRUCTURE_IUPAC>
(2,3,4-trihydroxyphenyl)(3,4,5-trihydroxyphenyl)methanone

> <STRUCTURE_SMILES>
Oc2ccc(C(=O)c1cc(O)c(O)c(O)c1)c(O)c2O

> <STRUCTURE_SMILES_Desalt>
Oc2ccc(C(=O)c1cc(O)c(O)c(O)c1)c(O)c2O

> <Substance_modify_yyyymmdd>
20091116

$$$$
