525-76-8
ChemmineR-0915142007XD

 12 13  0  0  0  0  0  0  0  0  1 V2000
    5.7588   -3.9909    0.0000 C   0  0  0  0  0  0  0  0  0  0  0  0
    0.0000   -1.9983    0.0000 C   0  0  0  0  0  0  0  0  0  0  0  0
    0.0000   -3.3286    0.0000 C   0  0  0  0  0  0  0  0  0  0  0  0
    1.1518   -1.3303    0.0000 C   0  0  0  0  0  0  0  0  0  0  0  0
    1.1518   -3.9909    0.0000 C   0  0  0  0  0  0  0  0  0  0  0  0
    4.6071   -3.3286    0.0000 C   0  0  0  0  0  0  0  0  0  0  0  0
    2.3035   -1.9983    0.0000 C   0  0  0  0  0  0  0  0  0  0  0  0
    2.3035   -3.3286    0.0000 C   0  0  0  0  0  0  0  0  0  0  0  0
    3.4553   -1.3303    0.0000 C   0  0  0  0  0  0  0  0  0  0  0  0
    3.4553   -3.9909    0.0000 N   0  0  0  0  0  0  0  0  0  0  0  0
    3.4553    0.0000    0.0000 O   0  0  0  0  0  0  0  0  0  0  0  0
    4.6071   -1.9983    0.0000 O   0  0  0  0  0  0  0  0  0  0  0  0
  1  6  1  0  0  0  0
  2  3  2  0  0  0  0
  2  4  1  0  0  0  0
  3  5  1  0  0  0  0
  4  7  2  0  0  0  0
  5  8  2  0  0  0  0
  6 10  2  0  0  0  0
  6 12  1  0  0  0  0
  7  8  1  0  0  0  0
  7  9  1  0  0  0  0
  8 10  1  0  0  0  0
  9 11  2  0  0  0  0
  9 12  1  0  0  0  0
M  END
> <ID>
14177

> <Formula>
C9H7NO2

> <FW>
161.1574

> <DSSTox_CID>
29269

> <DSSTox_RID>
83388

> <DSSTox_GSID>
49313

> <DSSTox_FileID_Sort>
8063

> <TS_ChemName>
4H-3,1-Benzoxazin-4-one,2-methyl-

> <TS_ChemName_Synonyms>


> <TS_CASRN>
525-76-8

> <CASRN_ChemName_Relationship>
primary

> <TS_Description>
single chemical compound

> <ChemNote>


> <STRUCTURE_Shown>
tested chemical

> <STRUCTURE_Formula>
C9H7NO2

> <STRUCTURE_MW>
161.1574

> <STRUCTURE_ChemType>
defined organic

> <STRUCTURE_DefinedOrganicForm>
parent

> <STRUCTURE_IUPAC>
2-methyl-4H-3,1-benzoxazin-4-one

> <STRUCTURE_SMILES>
CC2=Nc1ccccc1C(=O)O2

> <STRUCTURE_SMILES_Desalt>
CC2=Nc1ccccc1C(=O)O2

> <Substance_modify_yyyymmdd>
20111204

$$$$
