525-61-1
ChemmineR-0915142007XD

 19 20  0  0  0  0  0  0  0  0  1 V2000
    3.4944   -2.0245    0.0000 C   0  0  0  0  0  0  0  0  0  0  0  0
    4.6314   -2.6994    0.0000 C   0  0  0  0  0  0  0  0  0  0  0  0
    2.3388   -2.6994    0.0000 C   0  0  0  0  0  0  0  0  0  0  0  0
    4.6314   -4.0213    0.0000 C   0  0  0  0  0  0  0  0  0  0  0  0
    5.7685   -2.0245    0.0000 N   0  0  0  0  0  0  0  0  0  0  0  0
    2.3388   -4.0213    0.0000 C   0  0  0  0  0  0  0  0  0  0  0  0
    3.4944   -4.6869    0.0000 C   0  0  0  0  0  0  0  0  0  0  0  0
    3.4944   -0.6933    0.0000 N   0  0  0  0  0  0  0  0  0  0  0  0
    8.0703   -2.0245    0.0000 C   0  0  0  0  0  0  0  0  0  0  0  0
    1.1740   -4.7146    0.0000 O   0  0  0  0  0  0  0  0  0  0  0  0
    5.7685   -4.6869    0.0000 C   0  0  0  0  0  0  0  0  0  0  0  0
    6.9240   -2.6994    0.0000 C   0  0  0  0  0  0  0  0  0  0  0  0
    8.0703   -0.6933    0.0000 C   0  0  0  0  0  0  0  0  0  0  0  0
    4.6314   -0.0370    0.0000 C   0  0  0  0  0  0  0  0  0  0  0  0
    0.0000   -4.0398    0.0000 C   0  0  0  0  0  0  0  0  0  0  0  0
    6.9240   -0.0370    0.0000 C   0  0  0  0  0  0  0  0  0  0  0  0
    5.7685   -0.6933    0.0000 C   0  0  0  0  0  0  0  0  0  0  0  0
    6.9240   -4.0213    0.0000 C   0  0  0  0  0  0  0  0  0  0  0  0
    9.2444    0.0000    0.0000 N   0  0  0  0  0  0  0  0  0  0  0  0
  1  2  1  0  0  0  0
  1  3  2  0  0  0  0
  1  8  1  0  0  0  0
  2  4  2  0  0  0  0
  2  5  1  0  0  0  0
  3  6  1  0  0  0  0
  4 11  1  0  0  0  0
  4  7  1  0  0  0  0
  5 12  2  0  0  0  0
  6  7  2  0  0  0  0
  6 10  1  0  0  0  0
  8 14  1  0  0  0  0
  9 13  1  0  0  0  0
 10 15  1  0  0  0  0
 11 18  2  0  0  0  0
 12 18  1  0  0  0  0
 13 16  1  0  0  0  0
 13 19  1  0  0  0  0
 14 17  1  0  0  0  0
 16 17  1  0  0  0  0
M  END
> <ID>
11147

> <Formula>
C15H21N3O

> <FW>
259.3467

> <DSSTox_CID>
25706

> <DSSTox_RID>
81078

> <DSSTox_GSID>
45706

> <DSSTox_FileID_Sort>
5759

> <TS_ChemName>
Quinocide

> <TS_ChemName_Synonyms>


> <TS_CASRN>
525-61-1

> <CASRN_ChemName_Relationship>
primary

> <TS_Description>
single chemical compound

> <ChemNote>


> <STRUCTURE_Shown>
tested chemical

> <STRUCTURE_Formula>
C15H21N3O

> <STRUCTURE_MW>
259.3467

> <STRUCTURE_ChemType>
defined organic

> <STRUCTURE_DefinedOrganicForm>
parent

> <STRUCTURE_IUPAC>
N~1~-(6-methoxyquinolin-8-yl)pentane-1,4-diamine

> <STRUCTURE_SMILES>
CC(N)CCCNc1cc(cc2cccnc12)OC

> <STRUCTURE_SMILES_Desalt>
CC(N)CCCNc1cc(cc2cccnc12)OC

> <Substance_modify_yyyymmdd>
20110819

$$$$
