525-79-1
ChemmineR-0915142007XD

 16 18  0  0  0  0  0  0  0  0  1 V2000
    2.0761   -7.3746    0.0000 C   0  0  0  0  0  0  0  0  0  0  0  0
    2.0761   -6.0199    0.0000 C   0  0  0  0  0  0  0  0  0  0  0  0
    0.8016   -5.6191    0.0000 N   0  0  0  0  0  0  0  0  0  0  0  0
    0.8016   -7.7434    0.0000 N   0  0  0  0  0  0  0  0  0  0  0  0
    0.0000   -6.6933    0.0000 C   0  0  0  0  0  0  0  0  0  0  0  0
    3.2384   -8.0159    0.0000 N   0  0  0  0  0  0  0  0  0  0  0  0
    4.3767   -6.0199    0.0000 N   0  0  0  0  0  0  0  0  0  0  0  0
    4.3767   -7.3746    0.0000 C   0  0  0  0  0  0  0  0  0  0  0  0
    3.2384   -5.3626    0.0000 C   0  0  0  0  0  0  0  0  0  0  0  0
    3.2384   -4.0560    0.0000 N   0  0  0  0  0  0  0  0  0  0  0  0
    4.4087   -3.3987    0.0000 C   0  0  0  0  0  0  0  0  0  0  0  0
    3.3667   -1.2425    0.0000 O   0  0  0  0  0  0  0  0  0  0  0  0
    3.7995    0.0000    0.0000 C   0  0  0  0  0  0  0  0  0  0  0  0
    4.4568   -2.0761    0.0000 C   0  0  0  0  0  0  0  0  0  0  0  0
    5.1222   -0.0321    0.0000 C   0  0  0  0  0  0  0  0  0  0  0  0
    5.5229   -1.2745    0.0000 C   0  0  0  0  0  0  0  0  0  0  0  0
  1  2  1  0  0  0  0
  1  4  2  0  0  0  0
  1  6  1  0  0  0  0
  2  3  1  0  0  0  0
  2  9  2  0  0  0  0
  3  5  2  0  0  0  0
  4  5  1  0  0  0  0
  6  8  2  0  0  0  0
  7  8  1  0  0  0  0
  7  9  1  0  0  0  0
  9 10  1  0  0  0  0
 10 11  1  0  0  0  0
 11 14  1  0  0  0  0
 12 13  1  0  0  0  0
 12 14  1  0  0  0  0
 13 15  2  0  0  0  0
 14 16  2  0  0  0  0
 15 16  1  0  0  0  0
M  END
> <ID>
6999

> <Formula>
C10H9N5O

> <FW>
215.2114

> <DSSTox_CID>
15175

> <DSSTox_RID>
79244

> <DSSTox_GSID>
35175

> <DSSTox_FileID_Sort>
3926

> <TS_ChemName>
Kinetin

> <TS_ChemName_Synonyms>
Kinetin (Cytokinin) (1H-Purin-6-amine, N-(2-furanylmethyl)-)

> <TS_CASRN>
525-79-1

> <CASRN_ChemName_Relationship>
primary

> <TS_Description>
single chemical compound

> <ChemNote>
tautomers

> <STRUCTURE_Shown>
tested chemical

> <STRUCTURE_Formula>
C10H9N5O

> <STRUCTURE_MW>
215.2114

> <STRUCTURE_ChemType>
defined organic

> <STRUCTURE_DefinedOrganicForm>
parent

> <STRUCTURE_IUPAC>
N-(furan-2-ylmethyl)-1H-purin-6-amine

> <STRUCTURE_SMILES>
N1C=NC3=NC=NC3=C1NCc2ccco2

> <STRUCTURE_SMILES_Desalt>
N1C=NC3=NC=NC3=C1NCc2ccco2

> <Substance_modify_yyyymmdd>
20080429

$$$$
