52508-35-7
ChemmineR-0915142007XD

 23 24  0  0  1  0  0  0  0  0  2 V2000
    5.6742   -0.8189    0.0000 O    0  0  0  0  0  0  0  0  0  0  0  0
    4.8884   -1.8776    0.0000 C    0  0  0  0  0  0  0  0  0  0  0  0
    5.6742   -2.9446    0.0000 C    0  0  0  0  0  0  0  0  0  0  0  0
    6.9398   -2.5476    0.0000 O    0  0  0  0  0  0  0  0  0  0  0  0
    6.9398   -1.1497    0.0000 C    0  0  0  0  0  0  0  0  0  0  0  0
    6.4766   -4.0365    0.0000 C    0  0  0  0  0  0  0  0  0  0  0  0
    7.7752   -3.8793    0.0000 O    0  5  0  0  0  0  0  0  0  0  0  0
    5.9306   -5.2524    0.0000 O    0  0  0  0  0  0  0  0  0  0  0  0
    3.6394   -2.2912    0.0000 C    0  0  0  0  0  0  0  0  0  0  0  0
    2.4814   -1.6212    0.0000 O    0  0  0  0  0  0  0  0  0  0  0  0
    1.3317   -2.2912    0.0000 C    0  0  0  0  0  0  0  0  0  0  0  0
    1.3317   -3.6229    0.0000 O    0  0  0  0  0  0  0  0  0  0  0  0
    2.4814   -4.2763    0.0000 C    0  0  0  0  0  0  0  0  0  0  0  0
    3.6394   -3.6229    0.0000 C    0  0  0  0  0  0  0  0  0  0  0  0
    4.8884   -4.0365    0.0000 O    0  0  0  0  0  0  0  0  0  0  0  0
    0.0000   -2.2912    0.0000 C    0  0  0  0  0  0  0  0  0  0  0  0
    0.6534   -1.1166    0.0000 C    0  0  0  0  0  0  0  0  0  0  0  0
    7.4857    0.0000    0.0000 C    0  0  0  0  0  0  0  0  0  0  0  0
    8.2715   -1.1497    0.0000 C    0  0  0  0  0  0  0  0  0  0  0  0
    3.6394   -0.9595    0.0000 H    0  0  0  0  0  0  0  0  0  0  0  0
    3.6394   -4.9546    0.0000 H    0  0  0  0  0  0  0  0  0  0  0  0
    4.8884   -0.5459    0.0000 H    0  0  0  0  0  0  0  0  0  0  0  0
    7.5849   -5.3847    0.0000 Na   0  3  0  0  0  0  0  0  0  0  0  0
  1  5  1  0  0  0  0
  1  2  1  0  0  0  0
  2  3  1  0  0  0  0
  2  9  1  0  0  0  0
  2 22  1  1  0  0  0
  3  6  1  1  0  0  0
  3 15  1  0  0  0  0
  3  4  1  0  0  0  0
  4  5  1  0  0  0  0
  5 18  1  0  0  0  0
  5 19  1  0  0  0  0
  6  7  1  0  0  0  0
  6  8  2  0  0  0  0
  9 10  1  0  0  0  0
  9 14  1  0  0  0  0
  9 20  1  6  0  0  0
 10 11  1  0  0  0  0
 11 12  1  0  0  0  0
 11 16  1  0  0  0  0
 11 17  1  0  0  0  0
 12 13  1  0  0  0  0
 13 14  1  0  0  0  0
 14 15  1  0  0  0  0
 14 21  1  6  0  0  0
M  END
> <ID>
6821

> <Formula>
C12H17NaO7

> <FW>
296.2489 (273.2597+22.9892)

> <DSSTox_CID>
14540

> <DSSTox_RID>
79164

> <DSSTox_GSID>
34540

> <DSSTox_FileID_Sort>
3846

> <TS_ChemName>
Dikegulac sodium

> <TS_ChemName_Synonyms>


> <TS_CASRN>
52508-35-7

> <CASRN_ChemName_Relationship>
primary

> <TS_Description>
single chemical compound

> <ChemNote>
stereochem; parent [18467-77-1]

> <STRUCTURE_Shown>
tested chemical

> <STRUCTURE_Formula>
C12H17NaO7

> <STRUCTURE_MW>
296.2489

> <STRUCTURE_ChemType>
defined organic

> <STRUCTURE_DefinedOrganicForm>
salt

> <STRUCTURE_IUPAC>
sodium (3aS,3bR,7aS,8aR)-2,2,5,5-tetramethyltetrahydro-8aH-[1,3]dioxolo[4,5]furo[3,2-d][1,3]dioxine-8a-carboxylate

> <STRUCTURE_SMILES>
[Na+].[O-]C(=O)[C@]23O[C@H]1COC(C)(C)O[C@H]1[C@@H]3OC(C)(C)O2

> <STRUCTURE_SMILES_Desalt>
O=C(O)[C@]23O[C@H]1COC(C)(C)O[C@H]1[C@@H]3OC(C)(C)O2

> <Substance_modify_yyyymmdd>
20080429

$$$$
