5251-93-4
ChemmineR-0915142007XD

 14 14  0  0  0  0  0  0  0  0  1 V2000
    2.3050   -0.6731    0.0000 C   0  0  0  0  0  0  0  0  0  0  0  0
    2.3050   -2.0007    0.0000 C   0  0  0  0  0  0  0  0  0  0  0  0
    1.1525    0.0000    0.0000 C   0  0  0  0  0  0  0  0  0  0  0  0
    1.1525   -2.6646    0.0000 C   0  0  0  0  0  0  0  0  0  0  0  0
    0.0000   -0.6731    0.0000 C   0  0  0  0  0  0  0  0  0  0  0  0
    0.0000   -2.0007    0.0000 C   0  0  0  0  0  0  0  0  0  0  0  0
    3.4667   -2.6646    0.0000 C   0  0  0  0  0  0  0  0  0  0  0  0
    3.4667   -3.9922    0.0000 O   0  0  0  0  0  0  0  0  0  0  0  0
    4.6192   -2.0007    0.0000 N   0  0  0  0  0  0  0  0  0  0  0  0
    5.7717   -2.6646    0.0000 O   0  0  0  0  0  0  0  0  0  0  0  0
    6.9149   -2.0007    0.0000 C   0  0  0  0  0  0  0  0  0  0  0  0
    8.0674   -2.6646    0.0000 C   0  0  0  0  0  0  0  0  0  0  0  0
    9.2199   -2.0007    0.0000 O   0  0  0  0  0  0  0  0  0  0  0  0
    8.0674   -3.9922    0.0000 O   0  0  0  0  0  0  0  0  0  0  0  0
  1  2  1  0  0  0  0
  1  3  2  0  0  0  0
  2  4  2  0  0  0  0
  2  7  1  0  0  0  0
  3  5  1  0  0  0  0
  4  6  1  0  0  0  0
  5  6  2  0  0  0  0
  7  8  2  0  0  0  0
  7  9  1  0  0  0  0
  9 10  1  0  0  0  0
 10 11  1  0  0  0  0
 11 12  1  0  0  0  0
 12 13  1  0  0  0  0
 12 14  2  0  0  0  0
M  END
> <ID>
8585

> <Formula>
C9H9NO4

> <FW>
195.1721

> <DSSTox_CID>
21625

> <DSSTox_RID>
79793

> <DSSTox_GSID>
41625

> <DSSTox_FileID_Sort>
4475

> <TS_ChemName>
Benzadox

> <TS_ChemName_Synonyms>


> <TS_CASRN>
5251-93-4

> <CASRN_ChemName_Relationship>
primary

> <TS_Description>
single chemical compound

> <ChemNote>


> <STRUCTURE_Shown>
tested chemical

> <STRUCTURE_Formula>
C9H9NO4

> <STRUCTURE_MW>
195.1721

> <STRUCTURE_ChemType>
defined organic

> <STRUCTURE_DefinedOrganicForm>
parent

> <STRUCTURE_IUPAC>
[(benzoylamino)oxy]acetic acid

> <STRUCTURE_SMILES>
O=C(NOCC(=O)O)c1ccccc1

> <STRUCTURE_SMILES_Desalt>
O=C(NOCC(=O)O)c1ccccc1

> <Substance_modify_yyyymmdd>
20080825

$$$$
