5259-88-1
ChemmineR-0915142007XD

 18 19  0  0  0  0  0  0  0  0  1 V2000
    8.0604   -2.4826    0.0000 O   0  0  0  0  0  0  0  0  0  0  0  0
    6.9239   -3.1355    0.0000 C   0  0  0  0  0  0  0  0  0  0  0  0
    5.7713   -2.4826    0.0000 C   0  0  0  0  0  0  0  0  0  0  0  0
    5.7713   -1.1526    0.0000 S   0  0  0  0  0  0  0  0  0  0  0  0
    6.9239   -0.4756    0.0000 C   0  0  0  0  0  0  0  0  0  0  0  0
    8.0604   -1.1526    0.0000 C   0  0  0  0  0  0  0  0  0  0  0  0
    4.6186   -3.1355    0.0000 C   0  0  0  0  0  0  0  0  0  0  0  0
    4.6186   -4.4735    0.0000 O   0  0  0  0  0  0  0  0  0  0  0  0
    3.4579   -2.4826    0.0000 N   0  0  0  0  0  0  0  0  0  0  0  0
    4.4413   -1.1526    0.0000 O   0  0  0  0  0  0  0  0  0  0  0  0
    5.0942    0.0000    0.0000 O   0  0  0  0  0  0  0  0  0  0  0  0
    6.9239   -4.4735    0.0000 C   0  0  0  0  0  0  0  0  0  0  0  0
    2.3053   -3.1355    0.0000 C   0  0  0  0  0  0  0  0  0  0  0  0
    2.3053   -4.4735    0.0000 C   0  0  0  0  0  0  0  0  0  0  0  0
    1.1526   -2.4826    0.0000 C   0  0  0  0  0  0  0  0  0  0  0  0
    1.1526   -5.1426    0.0000 C   0  0  0  0  0  0  0  0  0  0  0  0
    0.0000   -3.1355    0.0000 C   0  0  0  0  0  0  0  0  0  0  0  0
    0.0000   -4.4735    0.0000 C   0  0  0  0  0  0  0  0  0  0  0  0
  1  2  1  0  0  0  0
  1  6  1  0  0  0  0
  2  3  2  0  0  0  0
  2 12  1  0  0  0  0
  3  4  1  0  0  0  0
  3  7  1  0  0  0  0
  4  5  1  0  0  0  0
  4 10  2  0  0  0  0
  4 11  2  0  0  0  0
  5  6  1  0  0  0  0
  7  8  2  0  0  0  0
  7  9  1  0  0  0  0
  9 13  1  0  0  0  0
 13 14  2  0  0  0  0
 13 15  1  0  0  0  0
 14 16  1  0  0  0  0
 15 17  2  0  0  0  0
 16 18  2  0  0  0  0
 17 18  1  0  0  0  0
M  END
> <ID>
6911

> <Formula>
C12H13NO4S

> <FW>
267.3009

> <DSSTox_CID>
14792

> <DSSTox_RID>
79203

> <DSSTox_GSID>
34792

> <DSSTox_FileID_Sort>
3885

> <TS_ChemName>
Oxycarboxin

> <TS_ChemName_Synonyms>
Oxycarboxin (Plantvax technical)

> <TS_CASRN>
5259-88-1

> <CASRN_ChemName_Relationship>
primary

> <TS_Description>
single chemical compound

> <ChemNote>


> <STRUCTURE_Shown>
tested chemical

> <STRUCTURE_Formula>
C12H13NO4S

> <STRUCTURE_MW>
267.3009

> <STRUCTURE_ChemType>
defined organic

> <STRUCTURE_DefinedOrganicForm>
parent

> <STRUCTURE_IUPAC>
2-methyl-N-phenyl-5,6-dihydro-1,4-oxathiine-3-carboxamide 4,4-dioxide

> <STRUCTURE_SMILES>
CC=1OCCS(=O)(=O)C=1C(=O)Nc2ccccc2

> <STRUCTURE_SMILES_Desalt>
CC=1OCCS(=O)(=O)C=1C(=O)Nc2ccccc2

> <Substance_modify_yyyymmdd>
20080429

$$$$
