526-18-1
ChemmineR-0915142007XD

 17 18  0  0  0  0  0  0  0  0  1 V2000
    3.4475   -2.0187    0.0000 C   0  0  0  0  0  0  0  0  0  0  0  0
    2.3044   -2.6547    0.0000 C   0  0  0  0  0  0  0  0  0  0  0  0
    4.6273   -2.6547    0.0000 N   0  0  0  0  0  0  0  0  0  0  0  0
    2.3044   -4.0005    0.0000 C   0  0  0  0  0  0  0  0  0  0  0  0
    3.4475   -0.6729    0.0000 O   0  0  0  0  0  0  0  0  0  0  0  0
    5.7703   -2.0187    0.0000 C   0  0  0  0  0  0  0  0  0  0  0  0
    8.0748   -0.6729    0.0000 C   0  0  0  0  0  0  0  0  0  0  0  0
    3.4475   -4.6734    0.0000 O   0  0  0  0  0  0  0  0  0  0  0  0
    1.1430   -2.0187    0.0000 C   0  0  0  0  0  0  0  0  0  0  0  0
    5.7703   -0.6729    0.0000 C   0  0  0  0  0  0  0  0  0  0  0  0
    6.9318   -2.6547    0.0000 C   0  0  0  0  0  0  0  0  0  0  0  0
    8.0748   -2.0187    0.0000 C   0  0  0  0  0  0  0  0  0  0  0  0
    6.9318    0.0000    0.0000 C   0  0  0  0  0  0  0  0  0  0  0  0
    9.2178    0.0000    0.0000 O   0  0  0  0  0  0  0  0  0  0  0  0
    1.1430   -4.6734    0.0000 C   0  0  0  0  0  0  0  0  0  0  0  0
    0.0000   -2.6547    0.0000 C   0  0  0  0  0  0  0  0  0  0  0  0
    0.0000   -4.0005    0.0000 C   0  0  0  0  0  0  0  0  0  0  0  0
  1  2  1  0  0  0  0
  1  3  1  0  0  0  0
  1  5  2  0  0  0  0
  2  4  1  0  0  0  0
  2  9  2  0  0  0  0
  3  6  1  0  0  0  0
  4  8  1  0  0  0  0
  4 15  2  0  0  0  0
  6 10  2  0  0  0  0
  6 11  1  0  0  0  0
  7 12  1  0  0  0  0
  7 14  1  0  0  0  0
  7 13  2  0  0  0  0
  9 16  1  0  0  0  0
 10 13  1  0  0  0  0
 11 12  2  0  0  0  0
 15 17  1  0  0  0  0
 16 17  2  0  0  0  0
M  END
> <ID>
9173

> <Formula>
C13H11NO3

> <FW>
229.2313

> <DSSTox_CID>
22244

> <DSSTox_RID>
79970

> <DSSTox_GSID>
42244

> <DSSTox_FileID_Sort>
4652

> <TS_ChemName>
Osalmid

> <TS_ChemName_Synonyms>


> <TS_CASRN>
526-18-1

> <CASRN_ChemName_Relationship>
primary

> <TS_Description>
single chemical compound

> <ChemNote>


> <STRUCTURE_Shown>
tested chemical

> <STRUCTURE_Formula>
C13H11NO3

> <STRUCTURE_MW>
229.2313

> <STRUCTURE_ChemType>
defined organic

> <STRUCTURE_DefinedOrganicForm>
parent

> <STRUCTURE_IUPAC>
2-hydroxy-N-(4-hydroxyphenyl)benzamide

> <STRUCTURE_SMILES>
O=C(Nc1ccc(O)cc1)c2ccccc2O

> <STRUCTURE_SMILES_Desalt>
O=C(Nc1ccc(O)cc1)c2ccccc2O

> <Substance_modify_yyyymmdd>
20080825

$$$$
