526-95-4
ChemmineR-0915142007XD

 13 12  0  0  1  0  0  0  0  0  1 V2000
    1.9993   -1.1513    0.0000 C   0  0  0  0  0  0  0  0  0  0  0  0
    3.3298   -1.1513    0.0000 O   0  0  0  0  0  0  0  0  0  0  0  0
    1.3306   -2.3026    0.0000 C   0  0  0  0  0  0  0  0  0  0  0  0
    0.0000   -2.3026    0.0000 O   0  0  0  0  0  0  0  0  0  0  0  0
    1.9993   -3.4539    0.0000 C   0  0  0  0  0  0  0  0  0  0  0  0
    3.3298   -3.4539    0.0000 O   0  0  0  0  0  0  0  0  0  0  0  0
    1.3306   -4.6052    0.0000 C   0  0  0  0  0  0  0  0  0  0  0  0
    0.0000   -4.6052    0.0000 O   0  0  0  0  0  0  0  0  0  0  0  0
    1.9993   -5.7565    0.0000 C   0  0  0  0  0  0  0  0  0  0  0  0
    3.3298   -5.7565    0.0000 O   0  0  0  0  0  0  0  0  0  0  0  0
    1.3306   -6.8941    0.0000 C   0  0  0  0  0  0  0  0  0  0  0  0
    0.0000   -6.8941    0.0000 O   0  0  0  0  0  0  0  0  0  0  0  0
    1.3306    0.0000    0.0000 O   0  0  0  0  0  0  0  0  0  0  0  0
  1  2  1  0  0  0  0
  1  3  1  0  0  0  0
  1 13  2  0  0  0  0
  3  4  1  1  0  0  0
  3  5  1  0  0  0  0
  5  6  1  1  0  0  0
  5  7  1  0  0  0  0
  7  8  1  1  0  0  0
  7  9  1  0  0  0  0
  9 10  1  6  0  0  0
  9 11  1  0  0  0  0
 11 12  1  0  0  0  0
M  END
> <ID>
4970

> <Formula>
C6H12O7

> <FW>
196.1553

> <DSSTox_CID>
7169

> <DSSTox_RID>
78332

> <DSSTox_GSID>
27169

> <DSSTox_FileID_Sort>
3015

> <TS_ChemName>
D-Gluconic acid

> <TS_ChemName_Synonyms>


> <TS_CASRN>
526-95-4

> <CASRN_ChemName_Relationship>
primary

> <TS_Description>
single chemical compound

> <ChemNote>
stereochem

> <STRUCTURE_Shown>
tested chemical

> <STRUCTURE_Formula>
C6H12O7

> <STRUCTURE_MW>
196.1553

> <STRUCTURE_ChemType>
defined organic

> <STRUCTURE_DefinedOrganicForm>
parent

> <STRUCTURE_IUPAC>
D-gluconic acid

> <STRUCTURE_SMILES>
O[C@H]([C@@H](O)C(=O)O)[C@H](O)[C@H](O)CO

> <STRUCTURE_SMILES_Desalt>
O[C@H]([C@@H](O)C(=O)O)[C@H](O)[C@H](O)CO

> <Substance_modify_yyyymmdd>
20080429

$$$$
