526-08-9
ChemmineR-0915142007XD

 22 24  0  0  0  0  0  0  0  0  1 V2000
    4.2479   -5.7910    0.0000 S   0  0  0  0  0  0  0  0  0  0  0  0
    6.3676   -4.8838    0.0000 C   0  0  0  0  0  0  0  0  0  0  0  0
    5.0449   -4.7227    0.0000 N   0  0  0  0  0  0  0  0  0  0  0  0
    7.2748   -3.9087    0.0000 N   0  0  0  0  0  0  0  0  0  0  0  0
    7.0120   -6.0454    0.0000 C   0  0  0  0  0  0  0  0  0  0  0  0
    8.4788   -4.4683    0.0000 N   0  0  0  0  0  0  0  0  0  0  0  0
    3.1880   -4.9940    0.0000 C   0  0  0  0  0  0  0  0  0  0  0  0
    3.4509   -6.8509    0.0000 O   0  0  0  0  0  0  0  0  0  0  0  0
    5.3162   -6.5880    0.0000 O   0  0  0  0  0  0  0  0  0  0  0  0
    8.3177   -5.7910    0.0000 C   0  0  0  0  0  0  0  0  0  0  0  0
    7.0205   -2.6115    0.0000 C   0  0  0  0  0  0  0  0  0  0  0  0
    1.9671   -5.5112    0.0000 C   0  0  0  0  0  0  0  0  0  0  0  0
    3.3491   -3.6713    0.0000 C   0  0  0  0  0  0  0  0  0  0  0  0
    1.0599   -3.3915    0.0000 C   0  0  0  0  0  0  0  0  0  0  0  0
    0.0000   -2.5945    0.0000 N   0  0  0  0  0  0  0  0  0  0  0  0
    0.8988   -4.7142    0.0000 C   0  0  0  0  0  0  0  0  0  0  0  0
    2.2893   -2.8743    0.0000 C   0  0  0  0  0  0  0  0  0  0  0  0
    5.7571   -2.1791    0.0000 C   0  0  0  0  0  0  0  0  0  0  0  0
    8.0210   -1.7382    0.0000 C   0  0  0  0  0  0  0  0  0  0  0  0
    7.7666   -0.4324    0.0000 C   0  0  0  0  0  0  0  0  0  0  0  0
    5.5028   -0.8733    0.0000 C   0  0  0  0  0  0  0  0  0  0  0  0
    6.5033    0.0000    0.0000 C   0  0  0  0  0  0  0  0  0  0  0  0
  1  3  1  0  0  0  0
  1  7  1  0  0  0  0
  1  8  2  0  0  0  0
  1  9  2  0  0  0  0
  2  3  1  0  0  0  0
  2  4  1  0  0  0  0
  2  5  2  0  0  0  0
  4  6  1  0  0  0  0
  4 11  1  0  0  0  0
  5 10  1  0  0  0  0
  6 10  2  0  0  0  0
  7 12  2  0  0  0  0
  7 13  1  0  0  0  0
 11 18  1  0  0  0  0
 11 19  2  0  0  0  0
 12 16  1  0  0  0  0
 13 17  2  0  0  0  0
 14 17  1  0  0  0  0
 14 15  1  0  0  0  0
 14 16  2  0  0  0  0
 18 21  2  0  0  0  0
 19 20  1  0  0  0  0
 20 22  2  0  0  0  0
 21 22  1  0  0  0  0
M  END
> <ID>
9866

> <Formula>
C15H14N4O2S

> <FW>
314.3623

> <DSSTox_CID>
24131

> <DSSTox_RID>
80106

> <DSSTox_GSID>
44131

> <DSSTox_FileID_Sort>
4788

> <TS_ChemName>
Sulfaphenazole

> <TS_ChemName_Synonyms>


> <TS_CASRN>
526-08-9

> <CASRN_ChemName_Relationship>
primary

> <TS_Description>
single chemical compound

> <ChemNote>


> <STRUCTURE_Shown>
tested chemical

> <STRUCTURE_Formula>
C15H14N4O2S

> <STRUCTURE_MW>
314.3623

> <STRUCTURE_ChemType>
defined organic

> <STRUCTURE_DefinedOrganicForm>
parent

> <STRUCTURE_IUPAC>
4-amino-N-(1-phenyl-1H-pyrazol-5-yl)benzenesulfonamide

> <STRUCTURE_SMILES>
Nc1ccc(cc1)S(=O)(=O)Nc3ccnn3c2ccccc2

> <STRUCTURE_SMILES_Desalt>
Nc1ccc(cc1)S(=O)(=O)Nc3ccnn3c2ccccc2

> <Substance_modify_yyyymmdd>
20090220

$$$$
