52605-52-4
ChemmineR-0915142007XD

 18 18  0  0  0  0  0  0  0  0  1 V2000
    9.3126   -9.2194    0.0000 Cl   0  0  0  0  0  0  0  0  0  0  0  0
    7.9809   -9.2194    0.0000 C    0  0  0  0  0  0  0  0  0  0  0  0
    7.3290   -8.0647    0.0000 C    0  0  0  0  0  0  0  0  0  0  0  0
    5.9973   -8.0647    0.0000 C    0  0  0  0  0  0  0  0  0  0  0  0
    5.3175   -6.9099    0.0000 N    0  0  0  0  0  0  0  0  0  0  0  0
    5.9973   -5.7552    0.0000 C    0  0  0  0  0  0  0  0  0  0  0  0
    5.3175   -4.6190    0.0000 C    0  0  0  0  0  0  0  0  0  0  0  0
    3.9951   -4.6190    0.0000 N    0  0  0  0  0  0  0  0  0  0  0  0
    3.3339   -5.7552    0.0000 C    0  0  0  0  0  0  0  0  0  0  0  0
    3.9951   -6.9099    0.0000 C    0  0  0  0  0  0  0  0  0  0  0  0
    3.3339   -3.4643    0.0000 C    0  0  0  0  0  0  0  0  0  0  0  0
    3.9951   -2.3095    0.0000 C    0  0  0  0  0  0  0  0  0  0  0  0
    3.3339   -1.1548    0.0000 C    0  0  0  0  0  0  0  0  0  0  0  0
    2.0022   -1.1548    0.0000 C    0  0  0  0  0  0  0  0  0  0  0  0
    1.3317   -2.3095    0.0000 C    0  0  0  0  0  0  0  0  0  0  0  0
    2.0022   -3.4643    0.0000 C    0  0  0  0  0  0  0  0  0  0  0  0
    3.9951    0.0000    0.0000 Cl   0  0  0  0  0  0  0  0  0  0  0  0
    0.0000   -5.7552    0.0000 Cl   0  0  0  0  0  0  0  0  0  0  0  0
  1  2  1  0  0  0  0
  2  3  1  0  0  0  0
  3  4  1  0  0  0  0
  4  5  1  0  0  0  0
  5  6  1  0  0  0  0
  5 10  1  0  0  0  0
  6  7  1  0  0  0  0
  7  8  1  0  0  0  0
  8  9  1  0  0  0  0
  8 11  1  0  0  0  0
  9 10  1  0  0  0  0
 11 12  2  0  0  0  0
 11 16  1  0  0  0  0
 12 13  1  0  0  0  0
 13 14  2  0  0  0  0
 13 17  1  0  0  0  0
 14 15  1  0  0  0  0
 15 16  2  0  0  0  0
M  END
> <ID>
16261

> <Formula>
C13H19Cl3N2

> <FW>
309.6624 (273.2014+36.4609)

> <DSSTox_CID>
31550

> <DSSTox_RID>
97435

> <DSSTox_GSID>
57761

> <DSSTox_FileID_Sort>
8502

> <TS_ChemName>
1-(3-Chlorophenyl)-4-(3-chloropropyl)piperazine hydrochloride

> <TS_ChemName_Synonyms>


> <TS_CASRN>
52605-52-4

> <CASRN_ChemName_Relationship>
primary

> <TS_Description>
single chemical compound

> <ChemNote>


> <STRUCTURE_Shown>
tested chemical

> <STRUCTURE_Formula>
C13H19Cl3N2

> <STRUCTURE_MW>
309.6624

> <STRUCTURE_ChemType>
defined organic

> <STRUCTURE_DefinedOrganicForm>
complex

> <STRUCTURE_IUPAC>
1-(3-chlorophenyl)-4-(3-chloropropyl)piperazine hydrochloride (1:1)

> <STRUCTURE_SMILES>
Cl.Clc1cccc(c1)N2CCN(CCCCl)CC2

> <STRUCTURE_SMILES_Desalt>
Clc1cccc(c1)N2CCN(CCCCl)CC2

> <Substance_modify_yyyymmdd>
20131018

$$$$
