52628-03-2
ChemmineR-0915142007XD

 13 12  0  0  0  0  0  0  0  0  1 V2000
    2.3237   -1.3278    0.0000 C   0  0  0  0  0  0  0  0  0  0  0  0
    1.1711   -2.0010    0.0000 C   0  0  0  0  0  0  0  0  0  0  0  0
    1.1711   -3.3288    0.0000 C   0  0  0  0  0  0  0  0  0  0  0  0
    2.3237    0.0000    0.0000 O   0  0  0  0  0  0  0  0  0  0  0  0
    3.4764   -2.0010    0.0000 O   0  0  0  0  0  0  0  0  0  0  0  0
    0.0000   -1.3278    0.0000 C   0  0  0  0  0  0  0  0  0  0  0  0
    4.6290   -1.3278    0.0000 C   0  0  0  0  0  0  0  0  0  0  0  0
    5.7816   -2.0010    0.0000 C   0  0  0  0  0  0  0  0  0  0  0  0
    6.9343   -1.3278    0.0000 O   0  0  0  0  0  0  0  0  0  0  0  0
    8.0869   -2.0010    0.0000 P   0  0  0  0  0  0  0  0  0  0  0  0
    8.7416   -0.8483    0.0000 O   0  0  0  0  0  0  0  0  0  0  0  0
    7.4322   -3.1352    0.0000 O   0  0  0  0  0  0  0  0  0  0  0  0
    9.2211   -2.6557    0.0000 O   0  0  0  0  0  0  0  0  0  0  0  0
  1  2  1  0  0  0  0
  1  5  1  0  0  0  0
  1  4  2  0  0  0  0
  2  3  2  0  0  0  0
  2  6  1  0  0  0  0
  5  7  1  0  0  0  0
  7  8  1  0  0  0  0
  8  9  1  0  0  0  0
  9 10  1  0  0  0  0
 10 11  2  0  0  0  0
 10 12  1  0  0  0  0
 10 13  1  0  0  0  0
M  END
> <ID>
10598

> <Formula>
C6H11O6P

> <FW>
210.1217

> <DSSTox_CID>
24951

> <DSSTox_RID>
80611

> <DSSTox_GSID>
44951

> <DSSTox_FileID_Sort>
5293

> <TS_ChemName>
2-Propenoic acid, 2-methyl-, 2-hydroxyethyl ester, phosphate

> <TS_ChemName_Synonyms>


> <TS_CASRN>
52628-03-2

> <CASRN_ChemName_Relationship>
primary

> <TS_Description>
mixture or formulation

> <ChemNote>
mixture of mono-, di-and tri- esters; structure shown mono-

> <STRUCTURE_Shown>
representative component

> <STRUCTURE_Formula>
C6H11O6P

> <STRUCTURE_MW>
210.1217

> <STRUCTURE_ChemType>
defined organic

> <STRUCTURE_DefinedOrganicForm>
parent

> <STRUCTURE_IUPAC>
2-(phosphonooxy)ethyl 2-methylprop-2-enoate

> <STRUCTURE_SMILES>
O=C(OCCOP(O)(O)=O)C(=C)C

> <STRUCTURE_SMILES_Desalt>
O=C(OCCOP(O)(O)=O)C(=C)C

> <Substance_modify_yyyymmdd>
20091116

$$$$
