527-85-5
ChemmineR-0915142007XD

 10 10  0  0  0  0  0  0  0  0  1 V2000
    1.9971    0.0000    0.0000 C   0  0  0  0  0  0  0  0  0  0  0  0
    2.6582   -1.1499    0.0000 C   0  0  0  0  0  0  0  0  0  0  0  0
    3.9896   -1.1499    0.0000 C   0  0  0  0  0  0  0  0  0  0  0  0
    4.6553   -2.3044    0.0000 C   0  0  0  0  0  0  0  0  0  0  0  0
    3.9896   -3.4542    0.0000 C   0  0  0  0  0  0  0  0  0  0  0  0
    2.6582   -3.4542    0.0000 C   0  0  0  0  0  0  0  0  0  0  0  0
    1.9971   -2.3044    0.0000 C   0  0  0  0  0  0  0  0  0  0  0  0
    0.6657   -2.3044    0.0000 C   0  0  0  0  0  0  0  0  0  0  0  0
    0.0000   -3.4542    0.0000 N   0  0  0  0  0  0  0  0  0  0  0  0
    0.0000   -1.1499    0.0000 O   0  0  0  0  0  0  0  0  0  0  0  0
  1  2  1  0  0  0  0
  2  3  2  0  0  0  0
  2  7  1  0  0  0  0
  3  4  1  0  0  0  0
  4  5  2  0  0  0  0
  5  6  1  0  0  0  0
  6  7  2  0  0  0  0
  7  8  1  0  0  0  0
  8  9  1  0  0  0  0
  8 10  2  0  0  0  0
M  END
> <ID>
4271

> <Formula>
C8H9NO

> <FW>
135.1632

> <DSSTox_CID>
5569

> <DSSTox_RID>
77833

> <DSSTox_GSID>
25569

> <DSSTox_FileID_Sort>
2516

> <TS_ChemName>
2-Methylbenzamide

> <TS_ChemName_Synonyms>


> <TS_CASRN>
527-85-5

> <CASRN_ChemName_Relationship>
primary

> <TS_Description>
single chemical compound

> <ChemNote>


> <STRUCTURE_Shown>
tested chemical

> <STRUCTURE_Formula>
C8H9NO

> <STRUCTURE_MW>
135.1632

> <STRUCTURE_ChemType>
defined organic

> <STRUCTURE_DefinedOrganicForm>
parent

> <STRUCTURE_IUPAC>
2-methylbenzamide

> <STRUCTURE_SMILES>
Cc1ccccc1C(=O)N

> <STRUCTURE_SMILES_Desalt>
Cc1ccccc1C(=O)N

> <Substance_modify_yyyymmdd>
20080429

$$$$
