52712-76-2
ChemmineR-0915142007XD

 28 29  0  0  0  0  0  0  0  0  1 V2000
    5.7600   -3.0960    0.0000 C    0  0  0  0  0  0  0  0  0  0  0  0
    5.7600   -4.4280    0.0000 N    0  0  0  0  0  0  0  0  0  0  0  0
    3.4440   -4.4280    0.0000 C    0  0  0  0  0  0  0  0  0  0  0  0
    4.5840   -5.0880    0.0000 C    0  0  0  0  0  0  0  0  0  0  0  0
    4.5840   -2.4240    0.0000 N    0  0  0  0  0  0  0  0  0  0  0  0
    3.4440   -3.0960    0.0000 C    0  0  0  0  0  0  0  0  0  0  0  0
    6.9000   -2.4240    0.0000 N    0  0  0  0  0  0  0  0  0  0  0  0
    2.3160   -5.0880    0.0000 C    0  0  0  0  0  0  0  0  0  0  0  0
    9.6360   -1.3560    0.0000 N    0  0  0  0  0  0  0  0  0  0  0  0
    2.3160   -2.4240    0.0000 C    0  0  0  0  0  0  0  0  0  0  0  0
   11.0039   -1.2120    0.0000 C    0  0  0  0  0  0  0  0  0  0  0  0
    1.1520   -4.4280    0.0000 C    0  0  0  0  0  0  0  0  0  0  0  0
    1.1520   -3.0960    0.0000 C    0  0  0  0  0  0  0  0  0  0  0  0
    8.0640   -3.0960    0.0000 C    0  0  0  0  0  0  0  0  0  0  0  0
    9.2760   -2.6040    0.0000 C    0  0  0  0  0  0  0  0  0  0  0  0
   11.5319    0.0000    0.0000 O    0  0  0  0  0  0  0  0  0  0  0  0
    4.5840   -6.4200    0.0000 N    0  0  0  0  0  0  0  0  0  0  0  0
    7.5840   -0.1200    0.0000 C    0  0  0  0  0  0  0  0  0  0  0  0
    6.6840   -1.1040    0.0000 C    0  0  0  0  0  0  0  0  0  0  0  0
    8.9040   -0.2280    0.0000 C    0  0  0  0  0  0  0  0  0  0  0  0
    0.0000   -5.0880    0.0000 O    0  0  0  0  0  0  0  0  0  0  0  0
    0.0000   -2.4240    0.0000 O    0  0  0  0  0  0  0  0  0  0  0  0
   11.7719   -2.2800    0.0000 C    0  0  0  0  0  0  0  0  0  0  0  0
    0.0120   -1.0920    0.0000 C    0  0  0  0  0  0  0  0  0  0  0  0
    0.0120   -6.4200    0.0000 C    0  0  0  0  0  0  0  0  0  0  0  0
   11.2319   -3.5040    0.0000 C    0  0  0  0  0  0  0  0  0  0  0  0
   11.9999   -4.5600    0.0000 C    0  0  0  0  0  0  0  0  0  0  0  0
    7.9680   -4.3560    0.0000 Cl   0  0  0  0  0  0  0  0  0  0  0  0
  1  2  1  0  0  0  0
  1  5  2  0  0  0  0
  1  7  1  0  0  0  0
  2  4  2  0  0  0  0
  3  6  2  0  0  0  0
  3  8  1  0  0  0  0
  3  4  1  0  0  0  0
  4 17  1  0  0  0  0
  5  6  1  0  0  0  0
  6 10  1  0  0  0  0
  7 14  1  0  0  0  0
  7 19  1  0  0  0  0
  8 12  2  0  0  0  0
  9 15  1  0  0  0  0
  9 11  1  0  0  0  0
  9 20  1  0  0  0  0
 10 13  2  0  0  0  0
 11 16  2  0  0  0  0
 11 23  1  0  0  0  0
 12 13  1  0  0  0  0
 12 21  1  0  0  0  0
 13 22  1  0  0  0  0
 14 15  1  0  0  0  0
 18 19  1  0  0  0  0
 18 20  1  0  0  0  0
 21 25  1  0  0  0  0
 22 24  1  0  0  0  0
 23 26  1  0  0  0  0
 26 27  1  0  0  0  0
M  END
> <ID>
13586

> <Formula>
C19H28ClN5O3

> <FW>
409.9103 (373.4494+36.4609)

> <DSSTox_CID>
28514

> <DSSTox_RID>
82786

> <DSSTox_GSID>
48588

> <DSSTox_FileID_Sort>
7463

> <TS_ChemName>
Bunazosin hydrochloride

> <TS_ChemName_Synonyms>


> <TS_CASRN>
52712-76-2

> <CASRN_ChemName_Relationship>
primary

> <TS_Description>
single chemical compound

> <ChemNote>
parent [80755-51-7]

> <STRUCTURE_Shown>
tested chemical

> <STRUCTURE_Formula>
C19H28ClN5O3

> <STRUCTURE_MW>
409.9103

> <STRUCTURE_ChemType>
defined organic

> <STRUCTURE_DefinedOrganicForm>
complex

> <STRUCTURE_IUPAC>
1-[4-(4-amino-6,7-dimethoxyquinazolin-2-yl)-1,4-diazepan-1-yl]butan-1-one hydrochloride (1:1)

> <STRUCTURE_SMILES>
Cl.O=C(CCC)N1CCCN(CC1)c3nc2cc(OC)c(OC)cc2c(N)n3

> <STRUCTURE_SMILES_Desalt>
O=C(CCC)N1CCCN(CC1)c3nc2cc(OC)c(OC)cc2c(N)n3

> <Substance_modify_yyyymmdd>
20111014

$$$$
