52756-22-6
ChemmineR-0915142007XD

 25 26  0  0  0  0  0  0  0  0  1 V2000
    5.9741   -2.3117    0.0000 C    0  0  0  0  0  0  0  0  0  0  0  0
    6.6407   -3.4546    0.0000 O    0  0  0  0  0  0  0  0  0  0  0  0
    4.6667   -2.3117    0.0000 C    0  0  0  0  0  0  0  0  0  0  0  0
    6.6407   -1.1602    0.0000 O    0  0  0  0  0  0  0  0  0  0  0  0
    3.9914   -3.4546    0.0000 N    0  0  0  0  0  0  0  0  0  0  0  0
    3.9914   -1.1602    0.0000 C    0  0  0  0  0  0  0  0  0  0  0  0
    2.6667   -3.4546    0.0000 C    0  0  0  0  0  0  0  0  0  0  0  0
    2.0000   -2.3117    0.0000 O    0  0  0  0  0  0  0  0  0  0  0  0
    2.0000   -4.6234    0.0000 C    0  0  0  0  0  0  0  0  0  0  0  0
    2.6667   -5.7489    0.0000 C    0  0  0  0  0  0  0  0  0  0  0  0
    0.6580   -4.6234    0.0000 C    0  0  0  0  0  0  0  0  0  0  0  0
    2.0000   -6.9178    0.0000 C    0  0  0  0  0  0  0  0  0  0  0  0
    0.0000   -5.7489    0.0000 C    0  0  0  0  0  0  0  0  0  0  0  0
    0.6580   -6.9178    0.0000 C    0  0  0  0  0  0  0  0  0  0  0  0
    4.6667   -4.6234    0.0000 C    0  0  0  0  0  0  0  0  0  0  0  0
    5.9741   -4.6234    0.0000 C    0  0  0  0  0  0  0  0  0  0  0  0
    3.9914   -5.7489    0.0000 C    0  0  0  0  0  0  0  0  0  0  0  0
    6.6407   -5.7489    0.0000 C    0  0  0  0  0  0  0  0  0  0  0  0
    4.6667   -6.9178    0.0000 C    0  0  0  0  0  0  0  0  0  0  0  0
    5.9741   -6.9178    0.0000 C    0  0  0  0  0  0  0  0  0  0  0  0
    7.9827   -5.7489    0.0000 Cl   0  0  0  0  0  0  0  0  0  0  0  0
    6.6407   -8.0606    0.0000 F    0  0  0  0  0  0  0  0  0  0  0  0
    7.9827   -1.1602    0.0000 C    0  0  0  0  0  0  0  0  0  0  0  0
    8.6580    0.0000    0.0000 C    0  0  0  0  0  0  0  0  0  0  0  0
    8.6580   -2.3290    0.0000 C    0  0  0  0  0  0  0  0  0  0  0  0
  1  2  2  0  0  0  0
  1  3  1  0  0  0  0
  1  4  1  0  0  0  0
  3  5  1  0  0  0  0
  3  6  1  0  0  0  0
  4 23  1  0  0  0  0
  5  7  1  0  0  0  0
  5 15  1  0  0  0  0
  7  8  2  0  0  0  0
  7  9  1  0  0  0  0
  9 10  2  0  0  0  0
  9 11  1  0  0  0  0
 10 12  1  0  0  0  0
 11 13  2  0  0  0  0
 12 14  2  0  0  0  0
 13 14  1  0  0  0  0
 15 16  2  0  0  0  0
 15 17  1  0  0  0  0
 16 18  1  0  0  0  0
 17 19  2  0  0  0  0
 18 20  2  0  0  0  0
 18 21  1  0  0  0  0
 19 20  1  0  0  0  0
 20 22  1  0  0  0  0
 23 24  1  0  0  0  0
 23 25  1  0  0  0  0
M  END
> <ID>
8912

> <Formula>
C19H19ClFNO3

> <FW>
363.8105

> <DSSTox_CID>
21977

> <DSSTox_RID>
79892

> <DSSTox_GSID>
41977

> <DSSTox_FileID_Sort>
4574

> <TS_ChemName>
Flamprop-isopropyl

> <TS_ChemName_Synonyms>


> <TS_CASRN>
52756-22-6

> <CASRN_ChemName_Relationship>
primary

> <TS_Description>
single chemical compound

> <ChemNote>


> <STRUCTURE_Shown>
tested chemical

> <STRUCTURE_Formula>
C19H19ClFNO3

> <STRUCTURE_MW>
363.8105

> <STRUCTURE_ChemType>
defined organic

> <STRUCTURE_DefinedOrganicForm>
parent

> <STRUCTURE_IUPAC>
propan-2-yl N-benzoyl-N-(3-chloro-4-fluorophenyl)alaninate

> <STRUCTURE_SMILES>
Fc1ccc(cc1Cl)N(C(=O)c2ccccc2)C(C)C(=O)OC(C)C

> <STRUCTURE_SMILES_Desalt>
Fc1ccc(cc1Cl)N(C(=O)c2ccccc2)C(C)C(=O)OC(C)C

> <Substance_modify_yyyymmdd>
20080825

$$$$
