527680-56-4
ChemmineR-0915142007XD

 21 24  0  0  1  0  0  0  0  0  1 V2000
    6.2879   -1.3870    0.0000 N   0  0  0  0  0  0  0  0  0  0  0  0
    7.5003   -2.0960    0.0000 C   0  0  0  0  0  0  0  0  0  0  0  0
    6.2879    0.0000    0.0000 C   0  0  0  0  0  0  0  0  0  0  0  0
    5.0858   -2.0960    0.0000 C   0  0  0  0  0  0  0  0  0  0  0  0
    6.7297   -2.1782    0.0000 C   0  0  0  0  0  0  0  0  0  0  0  0
    7.9318   -2.8768    0.0000 C   0  0  0  0  0  0  0  0  0  0  0  0
    6.7297   -0.7911    0.0000 C   0  0  0  0  0  0  0  0  0  0  0  0
    5.5174   -2.8768    0.0000 C   0  0  0  0  0  0  0  0  0  0  0  0
    5.1578   -4.2125    0.0000 N   0  0  0  0  0  0  0  0  0  0  0  0
    3.8015   -4.5721    0.0000 C   0  0  0  0  0  0  0  0  0  0  0  0
    2.8255   -3.5652    0.0000 O   0  0  0  0  0  0  0  0  0  0  0  0
    3.4317   -5.9078    0.0000 C   0  0  0  0  0  0  0  0  0  0  0  0
    4.3974   -6.8941    0.0000 C   0  0  0  0  0  0  0  0  0  0  0  0
    2.0960   -6.2366    0.0000 C   0  0  0  0  0  0  0  0  0  0  0  0
    4.0378   -8.2298    0.0000 C   0  0  0  0  0  0  0  0  0  0  0  0
    1.7056   -7.5825    0.0000 C   0  0  0  0  0  0  0  0  0  0  0  0
    2.6919   -8.5689    0.0000 C   0  0  0  0  0  0  0  0  0  0  0  0
    0.3493   -7.9524    0.0000 O   0  0  0  0  0  0  0  0  0  0  0  0
    0.0000   -9.2881    0.0000 C   0  0  0  0  0  0  0  0  0  0  0  0
    2.3220   -9.9251    0.0000 O   0  0  0  0  0  0  0  0  0  0  0  0
    0.9863  -10.2744    0.0000 C   0  0  0  0  0  0  0  0  0  0  0  0
  1  2  1  0  0  0  0
  1  3  1  0  0  0  0
  1  4  1  0  0  0  0
  2  6  1  0  0  0  0
  3  7  1  0  0  0  0
  4  8  1  0  0  0  0
  5  6  1  0  0  0  0
  5  7  1  0  0  0  0
  5  8  1  0  0  0  0
  8  9  1  1  0  0  0
  9 10  1  0  0  0  0
 10 11  2  0  0  0  0
 10 12  1  0  0  0  0
 12 13  1  0  0  0  0
 12 14  2  0  0  0  0
 13 15  2  0  0  0  0
 14 16  1  0  0  0  0
 15 17  1  0  0  0  0
 16 18  1  0  0  0  0
 16 17  2  0  0  0  0
 17 20  1  0  0  0  0
 18 19  1  0  0  0  0
 19 21  1  0  0  0  0
 20 21  1  0  0  0  0
M  END
> <ID>
12427

> <Formula>
C16H20N2O3

> <FW>
288.3416

> <DSSTox_CID>
27285

> <DSSTox_RID>
82239

> <DSSTox_GSID>
47285

> <DSSTox_FileID_Sort>
6920

> <TS_ChemName>
PHA-00568487

> <TS_ChemName_Synonyms>


> <TS_CASRN>
527680-56-4

> <CASRN_ChemName_Relationship>
primary

> <TS_Description>
single chemical compound

> <ChemNote>
stereochem

> <STRUCTURE_Shown>
tested chemical

> <STRUCTURE_Formula>
C16H20N2O3

> <STRUCTURE_MW>
288.3416

> <STRUCTURE_ChemType>
defined organic

> <STRUCTURE_DefinedOrganicForm>
parent

> <STRUCTURE_IUPAC>
N-[(3R)-1-azabicyclo[2.2.2]oct-3-yl]-2,3-dihydro-1,4-benzodioxine-6-carboxamide

> <STRUCTURE_SMILES>
O=C(N[C@H]2CN1CCC2CC1)c3ccc4OCCOc4c3

> <STRUCTURE_SMILES_Desalt>
O=C(N[C@H]2CN1CCC2CC1)c3ccc4OCCOc4c3

> <Substance_modify_yyyymmdd>
20130910

$$$$
