528-50-7
ChemmineR-0915142007XD

 23 24  0  0  1  0  0  0  0  0  1 V2000
    3.4671   -3.9835    0.0000 C   0  0  0  0  0  0  0  0  0  0  0  0
    2.3053   -4.6382    0.0000 C   0  0  0  0  0  0  0  0  0  0  0  0
    3.4671   -2.6464    0.0000 O   0  0  0  0  0  0  0  0  0  0  0  0
    1.1526   -3.9835    0.0000 C   0  0  0  0  0  0  0  0  0  0  0  0
    2.3053   -1.9917    0.0000 C   0  0  0  0  0  0  0  0  0  0  0  0
    1.1526   -2.6464    0.0000 C   0  0  0  0  0  0  0  0  0  0  0  0
    4.6013   -4.6382    0.0000 O   0  0  0  0  0  0  0  0  0  0  0  0
    5.7539   -3.9835    0.0000 C   0  0  0  0  0  0  0  0  0  0  0  0
    5.7539   -2.6464    0.0000 C   0  0  0  0  0  0  0  0  0  0  0  0
    6.9158   -4.6566    0.0000 C   0  0  0  0  0  0  0  0  0  0  0  0
    6.9158   -1.9917    0.0000 O   0  0  0  0  0  0  0  0  0  0  0  0
    8.0684   -3.9835    0.0000 C   0  0  0  0  0  0  0  0  0  0  0  0
    8.0684   -2.6464    0.0000 C   0  0  0  0  0  0  0  0  0  0  0  0
    2.3053   -0.6639    0.0000 C   0  0  0  0  0  0  0  0  0  0  0  0
    0.0000   -1.9733    0.0000 O   0  0  0  0  0  0  0  0  0  0  0  0
    0.0000   -4.6382    0.0000 O   0  0  0  0  0  0  0  0  0  0  0  0
    4.6013   -1.9733    0.0000 C   0  0  0  0  0  0  0  0  0  0  0  0
    9.2211   -1.9917    0.0000 O   0  0  0  0  0  0  0  0  0  0  0  0
    9.2026   -4.6566    0.0000 O   0  0  0  0  0  0  0  0  0  0  0  0
    2.3053   -5.9660    0.0000 O   0  0  0  0  0  0  0  0  0  0  0  0
    1.1526    0.0000    0.0000 O   0  0  0  0  0  0  0  0  0  0  0  0
    4.6198   -0.6455    0.0000 O   0  0  0  0  0  0  0  0  0  0  0  0
    6.8974   -5.9845    0.0000 O   0  0  0  0  0  0  0  0  0  0  0  0
  1  2  1  0  0  0  0
  1  3  1  0  0  0  0
  1  7  1  1  0  0  0
  2  4  1  0  0  0  0
  2 20  1  6  0  0  0
  3  5  1  0  0  0  0
  4  6  1  0  0  0  0
  4 16  1  1  0  0  0
  5  6  1  0  0  0  0
  5 14  1  1  0  0  0
  6 15  1  6  0  0  0
  8  7  1  6  0  0  0
  8  9  1  0  0  0  0
  8 10  1  0  0  0  0
  9 11  1  0  0  0  0
  9 17  1  1  0  0  0
 10 12  1  0  0  0  0
 10 23  1  1  0  0  0
 11 13  1  0  0  0  0
 12 13  1  0  0  0  0
 12 19  1  6  0  0  0
 13 18  1  1  0  0  0
 14 21  1  0  0  0  0
 17 22  1  0  0  0  0
M  END
> <ID>
11340

> <Formula>
C12H22O11

> <FW>
342.2965

> <DSSTox_CID>
25984

> <DSSTox_RID>
81272

> <DSSTox_GSID>
45984

> <DSSTox_FileID_Sort>
5953

> <TS_ChemName>
Cellobiose

> <TS_ChemName_Synonyms>


> <TS_CASRN>
528-50-7

> <CASRN_ChemName_Relationship>
primary

> <TS_Description>
single chemical compound

> <ChemNote>
stereochem

> <STRUCTURE_Shown>
tested chemical

> <STRUCTURE_Formula>
C12H22O11

> <STRUCTURE_MW>
342.2965

> <STRUCTURE_ChemType>
defined organic

> <STRUCTURE_DefinedOrganicForm>
parent

> <STRUCTURE_IUPAC>
4-O-beta-D-glucopyranosyl-beta-D-glucopyranose

> <STRUCTURE_SMILES>
O[C@H]2[C@H](O[C@@H]1O[C@H](CO)[C@@H](O)[C@H](O)[C@H]1O)[C@@H](CO)O[C@@H](O)[C@@H]2O

> <STRUCTURE_SMILES_Desalt>
O[C@H]2[C@H](O[C@@H]1O[C@H](CO)[C@@H](O)[C@H](O)[C@H]1O)[C@@H](CO)O[C@@H](O)[C@@H]2O

> <Substance_modify_yyyymmdd>
20110825

$$$$
