528-29-0
ChemmineR-0915142007XD

 12 12  0  0  0  0  0  0  0  0  2 V2000
    3.3231    0.0000    0.0000 O   0  5  0  0  0  0  0  0  0  0  0  0
    3.9877   -1.1485    0.0000 N   0  3  0  0  0  0  0  0  0  0  0  0
    5.3170   -1.1485    0.0000 O   0  0  0  0  0  0  0  0  0  0  0  0
    1.3292   -3.4507    0.0000 C   0  0  0  0  0  0  0  0  0  0  0  0
    1.9939   -2.3076    0.0000 C   0  0  0  0  0  0  0  0  0  0  0  0
    1.9939   -4.6098    0.0000 C   0  0  0  0  0  0  0  0  0  0  0  0
    3.3231   -4.6098    0.0000 C   0  0  0  0  0  0  0  0  0  0  0  0
    3.9877   -3.4507    0.0000 C   0  0  0  0  0  0  0  0  0  0  0  0
    3.3231   -2.3076    0.0000 C   0  0  0  0  0  0  0  0  0  0  0  0
    1.3292   -1.1485    0.0000 N   0  3  0  0  0  0  0  0  0  0  0  0
    0.0000   -1.1485    0.0000 O   0  0  0  0  0  0  0  0  0  0  0  0
    1.9939    0.0000    0.0000 O   0  5  0  0  0  0  0  0  0  0  0  0
  1  2  1  0  0  0  0
  2  3  2  0  0  0  0
  2  9  1  0  0  0  0
  4  5  1  0  0  0  0
  4  6  2  0  0  0  0
  5  9  2  0  0  0  0
  5 10  1  0  0  0  0
  6  7  1  0  0  0  0
  7  8  2  0  0  0  0
  8  9  1  0  0  0  0
 10 11  2  0  0  0  0
 10 12  1  0  0  0  0
M  END
> <ID>
3490

> <Formula>
C6H4N2O4

> <FW>
168.107

> <DSSTox_CID>
4066

> <DSSTox_RID>
77278

> <DSSTox_GSID>
24066

> <DSSTox_FileID_Sort>
1961

> <TS_ChemName>
1,2-Dinitrobenzene

> <TS_ChemName_Synonyms>


> <TS_CASRN>
528-29-0

> <CASRN_ChemName_Relationship>
primary

> <TS_Description>
single chemical compound

> <ChemNote>


> <STRUCTURE_Shown>
tested chemical

> <STRUCTURE_Formula>
C6H4N2O4

> <STRUCTURE_MW>
168.107

> <STRUCTURE_ChemType>
defined organic

> <STRUCTURE_DefinedOrganicForm>
parent

> <STRUCTURE_IUPAC>
1,2-dinitrobenzene

> <STRUCTURE_SMILES>
O=[N+]([O-])c1ccccc1[N+]([O-])=O

> <STRUCTURE_SMILES_Desalt>
O=[N+]([O-])c1ccccc1[N+]([O-])=O

> <Substance_modify_yyyymmdd>
20080429

$$$$
