5281-04-9
ChemmineR-0915142007XD

 28 29  0  0  0  0  0  0  0  0  2 V2000
    2.3077   -1.9909    0.0000 C    0  0  0  0  0  0  0  0  0  0  0  0
    2.3077   -3.3144    0.0000 C    0  0  0  0  0  0  0  0  0  0  0  0
    1.1538   -1.3348    0.0000 C    0  0  0  0  0  0  0  0  0  0  0  0
    1.1538   -3.9931    0.0000 C    0  0  0  0  0  0  0  0  0  0  0  0
    3.4615   -3.9931    0.0000 C    0  0  0  0  0  0  0  0  0  0  0  0
    3.4615   -1.3348    0.0000 C    0  0  0  0  0  0  0  0  0  0  0  0
    4.6153   -1.9909    0.0000 C    0  0  0  0  0  0  0  0  0  0  0  0
    4.6153   -3.3144    0.0000 C    0  0  0  0  0  0  0  0  0  0  0  0
    0.0000   -3.3144    0.0000 C    0  0  0  0  0  0  0  0  0  0  0  0
    0.0000   -1.9909    0.0000 C    0  0  0  0  0  0  0  0  0  0  0  0
    5.7691   -1.3348    0.0000 C    0  0  0  0  0  0  0  0  0  0  0  0
    5.7691    0.0000    0.0000 O    0  0  0  0  0  0  0  0  0  0  0  0
    6.9230   -1.9909    0.0000 O    0  5  0  0  0  0  0  0  0  0  0  0
    5.7691   -3.9931    0.0000 O    0  0  0  0  0  0  0  0  0  0  0  0
    4.6153   -5.9954    0.0000 N    0  0  0  0  0  0  0  0  0  0  0  0
    3.4615   -5.3166    0.0000 N    0  0  0  0  0  0  0  0  0  0  0  0
    4.6153   -7.3189    0.0000 C    0  0  0  0  0  0  0  0  0  0  0  0
    5.7691   -7.9750    0.0000 C    0  0  0  0  0  0  0  0  0  0  0  0
    3.4615   -7.9750    0.0000 C    0  0  0  0  0  0  0  0  0  0  0  0
    5.7691   -9.3098    0.0000 C    0  0  0  0  0  0  0  0  0  0  0  0
    3.4615   -9.3098    0.0000 C    0  0  0  0  0  0  0  0  0  0  0  0
    4.6153   -9.9772    0.0000 C    0  0  0  0  0  0  0  0  0  0  0  0
    4.6153  -11.3120    0.0000 C    0  0  0  0  0  0  0  0  0  0  0  0
    6.9230   -7.3189    0.0000 S    0  0  0  0  0  0  0  0  0  0  0  0
    7.5790   -8.4614    0.0000 O    0  0  0  0  0  0  0  0  0  0  0  0
    6.2442   -6.1650    0.0000 O    0  0  0  0  0  0  0  0  0  0  0  0
    8.0542   -6.6515    0.0000 O    0  5  0  0  0  0  0  0  0  0  0  0
    7.7827   -3.6085    0.0000 Ca   0  2  0  0  0  0  0  0  0  0  0  0
  1  2  2  0  0  0  0
  1  3  1  0  0  0  0
  1  6  1  0  0  0  0
  2  4  1  0  0  0  0
  2  5  1  0  0  0  0
  3 10  2  0  0  0  0
  4  9  2  0  0  0  0
  5  8  2  0  0  0  0
  5 16  1  0  0  0  0
  6  7  2  0  0  0  0
  7  8  1  0  0  0  0
  7 11  1  0  0  0  0
  8 14  1  0  0  0  0
  9 10  1  0  0  0  0
 11 12  2  0  0  0  0
 11 13  1  0  0  0  0
 15 17  1  0  0  0  0
 15 16  2  0  0  0  0
 17 18  2  0  0  0  0
 17 19  1  0  0  0  0
 18 20  1  0  0  0  0
 18 24  1  0  0  0  0
 19 21  2  0  0  0  0
 20 22  2  0  0  0  0
 21 22  1  0  0  0  0
 22 23  1  0  0  0  0
 24 25  2  0  0  0  0
 24 26  2  0  0  0  0
 24 27  1  0  0  0  0
M  END
> <ID>
5277

> <Formula>
C18H12CaN2O6S

> <FW>
424.4407 (384.3638+40.0769)

> <DSSTox_CID>
7594

> <DSSTox_RID>
78520

> <DSSTox_GSID>
27594

> <DSSTox_FileID_Sort>
3203

> <TS_ChemName>
D&C Red No. 7

> <TS_ChemName_Synonyms>
2-Naphthalenecarboxylic acid, 3-hydroxy-4-[(4-methyl-2-sulfophenyl)azo]-, calcium salt (1:1)

> <TS_CASRN>
5281-04-9

> <CASRN_ChemName_Relationship>
primary

> <TS_Description>
single chemical compound

> <ChemNote>
C.I. 15850:1; parent [16014-23-6]

> <STRUCTURE_Shown>
tested chemical

> <STRUCTURE_Formula>
C18H12CaN2O6S

> <STRUCTURE_MW>
424.4407

> <STRUCTURE_ChemType>
defined organic

> <STRUCTURE_DefinedOrganicForm>
salt

> <STRUCTURE_IUPAC>
calcium 3-hydroxy-4-[(E)-(4-methyl-2-sulfonatophenyl)diazenyl]naphthalene-2-carboxylate

> <STRUCTURE_SMILES>
[Ca+2].O=S([O-])(=O)c3cc(C)ccc3/N=N/c1c2ccccc2cc(C([O-])=O)c1O

> <STRUCTURE_SMILES_Desalt>
OS(=O)(=O)c3cc(C)ccc3/N=N/c1c2ccccc2cc(C(=O)O)c1O

> <Substance_modify_yyyymmdd>
20080429

$$$$
