52829-07-9
ChemmineR-0915142007XD

 34 35  0  0  0  0  0  0  0  0  1 V2000
    5.9540   -3.1666    0.0000 C   0  0  0  0  0  0  0  0  0  0  0  0
    7.0913   -3.8133    0.0000 C   0  0  0  0  0  0  0  0  0  0  0  0
    8.2509   -3.1666    0.0000 C   0  0  0  0  0  0  0  0  0  0  0  0
    9.4105   -3.8133    0.0000 C   0  0  0  0  0  0  0  0  0  0  0  0
   10.5701   -3.1666    0.0000 C   0  0  0  0  0  0  0  0  0  0  0  0
   11.7296   -3.8133    0.0000 C   0  0  0  0  0  0  0  0  0  0  0  0
   12.8892   -3.1666    0.0000 C   0  0  0  0  0  0  0  0  0  0  0  0
   14.0488   -3.8133    0.0000 C   0  0  0  0  0  0  0  0  0  0  0  0
   15.2084   -3.1666    0.0000 C   0  0  0  0  0  0  0  0  0  0  0  0
   16.3457   -3.8133    0.0000 C   0  0  0  0  0  0  0  0  0  0  0  0
    5.9540   -1.8286    0.0000 O   0  0  0  0  0  0  0  0  0  0  0  0
    4.7944   -3.8133    0.0000 O   0  0  0  0  0  0  0  0  0  0  0  0
   16.3457   -5.1512    0.0000 O   0  0  0  0  0  0  0  0  0  0  0  0
   17.5053   -3.1666    0.0000 O   0  0  0  0  0  0  0  0  0  0  0  0
    1.3380   -1.8286    0.0000 N   0  0  0  0  0  0  0  0  0  0  0  0
    2.4976   -1.1373    0.0000 C   0  0  0  0  0  0  0  0  0  0  0  0
    1.3380   -3.1666    0.0000 C   0  0  0  0  0  0  0  0  0  0  0  0
    3.6572   -1.8286    0.0000 C   0  0  0  0  0  0  0  0  0  0  0  0
    2.4976   -3.8133    0.0000 C   0  0  0  0  0  0  0  0  0  0  0  0
    3.6572   -3.1666    0.0000 C   0  0  0  0  0  0  0  0  0  0  0  0
    3.1443    0.0000    0.0000 C   0  0  0  0  0  0  0  0  0  0  0  0
    1.8063    0.0000    0.0000 C   0  0  0  0  0  0  0  0  0  0  0  0
    0.0000   -3.1666    0.0000 C   0  0  0  0  0  0  0  0  0  0  0  0
    0.6690   -4.3038    0.0000 C   0  0  0  0  0  0  0  0  0  0  0  0
   20.9617   -5.1512    0.0000 N   0  0  0  0  0  0  0  0  0  0  0  0
   19.8021   -5.8202    0.0000 C   0  0  0  0  0  0  0  0  0  0  0  0
   20.9617   -3.8133    0.0000 C   0  0  0  0  0  0  0  0  0  0  0  0
   18.6426   -5.1512    0.0000 C   0  0  0  0  0  0  0  0  0  0  0  0
   19.8021   -3.1666    0.0000 C   0  0  0  0  0  0  0  0  0  0  0  0
   18.6426   -3.8133    0.0000 C   0  0  0  0  0  0  0  0  0  0  0  0
   19.1555   -6.9798    0.0000 C   0  0  0  0  0  0  0  0  0  0  0  0
   20.4934   -6.9798    0.0000 C   0  0  0  0  0  0  0  0  0  0  0  0
   22.2997   -3.8133    0.0000 C   0  0  0  0  0  0  0  0  0  0  0  0
   21.6307   -2.6537    0.0000 C   0  0  0  0  0  0  0  0  0  0  0  0
  1  2  1  0  0  0  0
  1 12  1  0  0  0  0
  1 11  2  0  0  0  0
  2  3  1  0  0  0  0
  3  4  1  0  0  0  0
  4  5  1  0  0  0  0
  5  6  1  0  0  0  0
  6  7  1  0  0  0  0
  7  8  1  0  0  0  0
  8  9  1  0  0  0  0
  9 10  1  0  0  0  0
 10 14  1  0  0  0  0
 10 13  2  0  0  0  0
 12 20  1  0  0  0  0
 14 30  1  0  0  0  0
 15 16  1  0  0  0  0
 15 17  1  0  0  0  0
 16 18  1  0  0  0  0
 16 21  1  0  0  0  0
 16 22  1  0  0  0  0
 17 19  1  0  0  0  0
 17 23  1  0  0  0  0
 17 24  1  0  0  0  0
 18 20  1  0  0  0  0
 19 20  1  0  0  0  0
 25 26  1  0  0  0  0
 25 27  1  0  0  0  0
 26 28  1  0  0  0  0
 26 31  1  0  0  0  0
 26 32  1  0  0  0  0
 27 29  1  0  0  0  0
 27 33  1  0  0  0  0
 27 34  1  0  0  0  0
 28 30  1  0  0  0  0
 29 30  1  0  0  0  0
M  END
> <ID>
5602

> <Formula>
C28H52N2O4

> <FW>
480.7235

> <DSSTox_CID>
8030

> <DSSTox_RID>
78644

> <DSSTox_GSID>
28030

> <DSSTox_FileID_Sort>
3326

> <TS_ChemName>
Bis(2,2,6,6-tetramethyl-4-piperidyl) sebacate

> <TS_ChemName_Synonyms>
Decanedioic acid, bis(2,2,6,6-tetramethyl-4-piperidinyl) ester

> <TS_CASRN>
52829-07-9

> <CASRN_ChemName_Relationship>
primary

> <TS_Description>
single chemical compound

> <ChemNote>


> <STRUCTURE_Shown>
tested chemical

> <STRUCTURE_Formula>
C28H52N2O4

> <STRUCTURE_MW>
480.7235

> <STRUCTURE_ChemType>
defined organic

> <STRUCTURE_DefinedOrganicForm>
parent

> <STRUCTURE_IUPAC>
bis(2,2,6,6-tetramethylpiperidin-4-yl) decanedioate

> <STRUCTURE_SMILES>
CC2(C)CC(OC(=O)CCCCCCCCC(=O)OC1CC(C)(C)NC(C)(C)C1)CC(C)(C)N2

> <STRUCTURE_SMILES_Desalt>
CC2(C)CC(OC(=O)CCCCCCCCC(=O)OC1CC(C)(C)NC(C)(C)C1)CC(C)(C)N2

> <Substance_modify_yyyymmdd>
20080429

$$$$
