528818-82-8
ChemmineR-0915142007XD

 10  9  0  0  0  0  0  0  0  0  2 V2000
    3.7398   -4.3458    0.0000 C    0  0  0  0  0  0  0  0  0  0  0  0
    0.4160   -3.1972    0.0000 C    0  0  0  0  0  0  0  0  0  0  0  0
    3.0841   -3.1972    0.0000 C    0  0  0  0  0  0  0  0  0  0  0  0
    1.7410    0.0000    0.0000 C    0  0  0  0  0  0  0  0  0  0  0  0
    0.4160    0.0000    0.0000 C    0  0  0  0  0  0  0  0  0  0  0  0
    1.7591   -3.1972    0.0000 C    0  0  0  0  0  0  0  0  0  0  0  0
    2.1571   -1.2617    0.0000 C    0  0  0  0  0  0  0  0  0  0  0  0
    0.0000   -1.2798    0.0000 C    0  0  0  0  0  0  0  0  0  0  0  0
    1.0853   -2.0440    0.0000 N    0  3  0  0  0  0  0  0  0  0  0  0
    1.4561   -4.5222    0.0000 Cl   0  5  0  0  0  0  0  0  0  0  0  0
  1  3  1  0  0  0  0
  2  9  1  0  0  0  0
  3  6  1  0  0  0  0
  4  5  1  0  0  0  0
  4  7  1  0  0  0  0
  5  8  1  0  0  0  0
  6  9  1  0  0  0  0
  7  9  1  0  0  0  0
  8  9  1  0  0  0  0
M  END
> <ID>
14178

> <Formula>
C8H18ClN

> <FW>
163.6882 (128.2347+35.4535)

> <DSSTox_CID>
29270

> <DSSTox_RID>
83389

> <DSSTox_GSID>
49314

> <DSSTox_FileID_Sort>
8064

> <TS_ChemName>
1-Methyl-1-propylpyrrolidinium chloride

> <TS_ChemName_Synonyms>


> <TS_CASRN>
528818-82-8

> <CASRN_ChemName_Relationship>
primary

> <TS_Description>
single chemical compound

> <ChemNote>


> <STRUCTURE_Shown>
tested chemical

> <STRUCTURE_Formula>
C8H18ClN

> <STRUCTURE_MW>
163.6882

> <STRUCTURE_ChemType>
defined organic

> <STRUCTURE_DefinedOrganicForm>
salt

> <STRUCTURE_IUPAC>
1-methyl-1-propylpyrrolidinium chloride

> <STRUCTURE_SMILES>
[Cl-].C[N+]1(CCC)CCCC1

> <STRUCTURE_SMILES_Desalt>
C[N+]1(CCC)CCCC1

> <Substance_modify_yyyymmdd>
20111204

$$$$
