529-96-4
ChemmineR-0915142007XD

 16 16  0  0  0  0  0  0  0  0  1 V2000
    8.6421   -2.4889    0.0000 C   0  0  0  0  0  0  0  0  0  0  0  0
    7.3112   -2.4889    0.0000 C   0  0  0  0  0  0  0  0  0  0  0  0
    6.6458   -3.6383    0.0000 C   0  0  0  0  0  0  0  0  0  0  0  0
    7.3112   -4.7877    0.0000 O   0  0  0  0  0  0  0  0  0  0  0  0
    5.3149   -3.6383    0.0000 C   0  0  0  0  0  0  0  0  0  0  0  0
    4.6494   -2.4889    0.0000 C   0  0  0  0  0  0  0  0  0  0  0  0
    3.3272   -2.4889    0.0000 C   0  0  0  0  0  0  0  0  0  0  0  0
    2.6618   -1.3309    0.0000 O   0  0  0  0  0  0  0  0  0  0  0  0
    1.3309   -1.3309    0.0000 P   0  0  0  0  0  0  0  0  0  0  0  0
    1.3309    0.0000    0.0000 O   0  0  0  0  0  0  0  0  0  0  0  0
    1.3309   -2.6618    0.0000 O   0  0  0  0  0  0  0  0  0  0  0  0
    0.0000   -1.3309    0.0000 O   0  0  0  0  0  0  0  0  0  0  0  0
    5.3149   -1.3309    0.0000 C   0  0  0  0  0  0  0  0  0  0  0  0
    6.6458   -1.3309    0.0000 N   0  0  0  0  0  0  0  0  0  0  0  0
    4.6494   -4.7877    0.0000 C   0  0  0  0  0  0  0  0  0  0  0  0
    3.3272   -4.7877    0.0000 N   0  0  0  0  0  0  0  0  0  0  0  0
  1  2  1  0  0  0  0
  2  3  2  0  0  0  0
  2 14  1  0  0  0  0
  3  4  1  0  0  0  0
  3  5  1  0  0  0  0
  5  6  2  0  0  0  0
  5 15  1  0  0  0  0
  6  7  1  0  0  0  0
  6 13  1  0  0  0  0
  7  8  1  0  0  0  0
  8  9  1  0  0  0  0
  9 10  1  0  0  0  0
  9 11  1  0  0  0  0
  9 12  2  0  0  0  0
 13 14  2  0  0  0  0
 15 16  1  0  0  0  0
M  END
> <ID>
12001

> <Formula>
C8H13N2O5P

> <FW>
248.173

> <DSSTox_CID>
26825

> <DSSTox_RID>
81937

> <DSSTox_GSID>
46825

> <DSSTox_FileID_Sort>
6618

> <TS_ChemName>
Pyridoxamine phosphate

> <TS_ChemName_Synonyms>


> <TS_CASRN>
529-96-4

> <CASRN_ChemName_Relationship>
primary

> <TS_Description>
single chemical compound

> <ChemNote>


> <STRUCTURE_Shown>
tested chemical

> <STRUCTURE_Formula>
C8H13N2O5P

> <STRUCTURE_MW>
248.173

> <STRUCTURE_ChemType>
defined organic

> <STRUCTURE_DefinedOrganicForm>
parent

> <STRUCTURE_IUPAC>
[4-(aminomethyl)-5-hydroxy-6-methylpyridin-3-yl]methyl dihydrogen phosphate

> <STRUCTURE_SMILES>
Oc1c(CN)c(cnc1C)COP(=O)(O)O

> <STRUCTURE_SMILES_Desalt>
Oc1c(CN)c(cnc1C)COP(=O)(O)O

> <Substance_modify_yyyymmdd>
20110801

$$$$
