529-33-9
ChemmineR-0915142007XD

 11 12  0  0  0  0  0  0  0  0  1 V2000
    2.3293   -1.9926    0.0000 C   0  0  0  0  0  0  0  0  0  0  0  0
    2.3293   -3.3256    0.0000 C   0  0  0  0  0  0  0  0  0  0  0  0
    1.1716   -1.3330    0.0000 C   0  0  0  0  0  0  0  0  0  0  0  0
    1.1716   -3.9852    0.0000 C   0  0  0  0  0  0  0  0  0  0  0  0
    3.4548   -3.9852    0.0000 C   0  0  0  0  0  0  0  0  0  0  0  0
    3.4548   -1.3330    0.0000 C   0  0  0  0  0  0  0  0  0  0  0  0
    4.6125   -1.9926    0.0000 C   0  0  0  0  0  0  0  0  0  0  0  0
    4.6125   -3.3256    0.0000 C   0  0  0  0  0  0  0  0  0  0  0  0
    0.0000   -3.3256    0.0000 C   0  0  0  0  0  0  0  0  0  0  0  0
    0.0000   -1.9926    0.0000 C   0  0  0  0  0  0  0  0  0  0  0  0
    3.4410    0.0000    0.0000 O   0  0  0  0  0  0  0  0  0  0  0  0
  1  2  2  0  0  0  0
  1  3  1  0  0  0  0
  1  6  1  0  0  0  0
  2  4  1  0  0  0  0
  2  5  1  0  0  0  0
  3 10  2  0  0  0  0
  4  9  2  0  0  0  0
  5  8  1  0  0  0  0
  6  7  1  0  0  0  0
  6 11  1  0  0  0  0
  7  8  1  0  0  0  0
  9 10  1  0  0  0  0
M  END
> <ID>
4972

> <Formula>
C10H12O

> <FW>
148.2017

> <DSSTox_CID>
7174

> <DSSTox_RID>
78334

> <DSSTox_GSID>
27174

> <DSSTox_FileID_Sort>
3017

> <TS_ChemName>
1,2,3,4-Tetrahydronaphthalen-1-ol

> <TS_ChemName_Synonyms>


> <TS_CASRN>
529-33-9

> <CASRN_ChemName_Relationship>
primary

> <TS_Description>
single chemical compound

> <ChemNote>


> <STRUCTURE_Shown>
tested chemical

> <STRUCTURE_Formula>
C10H12O

> <STRUCTURE_MW>
148.2017

> <STRUCTURE_ChemType>
defined organic

> <STRUCTURE_DefinedOrganicForm>
parent

> <STRUCTURE_IUPAC>
1,2,3,4-tetrahydronaphthalen-1-ol

> <STRUCTURE_SMILES>
OC2CCCc1ccccc12

> <STRUCTURE_SMILES_Desalt>
OC2CCCc1ccccc12

> <Substance_modify_yyyymmdd>
20080429

$$$$
