529-34-0
ChemmineR-0915142007XD

 11 12  0  0  0  0  0  0  0  0  1 V2000
    2.3082   -2.0001    0.0000 C   0  0  0  0  0  0  0  0  0  0  0  0
    2.3082   -3.3335    0.0000 C   0  0  0  0  0  0  0  0  0  0  0  0
    1.1541   -1.3472    0.0000 C   0  0  0  0  0  0  0  0  0  0  0  0
    1.1541   -4.0048    0.0000 C   0  0  0  0  0  0  0  0  0  0  0  0
    3.4439   -4.0048    0.0000 C   0  0  0  0  0  0  0  0  0  0  0  0
    3.4439   -1.3472    0.0000 C   0  0  0  0  0  0  0  0  0  0  0  0
    4.5980   -2.0001    0.0000 C   0  0  0  0  0  0  0  0  0  0  0  0
    4.5980   -3.3335    0.0000 C   0  0  0  0  0  0  0  0  0  0  0  0
    0.0000   -3.3335    0.0000 C   0  0  0  0  0  0  0  0  0  0  0  0
    0.0000   -2.0001    0.0000 C   0  0  0  0  0  0  0  0  0  0  0  0
    3.4439    0.0000    0.0000 O   0  0  0  0  0  0  0  0  0  0  0  0
  1  2  2  0  0  0  0
  1  3  1  0  0  0  0
  1  6  1  0  0  0  0
  2  4  1  0  0  0  0
  2  5  1  0  0  0  0
  3 10  2  0  0  0  0
  4  9  2  0  0  0  0
  5  8  1  0  0  0  0
  6  7  1  0  0  0  0
  6 11  2  0  0  0  0
  7  8  1  0  0  0  0
  9 10  1  0  0  0  0
M  END
> <ID>
4973

> <Formula>
C10H10O

> <FW>
146.1858

> <DSSTox_CID>
7175

> <DSSTox_RID>
78335

> <DSSTox_GSID>
27175

> <DSSTox_FileID_Sort>
3018

> <TS_ChemName>
1,2,3,4-Tetrahydronaphthalen-1-one

> <TS_ChemName_Synonyms>
1,2,3,4-Tetrahydronaphthalen-1-one (1(2H)-Naphthalenone, 3,4-dihydro-)

> <TS_CASRN>
529-34-0

> <CASRN_ChemName_Relationship>
primary

> <TS_Description>
single chemical compound

> <ChemNote>


> <STRUCTURE_Shown>
tested chemical

> <STRUCTURE_Formula>
C10H10O

> <STRUCTURE_MW>
146.1858

> <STRUCTURE_ChemType>
defined organic

> <STRUCTURE_DefinedOrganicForm>
parent

> <STRUCTURE_IUPAC>
3,4-dihydronaphthalen-1(2H)-one

> <STRUCTURE_SMILES>
O=C2CCCc1ccccc12

> <STRUCTURE_SMILES_Desalt>
O=C2CCCc1ccccc12

> <Substance_modify_yyyymmdd>
20080429

$$$$
