52918-63-5
ChemmineR-0915142007XD

 28 30  0  0  1  0  0  0  0  0  1 V2000
    4.1577   -1.0436    0.0000 C    0  0  0  0  0  0  0  0  0  0  0  0
    3.4454   -2.2031    0.0000 C    0  0  0  0  0  0  0  0  0  0  0  0
    4.8369   -2.2031    0.0000 C    0  0  0  0  0  0  0  0  0  0  0  0
    6.0129   -2.8657    0.0000 C    0  0  0  0  0  0  0  0  0  0  0  0
    2.3356   -2.8160    0.0000 C    0  0  0  0  0  0  0  0  0  0  0  0
    7.1725   -2.2031    0.0000 O    0  0  0  0  0  0  0  0  0  0  0  0
    1.1430   -2.2031    0.0000 C    0  0  0  0  0  0  0  0  0  0  0  0
    8.3154   -5.3835    0.0000 N    0  0  0  0  0  0  0  0  0  0  0  0
    8.3154   -4.1908    0.0000 C    0  0  0  0  0  0  0  0  0  0  0  0
    8.3154   -2.8657    0.0000 C    0  0  0  0  0  0  0  0  0  0  0  0
    9.5081   -2.2362    0.0000 C    0  0  0  0  0  0  0  0  0  0  0  0
    6.0129   -4.1908    0.0000 O    0  0  0  0  0  0  0  0  0  0  0  0
   10.6676   -2.8988    0.0000 C    0  0  0  0  0  0  0  0  0  0  0  0
   11.8768   -2.2693    0.0000 C    0  0  0  0  0  0  0  0  0  0  0  0
   13.0198   -2.8822    0.0000 O    0  0  0  0  0  0  0  0  0  0  0  0
    4.8369    0.0000    0.0000 C    0  0  0  0  0  0  0  0  0  0  0  0
    3.6111    0.0000    0.0000 C    0  0  0  0  0  0  0  0  0  0  0  0
    0.0000   -2.8160    0.0000 Br   0  0  0  0  0  0  0  0  0  0  0  0
    1.1430   -0.8448    0.0000 Br   0  0  0  0  0  0  0  0  0  0  0  0
   14.2124   -2.2031    0.0000 C    0  0  0  0  0  0  0  0  0  0  0  0
    9.5081   -0.9111    0.0000 C    0  0  0  0  0  0  0  0  0  0  0  0
   10.6676   -0.1656    0.0000 C    0  0  0  0  0  0  0  0  0  0  0  0
   11.8768   -0.9111    0.0000 C    0  0  0  0  0  0  0  0  0  0  0  0
   14.2124   -0.9111    0.0000 C    0  0  0  0  0  0  0  0  0  0  0  0
   15.4051   -2.8822    0.0000 C    0  0  0  0  0  0  0  0  0  0  0  0
   16.5646   -2.2693    0.0000 C    0  0  0  0  0  0  0  0  0  0  0  0
   15.3388   -0.2319    0.0000 C    0  0  0  0  0  0  0  0  0  0  0  0
   16.5646   -0.8779    0.0000 C    0  0  0  0  0  0  0  0  0  0  0  0
  1  2  1  0  0  0  0
  1  3  1  0  0  0  0
  1 16  1  0  0  0  0
  1 17  1  0  0  0  0
  2  5  1  6  0  0  0
  2  3  1  0  0  0  0
  3  4  1  6  0  0  0
  4  6  1  0  0  0  0
  4 12  2  0  0  0  0
  5  7  2  0  0  0  0
  6 10  1  0  0  0  0
  7 18  1  0  0  0  0
  7 19  1  0  0  0  0
  8  9  3  0  0  0  0
 10  9  1  1  0  0  0
 10 11  1  0  0  0  0
 11 13  1  0  0  0  0
 11 21  2  0  0  0  0
 13 14  2  0  0  0  0
 14 15  1  0  0  0  0
 14 23  1  0  0  0  0
 15 20  1  0  0  0  0
 20 24  1  0  0  0  0
 20 25  2  0  0  0  0
 21 22  1  0  0  0  0
 22 23  2  0  0  0  0
 24 27  2  0  0  0  0
 25 26  1  0  0  0  0
 26 28  2  0  0  0  0
 27 28  1  0  0  0  0
M  END
> <ID>
370

> <Formula>
C22H19Br2NO3

> <FW>
505.1992

> <DSSTox_CID>
381

> <DSSTox_RID>
75555

> <DSSTox_GSID>
20381

> <DSSTox_FileID_Sort>
239

> <TS_ChemName>
Deltamethrin

> <TS_ChemName_Synonyms>


> <TS_CASRN>
52918-63-5

> <CASRN_ChemName_Relationship>
primary

> <TS_Description>
single chemical compound

> <ChemNote>
stereochem

> <STRUCTURE_Shown>
tested chemical

> <STRUCTURE_Formula>
C22H19Br2NO3

> <STRUCTURE_MW>
505.1992

> <STRUCTURE_ChemType>
defined organic

> <STRUCTURE_DefinedOrganicForm>
parent

> <STRUCTURE_IUPAC>
(S)-cyano(3-phenoxyphenyl)methyl (1R,3R)-3-(2,2-dibromoethenyl)-2,2-dimethylcyclopropanecarboxylate

> <STRUCTURE_SMILES>
Br/C(Br)=C/[C@H]3[C@@H](C(=O)O[C@H](C#N)c2cccc(Oc1ccccc1)c2)C3(C)C

> <STRUCTURE_SMILES_Desalt>
Br/C(Br)=C/[C@H]3[C@@H](C(=O)O[C@H](C#N)c2cccc(Oc1ccccc1)c2)C3(C)C

> <Substance_modify_yyyymmdd>
20080429

$$$$
