53-03-2
ChemmineR-0915142007XD

 29 32  0  0  1  0  0  0  0  0  1 V2000
    6.9582   -2.4248    0.0000 C   0  0  0  0  0  0  0  0  0  0  0  0
    3.4897   -4.4174    0.0000 C   0  0  0  0  0  0  0  0  0  0  0  0
    8.2339   -2.0137    0.0000 C   0  0  0  0  0  0  0  0  0  0  0  0
    4.6494   -3.7532    0.0000 C   0  0  0  0  0  0  0  0  0  0  0  0
    5.7985   -4.4280    0.0000 C   0  0  0  0  0  0  0  0  0  0  0  0
    6.9582   -3.7532    0.0000 C   0  0  0  0  0  0  0  0  0  0  0  0
    4.6494   -2.4248    0.0000 C   0  0  0  0  0  0  0  0  0  0  0  0
    3.4897   -5.7458    0.0000 C   0  0  0  0  0  0  0  0  0  0  0  0
    5.7985   -1.7712    0.0000 C   0  0  0  0  0  0  0  0  0  0  0  0
    2.3616   -3.7532    0.0000 C   0  0  0  0  0  0  0  0  0  0  0  0
    2.3616   -6.4206    0.0000 C   0  0  0  0  0  0  0  0  0  0  0  0
    8.2339   -0.6853    0.0000 C   0  0  0  0  0  0  0  0  0  0  0  0
    8.9825   -3.0785    0.0000 C   0  0  0  0  0  0  0  0  0  0  0  0
    8.2339   -4.1644    0.0000 C   0  0  0  0  0  0  0  0  0  0  0  0
    5.7985   -5.7458    0.0000 C   0  0  0  0  0  0  0  0  0  0  0  0
    1.2019   -4.4280    0.0000 C   0  0  0  0  0  0  0  0  0  0  0  0
    1.2019   -5.7458    0.0000 C   0  0  0  0  0  0  0  0  0  0  0  0
    4.6494   -6.4206    0.0000 C   0  0  0  0  0  0  0  0  0  0  0  0
    3.4686   -1.7501    0.0000 O   0  0  0  0  0  0  0  0  0  0  0  0
    7.0953    0.0000    0.0000 O   0  0  0  0  0  0  0  0  0  0  0  0
    0.0000   -6.3784    0.0000 O   0  0  0  0  0  0  0  0  0  0  0  0
    9.4780   -1.6552    0.0000 O   0  0  0  0  0  0  0  0  0  0  0  0
    6.9582   -1.1070    0.0000 C   0  0  0  0  0  0  0  0  0  0  0  0
    3.4897   -3.0785    0.0000 C   0  0  0  0  0  0  0  0  0  0  0  0
    9.3936   -0.0422    0.0000 C   0  0  0  0  0  0  0  0  0  0  0  0
   10.5428   -0.7591    0.0000 O   0  0  0  0  0  0  0  0  0  0  0  0
    5.7985   -3.0996    0.0000 H   0  0  0  0  0  0  0  0  0  0  0  0
    4.6494   -5.0711    0.0000 H   0  0  0  0  0  0  0  0  0  0  0  0
    6.9582   -5.0922    0.0000 H   0  0  0  0  0  0  0  0  0  0  0  0
  1  3  1  0  0  0  0
  1  6  1  0  0  0  0
  1  9  1  0  0  0  0
  1 23  1  1  0  0  0
  2  4  1  0  0  0  0
  2  8  1  0  0  0  0
  2 10  1  0  0  0  0
  2 24  1  1  0  0  0
  3 12  1  1  0  0  0
  3 13  1  0  0  0  0
  3 22  1  6  0  0  0
  4  7  1  0  0  0  0
  4  5  1  0  0  0  0
  4 28  1  6  0  0  0
  5  6  1  0  0  0  0
  5 15  1  0  0  0  0
  5 27  1  1  0  0  0
  6 14  1  0  0  0  0
  6 29  1  6  0  0  0
  7  9  1  0  0  0  0
  7 19  2  0  0  0  0
  8 11  2  0  0  0  0
  8 18  1  0  0  0  0
 10 16  2  0  0  0  0
 11 17  1  0  0  0  0
 12 20  2  0  0  0  0
 12 25  1  0  0  0  0
 13 14  1  0  0  0  0
 15 18  1  0  0  0  0
 16 17  1  0  0  0  0
 17 21  2  0  0  0  0
 25 26  1  0  0  0  0
M  END
> <ID>
1139

> <Formula>
C21H26O5

> <FW>
358.4281

> <DSSTox_CID>
1185

> <DSSTox_RID>
75997

> <DSSTox_GSID>
21185

> <DSSTox_FileID_Sort>
681

> <TS_ChemName>
Prednisone

> <TS_ChemName_Synonyms>
Prednisone (P)

> <TS_CASRN>
53-03-2

> <CASRN_ChemName_Relationship>
primary

> <TS_Description>
single chemical compound

> <ChemNote>
stereochem; tautomers

> <STRUCTURE_Shown>
tested chemical

> <STRUCTURE_Formula>
C21H26O5

> <STRUCTURE_MW>
358.4281

> <STRUCTURE_ChemType>
defined organic

> <STRUCTURE_DefinedOrganicForm>
parent

> <STRUCTURE_IUPAC>
17,21-dihydroxypregna-1,4-diene-3,11,20-trione

> <STRUCTURE_SMILES>
OCC(=O)[C@@]3(O)CC[C@H]2[C@@H]4CCC1=CC(=O)C=C[C@]1(C)[C@H]4C(=O)C[C@@]23C

> <STRUCTURE_SMILES_Desalt>
OCC(=O)[C@@]3(O)CC[C@H]2[C@@H]4CCC1=CC(=O)C=C[C@]1(C)[C@H]4C(=O)C[C@@]23C

> <Substance_modify_yyyymmdd>
20080429

$$$$
