53-06-5
ChemmineR-0915142007XD

 29 32  0  0  1  0  0  0  0  0  1 V2000
    6.9593   -2.6111    0.0000 C   0  0  0  0  0  0  0  0  0  0  0  0
    3.4850   -4.5964    0.0000 C   0  0  0  0  0  0  0  0  0  0  0  0
    8.2325   -2.2011    0.0000 C   0  0  0  0  0  0  0  0  0  0  0  0
    4.6395   -3.9382    0.0000 C   0  0  0  0  0  0  0  0  0  0  0  0
    5.8156   -4.6072    0.0000 C   0  0  0  0  0  0  0  0  0  0  0  0
    6.9593   -3.9490    0.0000 C   0  0  0  0  0  0  0  0  0  0  0  0
    4.6395   -2.6111    0.0000 C   0  0  0  0  0  0  0  0  0  0  0  0
    3.4850   -5.9343    0.0000 C   0  0  0  0  0  0  0  0  0  0  0  0
    5.8156   -1.9529    0.0000 C   0  0  0  0  0  0  0  0  0  0  0  0
    2.3413   -6.5925    0.0000 C   0  0  0  0  0  0  0  0  0  0  0  0
    8.5778   -0.9387    0.0000 C   0  0  0  0  0  0  0  0  0  0  0  0
    8.9985   -3.2585    0.0000 C   0  0  0  0  0  0  0  0  0  0  0  0
    8.2325   -4.3482    0.0000 C   0  0  0  0  0  0  0  0  0  0  0  0
    5.8156   -5.9235    0.0000 C   0  0  0  0  0  0  0  0  0  0  0  0
    2.3413   -3.9382    0.0000 C   0  0  0  0  0  0  0  0  0  0  0  0
    4.6395   -6.5925    0.0000 C   0  0  0  0  0  0  0  0  0  0  0  0
    1.1869   -5.9235    0.0000 C   0  0  0  0  0  0  0  0  0  0  0  0
    3.4527   -1.9313    0.0000 O   0  0  0  0  0  0  0  0  0  0  0  0
    7.6714    0.0000    0.0000 O   0  0  0  0  0  0  0  0  0  0  0  0
    0.0000   -6.5817    0.0000 O   0  0  0  0  0  0  0  0  0  0  0  0
    9.5380   -2.3306    0.0000 O   0  0  0  0  0  0  0  0  0  0  0  0
    6.9593   -1.2732    0.0000 C   0  0  0  0  0  0  0  0  0  0  0  0
    1.1869   -4.6072    0.0000 C   0  0  0  0  0  0  0  0  0  0  0  0
    3.4850   -3.2585    0.0000 C   0  0  0  0  0  0  0  0  0  0  0  0
    9.8401   -0.6042    0.0000 C   0  0  0  0  0  0  0  0  0  0  0  0
   10.7896   -1.5537    0.0000 O   0  0  0  0  0  0  0  0  0  0  0  0
    5.8156   -3.2800    0.0000 H   0  0  0  0  0  0  0  0  0  0  0  0
    4.6395   -5.2653    0.0000 H   0  0  0  0  0  0  0  0  0  0  0  0
    6.9593   -5.2761    0.0000 H   0  0  0  0  0  0  0  0  0  0  0  0
  1  3  1  0  0  0  0
  1  6  1  0  0  0  0
  1  9  1  0  0  0  0
  1 22  1  1  0  0  0
  2  4  1  0  0  0  0
  2  8  1  0  0  0  0
  2 15  1  0  0  0  0
  2 24  1  1  0  0  0
  3 11  1  0  0  0  0
  3 12  1  0  0  0  0
  3 21  1  6  0  0  0
  4  7  1  0  0  0  0
  4  5  1  0  0  0  0
  4 28  1  6  0  0  0
  5  6  1  0  0  0  0
  5 14  1  0  0  0  0
  5 27  1  1  0  0  0
  6 13  1  0  0  0  0
  6 29  1  6  0  0  0
  7  9  1  0  0  0  0
  7 18  2  0  0  0  0
  8 10  2  0  0  0  0
  8 16  1  0  0  0  0
 10 17  1  0  0  0  0
 11 19  2  0  0  0  0
 11 25  1  0  0  0  0
 12 13  1  0  0  0  0
 14 16  1  0  0  0  0
 15 23  1  0  0  0  0
 17 23  1  0  0  0  0
 17 20  2  0  0  0  0
 25 26  1  0  0  0  0
M  END
> <ID>
2582

> <Formula>
C21H28O5

> <FW>
360.444

> <DSSTox_CID>
2857

> <DSSTox_RID>
76760

> <DSSTox_GSID>
22857

> <DSSTox_FileID_Sort>
1444

> <TS_ChemName>
Cortisone

> <TS_ChemName_Synonyms>


> <TS_CASRN>
53-06-5

> <CASRN_ChemName_Relationship>
primary

> <TS_Description>
single chemical compound

> <ChemNote>
stereochem; tautomers

> <STRUCTURE_Shown>
tested chemical

> <STRUCTURE_Formula>
C21H28O5

> <STRUCTURE_MW>
360.444

> <STRUCTURE_ChemType>
defined organic

> <STRUCTURE_DefinedOrganicForm>
parent

> <STRUCTURE_IUPAC>
17,21-dihydroxypregn-4-ene-3,11,20-trione

> <STRUCTURE_SMILES>
OCC(=O)[C@@]3(O)CC[C@H]2[C@@H]4CCC1=CC(=O)CC[C@]1(C)[C@H]4C(=O)C[C@@]23C

> <STRUCTURE_SMILES_Desalt>
OCC(=O)[C@@]3(O)CC[C@H]2[C@@H]4CCC1=CC(=O)CC[C@]1(C)[C@H]4C(=O)C[C@@]23C

> <Substance_modify_yyyymmdd>
20080429

$$$$
