53-21-4
ChemmineR-0915142007XD

 23 24  0  0  1  0  0  0  0  0  1 V2000
    0.8595   -3.8169    0.0000 C    0  0  0  0  0  0  0  0  0  0  0  0
    0.8595   -2.5692    0.0000 C    0  0  0  0  0  0  0  0  0  0  0  0
    1.8484   -4.6209    0.0000 C    0  0  0  0  0  0  0  0  0  0  0  0
    1.8484   -1.8114    0.0000 C    0  0  0  0  0  0  0  0  0  0  0  0
    3.0776   -4.3344    0.0000 C    0  0  0  0  0  0  0  0  0  0  0  0
    3.6043   -3.1977    0.0000 C    0  0  0  0  0  0  0  0  0  0  0  0
    3.0498   -2.0887    0.0000 C    0  0  0  0  0  0  0  0  0  0  0  0
    2.4676   -3.2254    0.0000 N    0  0  0  0  0  0  0  0  0  0  0  0
    0.0000   -3.2254    0.0000 C    0  0  0  0  0  0  0  0  0  0  0  0
    3.8446   -1.0998    0.0000 C    0  0  0  0  0  0  0  0  0  0  0  0
    3.2254    0.0000    0.0000 O    0  0  0  0  0  0  0  0  0  0  0  0
    5.0923   -1.0998    0.0000 O    0  0  0  0  0  0  0  0  0  0  0  0
    4.8612   -3.1977    0.0000 O    0  0  0  0  0  0  0  0  0  0  0  0
    5.5174   -4.2698    0.0000 C    0  0  0  0  0  0  0  0  0  0  0  0
    4.8612   -5.3788    0.0000 O    0  0  0  0  0  0  0  0  0  0  0  0
    6.7466   -4.2698    0.0000 C    0  0  0  0  0  0  0  0  0  0  0  0
    7.3658   -3.1977    0.0000 C    0  0  0  0  0  0  0  0  0  0  0  0
    7.3658   -5.3788    0.0000 C    0  0  0  0  0  0  0  0  0  0  0  0
    8.6227   -3.1977    0.0000 C    0  0  0  0  0  0  0  0  0  0  0  0
    8.6504   -5.3788    0.0000 C    0  0  0  0  0  0  0  0  0  0  0  0
    9.2419   -4.2698    0.0000 C    0  0  0  0  0  0  0  0  0  0  0  0
    5.7300    0.0000    0.0000 C    0  0  0  0  0  0  0  0  0  0  0  0
    2.3752   -5.9518    0.0000 Cl   0  0  0  0  0  0  0  0  0  0  0  0
  1  2  1  0  0  0  0
  1  3  1  0  0  0  0
  2  4  1  0  0  0  0
  3  5  1  0  0  0  0
  3  8  1  1  0  0  0
  4  7  1  0  0  0  0
  4  8  1  1  0  0  0
  5  6  1  0  0  0  0
  6  7  1  0  0  0  0
  6 13  1  1  0  0  0
  7 10  1  1  0  0  0
  8  9  1  0  0  0  0
 10 11  2  0  0  0  0
 10 12  1  0  0  0  0
 12 22  1  0  0  0  0
 13 14  1  0  0  0  0
 14 15  2  0  0  0  0
 14 16  1  0  0  0  0
 16 17  1  0  0  0  0
 16 18  2  0  0  0  0
 17 19  2  0  0  0  0
 18 20  1  0  0  0  0
 19 21  1  0  0  0  0
 20 21  2  0  0  0  0
M  END
> <ID>
13892

> <Formula>
C17H22ClNO4

> <FW>
339.8139 (303.3529+36.4609)

> <DSSTox_CID>
28829

> <DSSTox_RID>
83098

> <DSSTox_GSID>
48903

> <DSSTox_FileID_Sort>
7775

> <TS_ChemName>
(-)-Cocaine hydrochloride

> <TS_ChemName_Synonyms>


> <TS_CASRN>
53-21-4

> <CASRN_ChemName_Relationship>
primary

> <TS_Description>
single chemical compound

> <ChemNote>
stereochem

> <STRUCTURE_Shown>
tested chemical

> <STRUCTURE_Formula>
C17H22ClNO4

> <STRUCTURE_MW>
339.8139

> <STRUCTURE_ChemType>
defined organic

> <STRUCTURE_DefinedOrganicForm>
complex

> <STRUCTURE_IUPAC>
methyl (1R,2R,3S,5S)-3-(benzoyloxy)-8-methyl-8-azabicyclo[3.2.1]octane-2-carboxylate hydrochloride (1:1)

> <STRUCTURE_SMILES>
Cl.CN3[C@H]1CC[C@@H]3[C@H]([C@H](C1)OC(=O)c2ccccc2)C(=O)OC

> <STRUCTURE_SMILES_Desalt>
CN3[C@H]1CC[C@@H]3[C@H]([C@H](C1)OC(=O)c2ccccc2)C(=O)OC

> <Substance_modify_yyyymmdd>
20111204

$$$$
