53-34-9
ChemmineR-0915142007XD

 30 33  0  0  1  0  0  0  0  0  1 V2000
    3.5050   -4.6266    0.0000 C   0  0  0  0  0  0  0  0  0  0  0  0
    6.9345   -2.6315    0.0000 C   0  0  0  0  0  0  0  0  0  0  0  0
    3.5050   -5.9531    0.0000 C   0  0  0  0  0  0  0  0  0  0  0  0
    8.2179   -2.2216    0.0000 C   0  0  0  0  0  0  0  0  0  0  0  0
    4.6590   -3.9795    0.0000 C   0  0  0  0  0  0  0  0  0  0  0  0
    5.8021   -4.6266    0.0000 C   0  0  0  0  0  0  0  0  0  0  0  0
    6.9345   -3.9795    0.0000 C   0  0  0  0  0  0  0  0  0  0  0  0
    2.3403   -3.9795    0.0000 C   0  0  0  0  0  0  0  0  0  0  0  0
    5.8021   -1.9628    0.0000 C   0  0  0  0  0  0  0  0  0  0  0  0
    4.6590   -2.6315    0.0000 C   0  0  0  0  0  0  0  0  0  0  0  0
    5.8021   -5.9531    0.0000 C   0  0  0  0  0  0  0  0  0  0  0  0
    4.6590   -6.6110    0.0000 C   0  0  0  0  0  0  0  0  0  0  0  0
    2.3403   -6.6110    0.0000 C   0  0  0  0  0  0  0  0  0  0  0  0
    8.5846   -0.9598    0.0000 C   0  0  0  0  0  0  0  0  0  0  0  0
    8.9836   -3.2893    0.0000 C   0  0  0  0  0  0  0  0  0  0  0  0
    8.2179   -4.3894    0.0000 C   0  0  0  0  0  0  0  0  0  0  0  0
    1.1971   -4.6266    0.0000 C   0  0  0  0  0  0  0  0  0  0  0  0
    1.1971   -5.9531    0.0000 C   0  0  0  0  0  0  0  0  0  0  0  0
    7.6787    0.0000    0.0000 O   0  0  0  0  0  0  0  0  0  0  0  0
    0.0000   -6.6110    0.0000 O   0  0  0  0  0  0  0  0  0  0  0  0
    9.5552   -2.3187    0.0000 O   0  0  0  0  0  0  0  0  0  0  0  0
    3.5050   -3.2893    0.0000 C   0  0  0  0  0  0  0  0  0  0  0  0
    6.9345   -1.2834    0.0000 C   0  0  0  0  0  0  0  0  0  0  0  0
    4.6590   -7.9483    0.0000 F   0  0  0  0  0  0  0  0  0  0  0  0
    3.5050   -1.9520    0.0000 O   0  0  0  0  0  0  0  0  0  0  0  0
    9.8787   -0.6255    0.0000 C   0  0  0  0  0  0  0  0  0  0  0  0
   10.7847   -1.5961    0.0000 O   0  0  0  0  0  0  0  0  0  0  0  0
    4.6590   -5.2953    0.0000 H   0  0  0  0  0  0  0  0  0  0  0  0
    6.9345   -5.2953    0.0000 H   0  0  0  0  0  0  0  0  0  0  0  0
    5.8021   -3.2893    0.0000 H   0  0  0  0  0  0  0  0  0  0  0  0
  1  3  1  0  0  0  0
  1  5  1  0  0  0  0
  1  8  1  0  0  0  0
  1 22  1  1  0  0  0
  2  9  1  0  0  0  0
  2  4  1  0  0  0  0
  2 23  1  1  0  0  0
  2  7  1  0  0  0  0
  3 12  1  0  0  0  0
  3 13  2  0  0  0  0
  4 14  1  0  0  0  0
  4 21  1  6  0  0  0
  4 15  1  0  0  0  0
  5  6  1  0  0  0  0
  5 10  1  0  0  0  0
  5 28  1  6  0  0  0
  6  7  1  0  0  0  0
  6 11  1  0  0  0  0
  6 30  1  1  0  0  0
  7 16  1  0  0  0  0
  7 29  1  6  0  0  0
  8 17  2  0  0  0  0
  9 10  1  0  0  0  0
 10 25  1  1  0  0  0
 11 12  1  0  0  0  0
 12 24  1  6  0  0  0
 13 18  1  0  0  0  0
 14 19  2  0  0  0  0
 14 26  1  0  0  0  0
 15 16  1  0  0  0  0
 17 18  1  0  0  0  0
 18 20  2  0  0  0  0
 26 27  1  0  0  0  0
M  END
> <ID>
11385

> <Formula>
C21H27FO5

> <FW>
378.4345

> <DSSTox_CID>
26067

> <DSSTox_RID>
81317

> <DSSTox_GSID>
46067

> <DSSTox_FileID_Sort>
5998

> <TS_ChemName>
Fluprednisolone

> <TS_ChemName_Synonyms>


> <TS_CASRN>
53-34-9

> <CASRN_ChemName_Relationship>
primary

> <TS_Description>
single chemical compound

> <ChemNote>
stereochem; tautomers

> <STRUCTURE_Shown>
tested chemical

> <STRUCTURE_Formula>
C21H27FO5

> <STRUCTURE_MW>
378.4345

> <STRUCTURE_ChemType>
defined organic

> <STRUCTURE_DefinedOrganicForm>
parent

> <STRUCTURE_IUPAC>
(6alpha,11beta)-6-fluoro-11,17,21-trihydroxypregna-1,4-diene-3,20-dione

> <STRUCTURE_SMILES>
OCC(=O)[C@@]4(O)CC[C@@H]3[C@]4(C)C[C@H](O)[C@H]2[C@H]3C[C@H](F)C1=CC(=O)C=C[C@@]12C

> <STRUCTURE_SMILES_Desalt>
OCC(=O)[C@@]4(O)CC[C@@H]3[C@]4(C)C[C@H](O)[C@H]2[C@H]3C[C@H](F)C1=CC(=O)C=C[C@@]12C

> <Substance_modify_yyyymmdd>
20110819

$$$$
