53-46-3
ChemmineR-0915142007XD

 26 27  0  0  0  0  0  0  0  0  2 V2000
    1.1519   -6.6580    0.0000 C    0  0  0  0  0  0  0  0  0  0  0  0
    0.0000   -5.9899    0.0000 C    0  0  0  0  0  0  0  0  0  0  0  0
    0.0000   -4.6537    0.0000 C    0  0  0  0  0  0  0  0  0  0  0  0
    1.1519   -3.9971    0.0000 C    0  0  0  0  0  0  0  0  0  0  0  0
    2.3038   -4.6537    0.0000 C    0  0  0  0  0  0  0  0  0  0  0  0
    2.3038   -5.9899    0.0000 C    0  0  0  0  0  0  0  0  0  0  0  0
    3.4557   -3.9971    0.0000 C    0  0  0  0  0  0  0  0  0  0  0  0
    4.6076   -4.6537    0.0000 C    0  0  0  0  0  0  0  0  0  0  0  0
    4.6076   -5.9899    0.0000 O    0  0  0  0  0  0  0  0  0  0  0  0
    5.7595   -3.9971    0.0000 O    0  0  0  0  0  0  0  0  0  0  0  0
    6.9114   -4.6537    0.0000 C    0  0  0  0  0  0  0  0  0  0  0  0
    8.0633   -3.9971    0.0000 C    0  0  0  0  0  0  0  0  0  0  0  0
    9.2152   -4.6537    0.0000 N    0  3  0  0  0  0  0  0  0  0  0  0
    8.5471   -5.8056    0.0000 C    0  0  0  0  0  0  0  0  0  0  0  0
   10.3671   -5.3218    0.0000 C    0  0  0  0  0  0  0  0  0  0  0  0
   11.5190   -4.6537    0.0000 C    0  0  0  0  0  0  0  0  0  0  0  0
    9.8833   -3.5018    0.0000 C    0  0  0  0  0  0  0  0  0  0  0  0
   11.2080   -3.5018    0.0000 C    0  0  0  0  0  0  0  0  0  0  0  0
    3.4557   -2.6609    0.0000 C    0  0  0  0  0  0  0  0  0  0  0  0
    2.3038   -1.9928    0.0000 C    0  0  0  0  0  0  0  0  0  0  0  0
    1.1519   -2.6609    0.0000 O    0  0  0  0  0  0  0  0  0  0  0  0
    2.3038   -0.6681    0.0000 C    0  0  0  0  0  0  0  0  0  0  0  0
    3.4557    0.0000    0.0000 C    0  0  0  0  0  0  0  0  0  0  0  0
    4.6076   -0.6681    0.0000 C    0  0  0  0  0  0  0  0  0  0  0  0
    4.6076   -1.9928    0.0000 C    0  0  0  0  0  0  0  0  0  0  0  0
    5.7249   -7.9827    0.0000 Br   0  5  0  0  0  0  0  0  0  0  0  0
  1  2  2  0  0  0  0
  1  6  1  0  0  0  0
  2  3  1  0  0  0  0
  3  4  2  0  0  0  0
  4  5  1  0  0  0  0
  4 21  1  0  0  0  0
  5  6  2  0  0  0  0
  5  7  1  0  0  0  0
  7  8  1  0  0  0  0
  7 19  1  0  0  0  0
  8  9  2  0  0  0  0
  8 10  1  0  0  0  0
 10 11  1  0  0  0  0
 11 12  1  0  0  0  0
 12 13  1  0  0  0  0
 13 14  1  0  0  0  0
 13 15  1  0  0  0  0
 13 17  1  0  0  0  0
 15 16  1  0  0  0  0
 17 18  1  0  0  0  0
 19 20  2  0  0  0  0
 19 25  1  0  0  0  0
 20 21  1  0  0  0  0
 20 22  1  0  0  0  0
 22 23  2  0  0  0  0
 23 24  1  0  0  0  0
 24 25  2  0  0  0  0
M  END
> <ID>
2943

> <Formula>
C21H26BrNO3

> <FW>
420.3400 (340.4355+79.9045)

> <DSSTox_CID>
3277

> <DSSTox_RID>
76953

> <DSSTox_GSID>
23277

> <DSSTox_FileID_Sort>
1637

> <TS_ChemName>
Methantheline bromide

> <TS_ChemName_Synonyms>


> <TS_CASRN>
53-46-3

> <CASRN_ChemName_Relationship>
primary

> <TS_Description>
single chemical compound

> <ChemNote>
ammonium

> <STRUCTURE_Shown>
tested chemical

> <STRUCTURE_Formula>
C21H26BrNO3

> <STRUCTURE_MW>
420.34

> <STRUCTURE_ChemType>
defined organic

> <STRUCTURE_DefinedOrganicForm>
salt

> <STRUCTURE_IUPAC>
N,N-diethyl-N-methyl-2-[(9H-xanthen-9-ylcarbonyl)oxy]ethanaminium bromide

> <STRUCTURE_SMILES>
[Br-].CC[N+](C)(CC)CCOC(=O)C1c3ccccc3Oc2ccccc12

> <STRUCTURE_SMILES_Desalt>
CC[N+](C)(CC)CCOC(=O)C1c3ccccc3Oc2ccccc12

> <Substance_modify_yyyymmdd>
20080429

$$$$
