53-43-0
ChemmineR-0915142007XD

 24 27  0  0  1  0  0  0  0  0  1 V2000
    3.4767   -3.6917    0.0000 C   0  0  0  0  0  0  0  0  0  0  0  0
    6.9354   -1.6846    0.0000 C   0  0  0  0  0  0  0  0  0  0  0  0
    3.4767   -5.0179    0.0000 C   0  0  0  0  0  0  0  0  0  0  0  0
    4.6146   -3.0197    0.0000 C   0  0  0  0  0  0  0  0  0  0  0  0
    6.9354   -3.0197    0.0000 C   0  0  0  0  0  0  0  0  0  0  0  0
    5.7795   -3.6917    0.0000 C   0  0  0  0  0  0  0  0  0  0  0  0
    4.6146   -5.6809    0.0000 C   0  0  0  0  0  0  0  0  0  0  0  0
    8.1899   -1.2724    0.0000 C   0  0  0  0  0  0  0  0  0  0  0  0
    5.7705   -1.0305    0.0000 C   0  0  0  0  0  0  0  0  0  0  0  0
    5.7795   -5.0358    0.0000 C   0  0  0  0  0  0  0  0  0  0  0  0
    4.6146   -1.6846    0.0000 C   0  0  0  0  0  0  0  0  0  0  0  0
    2.3208   -3.0197    0.0000 C   0  0  0  0  0  0  0  0  0  0  0  0
    8.1899   -3.4229    0.0000 C   0  0  0  0  0  0  0  0  0  0  0  0
    2.3208   -5.6809    0.0000 C   0  0  0  0  0  0  0  0  0  0  0  0
    8.9605   -2.3476    0.0000 C   0  0  0  0  0  0  0  0  0  0  0  0
    8.6200    0.0000    0.0000 O   0  0  0  0  0  0  0  0  0  0  0  0
    1.1559   -3.6917    0.0000 C   0  0  0  0  0  0  0  0  0  0  0  0
    1.1559   -5.0179    0.0000 C   0  0  0  0  0  0  0  0  0  0  0  0
    3.4767   -2.3566    0.0000 C   0  0  0  0  0  0  0  0  0  0  0  0
    6.9354   -0.3943    0.0000 C   0  0  0  0  0  0  0  0  0  0  0  0
    0.0000   -5.6809    0.0000 O   0  0  0  0  0  0  0  0  0  0  0  0
    5.7795   -2.3566    0.0000 H   0  0  0  0  0  0  0  0  0  0  0  0
    6.9354   -4.3458    0.0000 H   0  0  0  0  0  0  0  0  0  0  0  0
    4.6146   -4.3458    0.0000 H   0  0  0  0  0  0  0  0  0  0  0  0
  1  3  1  0  0  0  0
  1  4  1  0  0  0  0
  1 12  1  0  0  0  0
  1 19  1  1  0  0  0
  2  9  1  0  0  0  0
  2  8  1  0  0  0  0
  2 20  1  1  0  0  0
  2  5  1  0  0  0  0
  3  7  2  0  0  0  0
  3 14  1  0  0  0  0
  4  6  1  0  0  0  0
  4 11  1  0  0  0  0
  4 24  1  6  0  0  0
  5  6  1  0  0  0  0
  5 13  1  0  0  0  0
  5 23  1  6  0  0  0
  6 10  1  0  0  0  0
  6 22  1  1  0  0  0
  7 10  1  0  0  0  0
  8 16  2  0  0  0  0
  8 15  1  0  0  0  0
  9 11  1  0  0  0  0
 12 17  1  0  0  0  0
 13 15  1  0  0  0  0
 14 18  1  0  0  0  0
 17 18  1  0  0  0  0
 18 21  1  1  0  0  0
M  END
> <ID>
368

> <Formula>
C19H28O2

> <FW>
288.4244

> <DSSTox_CID>
379

> <DSSTox_RID>
75553

> <DSSTox_GSID>
20379

> <DSSTox_FileID_Sort>
237

> <TS_ChemName>
Dehydroepiandrosterone

> <TS_ChemName_Synonyms>
Dehydroepiandrosterone (DHEA) (5,6-Didehydroisoandrosterone) (Prasterone)

> <TS_CASRN>
53-43-0

> <CASRN_ChemName_Relationship>
primary

> <TS_Description>
single chemical compound

> <ChemNote>
stereochem

> <STRUCTURE_Shown>
tested chemical

> <STRUCTURE_Formula>
C19H28O2

> <STRUCTURE_MW>
288.4244

> <STRUCTURE_ChemType>
defined organic

> <STRUCTURE_DefinedOrganicForm>
parent

> <STRUCTURE_IUPAC>
(3beta)-3-hydroxyandrost-5-en-17-one

> <STRUCTURE_SMILES>
O=C4CC[C@@H]3[C@]4(C)CC[C@H]2[C@H]3CC=C1C[C@@H](O)CC[C@@]12C

> <STRUCTURE_SMILES_Desalt>
O=C4CC[C@@H]3[C@]4(C)CC[C@H]2[C@H]3CC=C1C[C@@H](O)CC[C@@]12C

> <Substance_modify_yyyymmdd>
20080429

$$$$
