53-60-1
ChemmineR-0915142007XD

 21 22  0  0  0  0  0  0  0  0  1 V2000
    4.6191   -0.6546    0.0000 C    0  0  0  0  0  0  0  0  0  0  0  0
    5.7716    0.0000    0.0000 C    0  0  0  0  0  0  0  0  0  0  0  0
    6.9240   -0.6546    0.0000 C    0  0  0  0  0  0  0  0  0  0  0  0
    6.9240   -1.9915    0.0000 C    0  0  0  0  0  0  0  0  0  0  0  0
    5.7716   -2.6645    0.0000 C    0  0  0  0  0  0  0  0  0  0  0  0
    4.6191   -1.9915    0.0000 C    0  0  0  0  0  0  0  0  0  0  0  0
    5.7716   -3.9922    0.0000 N    0  0  0  0  0  0  0  0  0  0  0  0
    4.6191   -4.6468    0.0000 C    0  0  0  0  0  0  0  0  0  0  0  0
    3.4666   -3.9922    0.0000 C    0  0  0  0  0  0  0  0  0  0  0  0
    2.3049   -4.6468    0.0000 C    0  0  0  0  0  0  0  0  0  0  0  0
    1.1525   -3.9922    0.0000 N    0  0  0  0  0  0  0  0  0  0  0  0
    0.0000   -4.6468    0.0000 C    0  0  0  0  0  0  0  0  0  0  0  0
    1.1525   -2.6645    0.0000 C    0  0  0  0  0  0  0  0  0  0  0  0
    6.9240   -4.6468    0.0000 C    0  0  0  0  0  0  0  0  0  0  0  0
    8.0673   -3.9922    0.0000 C    0  0  0  0  0  0  0  0  0  0  0  0
    8.0673   -2.6645    0.0000 S    0  0  0  0  0  0  0  0  0  0  0  0
    9.2198   -4.6468    0.0000 C    0  0  0  0  0  0  0  0  0  0  0  0
    9.2198   -6.0021    0.0000 C    0  0  0  0  0  0  0  0  0  0  0  0
    8.0673   -6.6567    0.0000 C    0  0  0  0  0  0  0  0  0  0  0  0
    6.9240   -6.0021    0.0000 C    0  0  0  0  0  0  0  0  0  0  0  0
    3.0149   -6.7673    0.0000 Cl   0  0  0  0  0  0  0  0  0  0  0  0
  1  2  2  0  0  0  0
  1  6  1  0  0  0  0
  2  3  1  0  0  0  0
  3  4  2  0  0  0  0
  4  5  1  0  0  0  0
  4 16  1  0  0  0  0
  5  6  2  0  0  0  0
  5  7  1  0  0  0  0
  7  8  1  0  0  0  0
  7 14  1  0  0  0  0
  8  9  1  0  0  0  0
  9 10  1  0  0  0  0
 10 11  1  0  0  0  0
 11 12  1  0  0  0  0
 11 13  1  0  0  0  0
 14 15  2  0  0  0  0
 14 20  1  0  0  0  0
 15 16  1  0  0  0  0
 15 17  1  0  0  0  0
 17 18  2  0  0  0  0
 18 19  1  0  0  0  0
 19 20  2  0  0  0  0
M  END
> <ID>
12108

> <Formula>
C17H21ClN2S

> <FW>
320.8800 (284.4191+36.4609)

> <DSSTox_CID>
26949

> <DSSTox_RID>
82026

> <DSSTox_GSID>
46949

> <DSSTox_FileID_Sort>
6707

> <TS_ChemName>
Promazine hydrochloride

> <TS_ChemName_Synonyms>


> <TS_CASRN>
53-60-1

> <CASRN_ChemName_Relationship>
primary

> <TS_Description>
single chemical compound

> <ChemNote>


> <STRUCTURE_Shown>
tested chemical

> <STRUCTURE_Formula>
C17H21ClN2S

> <STRUCTURE_MW>
320.88

> <STRUCTURE_ChemType>
defined organic

> <STRUCTURE_DefinedOrganicForm>
complex

> <STRUCTURE_IUPAC>
N,N-dimethyl-3-(10H-phenothiazin-10-yl)propan-1-amine hydrochloride (1:1)

> <STRUCTURE_SMILES>
Cl.CN(C)CCCN1c3ccccc3Sc2ccccc12

> <STRUCTURE_SMILES_Desalt>
CN(C)CCCN1c3ccccc3Sc2ccccc12

> <Substance_modify_yyyymmdd>
20100107

$$$$
