53-70-3
ChemmineR-0915142007XD

 22 26  0  0  0  0  0  0  0  0  1 V2000
    4.6586   -3.4567    0.0000 C   0  0  0  0  0  0  0  0  0  0  0  0
    5.9881   -3.4567    0.0000 C   0  0  0  0  0  0  0  0  0  0  0  0
    6.6475   -4.6054    0.0000 C   0  0  0  0  0  0  0  0  0  0  0  0
    7.9770   -4.6054    0.0000 C   0  0  0  0  0  0  0  0  0  0  0  0
    8.6471   -3.4567    0.0000 C   0  0  0  0  0  0  0  0  0  0  0  0
    9.9660   -3.4567    0.0000 C   0  0  0  0  0  0  0  0  0  0  0  0
   10.6361   -2.2974    0.0000 C   0  0  0  0  0  0  0  0  0  0  0  0
    9.9660   -1.1487    0.0000 C   0  0  0  0  0  0  0  0  0  0  0  0
    8.6471   -1.1487    0.0000 C   0  0  0  0  0  0  0  0  0  0  0  0
    7.9770   -2.2974    0.0000 C   0  0  0  0  0  0  0  0  0  0  0  0
    6.6475   -2.2974    0.0000 C   0  0  0  0  0  0  0  0  0  0  0  0
    5.9881   -1.1487    0.0000 C   0  0  0  0  0  0  0  0  0  0  0  0
    4.6586   -1.1487    0.0000 C   0  0  0  0  0  0  0  0  0  0  0  0
    3.9885    0.0000    0.0000 C   0  0  0  0  0  0  0  0  0  0  0  0
    2.6590    0.0000    0.0000 C   0  0  0  0  0  0  0  0  0  0  0  0
    1.9889   -1.1487    0.0000 C   0  0  0  0  0  0  0  0  0  0  0  0
    2.6590   -2.2974    0.0000 C   0  0  0  0  0  0  0  0  0  0  0  0
    3.9885   -2.2974    0.0000 C   0  0  0  0  0  0  0  0  0  0  0  0
    1.9889   -3.4567    0.0000 C   0  0  0  0  0  0  0  0  0  0  0  0
    0.6594   -3.4567    0.0000 C   0  0  0  0  0  0  0  0  0  0  0  0
    0.0000   -2.2974    0.0000 C   0  0  0  0  0  0  0  0  0  0  0  0
    0.6594   -1.1487    0.0000 C   0  0  0  0  0  0  0  0  0  0  0  0
  1  2  2  0  0  0  0
  1 18  1  0  0  0  0
  2  3  1  0  0  0  0
  2 11  1  0  0  0  0
  3  4  2  0  0  0  0
  4  5  1  0  0  0  0
  5  6  2  0  0  0  0
  5 10  1  0  0  0  0
  6  7  1  0  0  0  0
  7  8  2  0  0  0  0
  8  9  1  0  0  0  0
  9 10  2  0  0  0  0
 10 11  1  0  0  0  0
 11 12  2  0  0  0  0
 12 13  1  0  0  0  0
 13 14  2  0  0  0  0
 13 18  1  0  0  0  0
 14 15  1  0  0  0  0
 15 16  2  0  0  0  0
 16 17  1  0  0  0  0
 16 22  1  0  0  0  0
 17 18  2  0  0  0  0
 17 19  1  0  0  0  0
 19 20  2  0  0  0  0
 20 21  1  0  0  0  0
 21 22  2  0  0  0  0
M  END
> <ID>
394

> <Formula>
C22H14

> <FW>
278.3466

> <DSSTox_CID>
409

> <DSSTox_RID>
75568

> <DSSTox_GSID>
20409

> <DSSTox_FileID_Sort>
252

> <TS_ChemName>
Dibenz(a,h)anthracene

> <TS_ChemName_Synonyms>


> <TS_CASRN>
53-70-3

> <CASRN_ChemName_Relationship>
primary

> <TS_Description>
single chemical compound

> <ChemNote>


> <STRUCTURE_Shown>
tested chemical

> <STRUCTURE_Formula>
C22H14

> <STRUCTURE_MW>
278.3466

> <STRUCTURE_ChemType>
defined organic

> <STRUCTURE_DefinedOrganicForm>
parent

> <STRUCTURE_IUPAC>
benzo[k]tetraphene

> <STRUCTURE_SMILES>
c1c4c5ccccc5ccc4cc3c1ccc2ccccc23

> <STRUCTURE_SMILES_Desalt>
c1c4c5ccccc5ccc4cc3c1ccc2ccccc23

> <Substance_modify_yyyymmdd>
20080429

$$$$
