53-84-9
ChemmineR-0915142007XD

 44 48  0  0  1  0  0  0  0  0  2 V2000
   16.9369   -3.5539    0.0000 N   0  0  0  0  0  0  0  0  0  0  0  0
   18.1148   -3.1681    0.0000 C   0  0  0  0  0  0  0  0  0  0  0  0
   18.1148   -1.9090    0.0000 C   0  0  0  0  0  0  0  0  0  0  0  0
   16.9369   -1.5231    0.0000 N   0  0  0  0  0  0  0  0  0  0  0  0
   16.2059   -2.5385    0.0000 C   0  0  0  0  0  0  0  0  0  0  0  0
   19.2318   -1.2591    0.0000 C   0  0  0  0  0  0  0  0  0  0  0  0
   19.2318   -3.8179    0.0000 N   0  0  0  0  0  0  0  0  0  0  0  0
   20.3081   -1.9090    0.0000 N   0  0  0  0  0  0  0  0  0  0  0  0
   20.3081   -3.1681    0.0000 C   0  0  0  0  0  0  0  0  0  0  0  0
   19.2318    0.0000    0.0000 N   0  0  0  0  0  0  0  0  0  0  0  0
   16.9369   -5.9909    0.0000 C   0  0  0  0  0  0  0  0  0  0  0  0
   14.8046   -5.9909    0.0000 C   0  0  0  0  0  0  0  0  0  0  0  0
   15.8809   -5.2192    0.0000 O   0  0  0  0  0  0  0  0  0  0  0  0
   15.2311   -7.2500    0.0000 C   0  0  0  0  0  0  0  0  0  0  0  0
   16.5511   -7.2500    0.0000 C   0  0  0  0  0  0  0  0  0  0  0  0
   14.4594   -8.3060    0.0000 O   0  0  0  0  0  0  0  0  0  0  0  0
   17.3025   -8.3060    0.0000 O   0  0  0  0  0  0  0  0  0  0  0  0
   13.5658   -5.5847    0.0000 C   0  0  0  0  0  0  0  0  0  0  0  0
   12.5910   -6.4783    0.0000 O   0  0  0  0  0  0  0  0  0  0  0  0
    8.0420   -6.4783    0.0000 O   0  0  0  0  0  0  0  0  0  0  0  0
    9.1793   -5.8284    0.0000 P   0  0  0  0  0  0  0  0  0  0  0  0
   10.3165   -6.4783    0.0000 O   0  0  0  0  0  0  0  0  0  0  0  0
    9.1793   -4.5084    0.0000 O   0  0  0  0  0  0  0  0  0  0  0  0
    8.5497   -7.1281    0.0000 O   0  5  0  0  0  0  0  0  0  0  0  0
   11.4538   -5.8284    0.0000 P   0  0  0  0  0  0  0  0  0  0  0  0
   11.4538   -4.5084    0.0000 O   0  0  0  0  0  0  0  0  0  0  0  0
   10.8039   -7.1281    0.0000 O   0  0  0  0  0  0  0  0  0  0  0  0
    6.9048   -5.8284    0.0000 C   0  0  0  0  0  0  0  0  0  0  0  0
    3.5133   -6.2143    0.0000 C   0  0  0  0  0  0  0  0  0  0  0  0
    4.5693   -5.4426    0.0000 O   0  0  0  0  0  0  0  0  0  0  0  0
    3.9195   -7.4734    0.0000 C   0  0  0  0  0  0  0  0  0  0  0  0
    5.6456   -6.2143    0.0000 C   0  0  0  0  0  0  0  0  0  0  0  0
    5.2395   -7.4734    0.0000 C   0  0  0  0  0  0  0  0  0  0  0  0
    5.9909   -8.5294    0.0000 O   0  0  0  0  0  0  0  0  0  0  0  0
    3.1681   -8.5294    0.0000 O   0  0  0  0  0  0  0  0  0  0  0  0
    2.2745   -5.8081    0.0000 N   0  3  0  0  0  0  0  0  0  0  0  0
    2.2745   -4.4881    0.0000 C   0  0  0  0  0  0  0  0  0  0  0  0
    1.1373   -3.8382    0.0000 C   0  0  0  0  0  0  0  0  0  0  0  0
    1.1373   -6.4580    0.0000 C   0  0  0  0  0  0  0  0  0  0  0  0
    0.0000   -4.4881    0.0000 C   0  0  0  0  0  0  0  0  0  0  0  0
    0.0000   -5.8081    0.0000 C   0  0  0  0  0  0  0  0  0  0  0  0
    1.1373   -2.5182    0.0000 C   0  0  0  0  0  0  0  0  0  0  0  0
    0.0000   -1.8683    0.0000 O   0  0  0  0  0  0  0  0  0  0  0  0
    2.2745   -1.8683    0.0000 N   0  0  0  0  0  0  0  0  0  0  0  0
  1  2  1  0  0  0  0
  1  5  1  0  0  0  0
 11  1  1  1  0  0  0
  2  3  2  0  0  0  0
  2  7  1  0  0  0  0
  3  6  1  0  0  0  0
  3  4  1  0  0  0  0
  4  5  2  0  0  0  0
  6 10  1  0  0  0  0
  6  8  2  0  0  0  0
  7  9  2  0  0  0  0
  8  9  1  0  0  0  0
 11 13  1  0  0  0  0
 11 15  1  0  0  0  0
 12 13  1  0  0  0  0
 12 14  1  0  0  0  0
 12 18  1  1  0  0  0
 14 15  1  0  0  0  0
 14 16  1  6  0  0  0
 15 17  1  6  0  0  0
 18 19  1  0  0  0  0
 19 25  1  0  0  0  0
 20 21  1  0  0  0  0
 20 28  1  0  0  0  0
 21 22  1  0  0  0  0
 21 23  2  0  0  0  0
 21 24  1  0  0  0  0
 22 25  1  0  0  0  0
 25 26  2  0  0  0  0
 25 27  1  0  0  0  0
 32 28  1  6  0  0  0
 29 30  1  0  0  0  0
 29 31  1  0  0  0  0
 29 36  1  6  0  0  0
 30 32  1  0  0  0  0
 31 33  1  0  0  0  0
 31 35  1  1  0  0  0
 32 33  1  0  0  0  0
 33 34  1  1  0  0  0
 36 37  1  0  0  0  0
 36 39  2  0  0  0  0
 37 38  2  0  0  0  0
 38 40  1  0  0  0  0
 38 42  1  0  0  0  0
 39 41  1  0  0  0  0
 40 41  2  0  0  0  0
 42 43  2  0  0  0  0
 42 44  1  0  0  0  0
M  END
> <ID>
10838

> <Formula>
C21H27N7O14P2

> <FW>
663.4251

> <DSSTox_CID>
25236

> <DSSTox_RID>
80768

> <DSSTox_GSID>
45236

> <DSSTox_FileID_Sort>
5449

> <TS_ChemName>
Nadide

> <TS_ChemName_Synonyms>


> <TS_CASRN>
53-84-9

> <CASRN_ChemName_Relationship>
primary

> <TS_Description>
single chemical compound

> <ChemNote>
stereochem; zwitterion; ammonium

> <STRUCTURE_Shown>
tested chemical

> <STRUCTURE_Formula>
C21H27N7O14P2

> <STRUCTURE_MW>
663.4251

> <STRUCTURE_ChemType>
defined organic

> <STRUCTURE_DefinedOrganicForm>
parent

> <STRUCTURE_IUPAC>
[[(2R,3S,4R,5R)-5-(6-aminopurin-9-yl)-3,4-dihydroxyoxolan-2-yl]methoxy-hydroxyphosphoryl][(2R,3S,4R,5R)-5-(3-carbamoylpyridin-1-ium-1-yl)-3,4-dihydroxyoxolan-2-yl]methyl phosphate

> <STRUCTURE_SMILES>
NC(=O)c1ccc[n+](c1)[C@@H]5O[C@H](COP([O-])(=O)OP(=O)(O)OC[C@H]4O[C@@H](n3cnc2c(N)ncnc23)[C@H](O)[C@@H]4O)[C@@H](O)[C@H]5O

> <STRUCTURE_SMILES_Desalt>
NC(=O)c1ccc[n+](c1)[C@@H]5O[C@H](COP(=O)(O)OP(=O)(O)OC[C@H]4O[C@@H](n3cnc2c(N)ncnc23)[C@H](O)[C@@H]4O)[C@@H](O)[C@H]5O

> <Substance_modify_yyyymmdd>
20100107

$$$$
