53-96-3
ChemmineR-0915142007XD

 17 19  0  0  0  0  0  0  0  0  1 V2000
    5.7640   -1.7698    0.0000 C   0  0  0  0  0  0  0  0  0  0  0  0
    7.0213   -1.3540    0.0000 C   0  0  0  0  0  0  0  0  0  0  0  0
    7.8046   -2.4275    0.0000 C   0  0  0  0  0  0  0  0  0  0  0  0
    9.1296   -2.2921    0.0000 C   0  0  0  0  0  0  0  0  0  0  0  0
    9.6712   -1.0735    0.0000 C   0  0  0  0  0  0  0  0  0  0  0  0
    8.8878    0.0000    0.0000 C   0  0  0  0  0  0  0  0  0  0  0  0
    7.5629   -0.1451    0.0000 C   0  0  0  0  0  0  0  0  0  0  0  0
    7.0213   -3.5106    0.0000 C   0  0  0  0  0  0  0  0  0  0  0  0
    5.7640   -3.0948    0.0000 C   0  0  0  0  0  0  0  0  0  0  0  0
    4.6035   -3.7621    0.0000 C   0  0  0  0  0  0  0  0  0  0  0  0
    3.4526   -3.0948    0.0000 C   0  0  0  0  0  0  0  0  0  0  0  0
    3.4526   -1.7698    0.0000 C   0  0  0  0  0  0  0  0  0  0  0  0
    4.6035   -1.1025    0.0000 C   0  0  0  0  0  0  0  0  0  0  0  0
    2.3017   -3.7621    0.0000 N   0  0  0  0  0  0  0  0  0  0  0  0
    1.1509   -3.0948    0.0000 C   0  0  0  0  0  0  0  0  0  0  0  0
    0.0000   -3.7621    0.0000 C   0  0  0  0  0  0  0  0  0  0  0  0
    1.1509   -1.7698    0.0000 O   0  0  0  0  0  0  0  0  0  0  0  0
  1  2  1  0  0  0  0
  1  9  1  0  0  0  0
  1 13  2  0  0  0  0
  2  3  2  0  0  0  0
  2  7  1  0  0  0  0
  3  4  1  0  0  0  0
  3  8  1  0  0  0  0
  4  5  2  0  0  0  0
  5  6  1  0  0  0  0
  6  7  2  0  0  0  0
  8  9  1  0  0  0  0
  9 10  2  0  0  0  0
 10 11  1  0  0  0  0
 11 12  2  0  0  0  0
 11 14  1  0  0  0  0
 12 13  1  0  0  0  0
 14 15  1  0  0  0  0
 15 16  1  0  0  0  0
 15 17  2  0  0  0  0
M  END
> <ID>
18

> <Formula>
C15H13NO

> <FW>
223.2698

> <DSSTox_CID>
18

> <DSSTox_RID>
79424

> <DSSTox_GSID>
39227

> <DSSTox_FileID_Sort>
4106

> <TS_ChemName>
2-Acetylaminofluorene

> <TS_ChemName_Synonyms>
2-AAF; 2-Acetamidofluorene; N-2-Acetylaminofluorene

> <TS_CASRN>
53-96-3

> <CASRN_ChemName_Relationship>
primary

> <TS_Description>
single chemical compound

> <ChemNote>


> <STRUCTURE_Shown>
tested chemical

> <STRUCTURE_Formula>
C15H13NO

> <STRUCTURE_MW>
223.2698

> <STRUCTURE_ChemType>
defined organic

> <STRUCTURE_DefinedOrganicForm>
parent

> <STRUCTURE_IUPAC>
N-(9H-fluoren-2-yl)acetamide

> <STRUCTURE_SMILES>
CC(=O)Nc1ccc2c3ccccc3Cc2c1

> <STRUCTURE_SMILES_Desalt>
CC(=O)Nc1ccc2c3ccccc3Cc2c1

> <Substance_modify_yyyymmdd>
20080429

$$$$
