530-43-8
ChemmineR-0915142007XD

 37 37  0  0  1  0  0  0  0  0  2 V2000
    1.1612   -0.6635    0.0000 N    0  3  0  0  0  0  0  0  0  0  0  0
    4.6241   -6.6562    0.0000 C    0  0  0  0  0  0  0  0  0  0  0  0
    3.4629   -5.9926    0.0000 N    0  0  0  0  0  0  0  0  0  0  0  0
    2.3017   -6.6562    0.0000 C    0  0  0  0  0  0  0  0  0  0  0  0
    1.1612   -1.9906    0.0000 C    0  0  0  0  0  0  0  0  0  0  0  0
    5.7438   -5.9926    0.0000 C    0  0  0  0  0  0  0  0  0  0  0  0
    1.1612   -5.9926    0.0000 C    0  0  0  0  0  0  0  0  0  0  0  0
    2.3017    0.0000    0.0000 O    0  5  0  0  0  0  0  0  0  0  0  0
    0.0000    0.0000    0.0000 O    0  0  0  0  0  0  0  0  0  0  0  0
    3.4629   -9.9739    0.0000 C    0  0  0  0  0  0  0  0  0  0  0  0
    1.1612   -4.6448    0.0000 C    0  0  0  0  0  0  0  0  0  0  0  0
    4.6241   -7.9833    0.0000 O    0  0  0  0  0  0  0  0  0  0  0  0
    2.3017   -7.9833    0.0000 C    0  0  0  0  0  0  0  0  0  0  0  0
    3.4629   -8.6468    0.0000 O    0  0  0  0  0  0  0  0  0  0  0  0
    2.3017  -10.6375    0.0000 O    0  0  0  0  0  0  0  0  0  0  0  0
    2.3017   -2.6542    0.0000 C    0  0  0  0  0  0  0  0  0  0  0  0
    0.0000   -2.6542    0.0000 C    0  0  0  0  0  0  0  0  0  0  0  0
    2.3017   -3.9813    0.0000 C    0  0  0  0  0  0  0  0  0  0  0  0
    0.0000   -3.9813    0.0000 C    0  0  0  0  0  0  0  0  0  0  0  0
    5.7438   -4.6448    0.0000 Cl   0  0  0  0  0  0  0  0  0  0  0  0
    6.9050   -6.6562    0.0000 Cl   0  0  0  0  0  0  0  0  0  0  0  0
    0.0000   -6.6562    0.0000 O    0  0  0  0  0  0  0  0  0  0  0  0
    4.6241  -10.6375    0.0000 C    0  0  0  0  0  0  0  0  0  0  0  0
    5.7438   -9.9739    0.0000 C    0  0  0  0  0  0  0  0  0  0  0  0
   19.5746   -9.9739    0.0000 C    0  0  0  0  0  0  0  0  0  0  0  0
   18.4341  -10.6375    0.0000 C    0  0  0  0  0  0  0  0  0  0  0  0
    6.9050  -10.6375    0.0000 C    0  0  0  0  0  0  0  0  0  0  0  0
   16.1117  -10.6375    0.0000 C    0  0  0  0  0  0  0  0  0  0  0  0
   10.3679   -9.9739    0.0000 C    0  0  0  0  0  0  0  0  0  0  0  0
    9.2067  -10.6375    0.0000 C    0  0  0  0  0  0  0  0  0  0  0  0
    8.0662   -9.9739    0.0000 C    0  0  0  0  0  0  0  0  0  0  0  0
   13.8308  -10.6375    0.0000 C    0  0  0  0  0  0  0  0  0  0  0  0
   12.6696   -9.9739    0.0000 C    0  0  0  0  0  0  0  0  0  0  0  0
   11.5291  -10.6375    0.0000 C    0  0  0  0  0  0  0  0  0  0  0  0
   14.9920   -9.9739    0.0000 C    0  0  0  0  0  0  0  0  0  0  0  0
   17.2729   -9.9739    0.0000 C    0  0  0  0  0  0  0  0  0  0  0  0
   20.7358  -10.6375    0.0000 C    0  0  0  0  0  0  0  0  0  0  0  0
  1  5  1  0  0  0  0
  1  8  1  0  0  0  0
  1  9  2  0  0  0  0
  2  3  1  0  0  0  0
  2  6  1  0  0  0  0
  2 12  2  0  0  0  0
  4  3  1  6  0  0  0
  4  7  1  0  0  0  0
  4 13  1  0  0  0  0
  5 16  1  0  0  0  0
  5 17  2  0  0  0  0
  6 20  1  0  0  0  0
  6 21  1  0  0  0  0
  7 11  1  0  0  0  0
  7 22  1  6  0  0  0
 10 14  1  0  0  0  0
 10 15  2  0  0  0  0
 10 23  1  0  0  0  0
 11 19  2  0  0  0  0
 11 18  1  0  0  0  0
 13 14  1  0  0  0  0
 16 18  2  0  0  0  0
 17 19  1  0  0  0  0
 23 24  1  0  0  0  0
 24 27  1  0  0  0  0
 25 26  1  0  0  0  0
 25 37  1  0  0  0  0
 26 36  1  0  0  0  0
 27 31  1  0  0  0  0
 28 35  1  0  0  0  0
 28 36  1  0  0  0  0
 29 30  1  0  0  0  0
 29 34  1  0  0  0  0
 30 31  1  0  0  0  0
 32 33  1  0  0  0  0
 32 35  1  0  0  0  0
 33 34  1  0  0  0  0
M  END
> <ID>
13692

> <Formula>
C27H42Cl2N2O6

> <FW>
561.5382

> <DSSTox_CID>
28625

> <DSSTox_RID>
82895

> <DSSTox_GSID>
48699

> <DSSTox_FileID_Sort>
7572

> <TS_ChemName>
Chloramphenicol palmitate

> <TS_ChemName_Synonyms>


> <TS_CASRN>
530-43-8

> <CASRN_ChemName_Relationship>
primary

> <TS_Description>
single chemical compound

> <ChemNote>


> <STRUCTURE_Shown>
tested chemical

> <STRUCTURE_Formula>
C27H42Cl2N2O6

> <STRUCTURE_MW>
561.5382

> <STRUCTURE_ChemType>
defined organic

> <STRUCTURE_DefinedOrganicForm>
parent

> <STRUCTURE_IUPAC>
(2R,3R)-2-[(dichloroacetyl)amino]-3-hydroxy-3-(4-nitrophenyl)propyl hexadecanoate

> <STRUCTURE_SMILES>
O=[N+]([O-])c1ccc(cc1)[C@@H](O)[C@@H](COC(=O)CCCCCCCCCCCCCCC)NC(=O)C(Cl)Cl

> <STRUCTURE_SMILES_Desalt>
O=[N+]([O-])c1ccc(cc1)[C@@H](O)[C@@H](COC(=O)CCCCCCCCCCCCCCC)NC(=O)C(Cl)Cl

> <Substance_modify_yyyymmdd>
20111204

$$$$
