5300-03-8
ChemmineR-0915142007XD

 22 22  0  0  0  0  0  0  0  0  1 V2000
    2.3148   -1.9930    0.0000 C   0  0  0  0  0  0  0  0  0  0  0  0
    1.1522   -1.3183    0.0000 C   0  0  0  0  0  0  0  0  0  0  0  0
    2.3148   -3.3114    0.0000 C   0  0  0  0  0  0  0  0  0  0  0  0
    3.4671   -1.3183    0.0000 C   0  0  0  0  0  0  0  0  0  0  0  0
    0.0000   -1.9930    0.0000 C   0  0  0  0  0  0  0  0  0  0  0  0
    0.4879   -0.1868    0.0000 C   0  0  0  0  0  0  0  0  0  0  0  0
    1.8270   -0.1868    0.0000 C   0  0  0  0  0  0  0  0  0  0  0  0
    1.1522   -3.9861    0.0000 C   0  0  0  0  0  0  0  0  0  0  0  0
    3.4671   -3.9861    0.0000 C   0  0  0  0  0  0  0  0  0  0  0  0
    4.6193   -1.9930    0.0000 C   0  0  0  0  0  0  0  0  0  0  0  0
    0.0000   -3.3114    0.0000 C   0  0  0  0  0  0  0  0  0  0  0  0
    5.7612   -1.3183    0.0000 C   0  0  0  0  0  0  0  0  0  0  0  0
    6.9134   -1.9930    0.0000 C   0  0  0  0  0  0  0  0  0  0  0  0
    5.7612    0.0000    0.0000 C   0  0  0  0  0  0  0  0  0  0  0  0
    6.9134   -3.3114    0.0000 C   0  0  0  0  0  0  0  0  0  0  0  0
    8.0656   -3.9861    0.0000 C   0  0  0  0  0  0  0  0  0  0  0  0
    8.0656   -5.3252    0.0000 C   0  0  0  0  0  0  0  0  0  0  0  0
    9.2282   -5.9791    0.0000 C   0  0  0  0  0  0  0  0  0  0  0  0
    6.9134   -5.9791    0.0000 C   0  0  0  0  0  0  0  0  0  0  0  0
    9.2282   -7.3182    0.0000 C   0  0  0  0  0  0  0  0  0  0  0  0
    8.0656   -7.9722    0.0000 O   0  0  0  0  0  0  0  0  0  0  0  0
   10.3805   -7.9722    0.0000 O   0  0  0  0  0  0  0  0  0  0  0  0
  1  2  1  0  0  0  0
  1  3  2  0  0  0  0
  1  4  1  0  0  0  0
  2  5  1  0  0  0  0
  2  6  1  0  0  0  0
  2  7  1  0  0  0  0
  3  8  1  0  0  0  0
  3  9  1  0  0  0  0
  4 10  2  0  0  0  0
  5 11  1  0  0  0  0
  8 11  1  0  0  0  0
 10 12  1  0  0  0  0
 12 13  2  0  0  0  0
 12 14  1  0  0  0  0
 13 15  1  0  0  0  0
 15 16  2  0  0  0  0
 16 17  1  0  0  0  0
 17 18  2  0  0  0  0
 17 19  1  0  0  0  0
 18 20  1  0  0  0  0
 20 21  1  0  0  0  0
 20 22  2  0  0  0  0
M  END
> <ID>
7743

> <Formula>
C20H28O2

> <FW>
300.4351

> <DSSTox_CID>
20404

> <DSSTox_RID>
79490

> <DSSTox_GSID>
40404

> <DSSTox_FileID_Sort>
4172

> <TS_ChemName>
9-cis Retinoic acid

> <TS_ChemName_Synonyms>
9-cis Retinoic Acid (9CRA)

> <TS_CASRN>
5300-03-8

> <CASRN_ChemName_Relationship>
primary

> <TS_Description>
single chemical compound

> <ChemNote>
stereochem

> <STRUCTURE_Shown>
tested chemical

> <STRUCTURE_Formula>
C20H28O2

> <STRUCTURE_MW>
300.4351

> <STRUCTURE_ChemType>
defined organic

> <STRUCTURE_DefinedOrganicForm>
parent

> <STRUCTURE_IUPAC>
(9cis)-retinoic acid

> <STRUCTURE_SMILES>
CC=1CCCC(C)(C)C=1/C=C/C(/C)=C\C=C\C(\C)=C\C(=O)O

> <STRUCTURE_SMILES_Desalt>
CC=1CCCC(C)(C)C=1/C=C/C(/C)=C\C=C\C(\C)=C\C(=O)O

> <Substance_modify_yyyymmdd>
20080429

$$$$
