53016-31-2
ChemmineR-0915142007XD

 28 31  0  0  1  0  0  0  0  0  1 V2000
    8.0267   -2.0998    0.0000 C   0  0  0  0  0  0  0  0  0  0  0  0
    8.0267   -3.4206    0.0000 C   0  0  0  0  0  0  0  0  0  0  0  0
    4.5947   -5.4301    0.0000 C   0  0  0  0  0  0  0  0  0  0  0  0
    6.8751   -4.0867    0.0000 C   0  0  0  0  0  0  0  0  0  0  0  0
    5.7349   -3.4206    0.0000 C   0  0  0  0  0  0  0  0  0  0  0  0
    4.5947   -4.0867    0.0000 C   0  0  0  0  0  0  0  0  0  0  0  0
    3.4545   -6.0849    0.0000 C   0  0  0  0  0  0  0  0  0  0  0  0
    6.8751   -1.4112    0.0000 C   0  0  0  0  0  0  0  0  0  0  0  0
    5.7349   -2.0998    0.0000 C   0  0  0  0  0  0  0  0  0  0  0  0
    6.8751   -5.4301    0.0000 C   0  0  0  0  0  0  0  0  0  0  0  0
    9.2910   -3.8271    0.0000 C   0  0  0  0  0  0  0  0  0  0  0  0
    3.4545   -3.4206    0.0000 C   0  0  0  0  0  0  0  0  0  0  0  0
    9.2910   -1.6934    0.0000 C   0  0  0  0  0  0  0  0  0  0  0  0
    5.7349   -6.0849    0.0000 C   0  0  0  0  0  0  0  0  0  0  0  0
   10.0587   -2.7659    0.0000 C   0  0  0  0  0  0  0  0  0  0  0  0
    2.3030   -5.4301    0.0000 C   0  0  0  0  0  0  0  0  0  0  0  0
    2.3030   -4.0867    0.0000 C   0  0  0  0  0  0  0  0  0  0  0  0
    8.0267   -0.6774    0.0000 C   0  0  0  0  0  0  0  0  0  0  0  0
    9.7087   -0.4403    0.0000 O   0  0  0  0  0  0  0  0  0  0  0  0
    1.1402   -6.0962    0.0000 N   0  0  0  0  0  0  0  0  0  0  0  0
    4.5947   -2.7659    0.0000 H   0  0  0  0  0  0  0  0  0  0  0  0
    6.8751   -2.7659    0.0000 H   0  0  0  0  0  0  0  0  0  0  0  0
    8.0267   -4.7528    0.0000 H   0  0  0  0  0  0  0  0  0  0  0  0
    5.7349   -4.7528    0.0000 H   0  0  0  0  0  0  0  0  0  0  0  0
    0.0000   -5.4301    0.0000 O   0  0  0  0  0  0  0  0  0  0  0  0
    6.8751    0.0000    0.0000 C   0  0  0  0  0  0  0  0  0  0  0  0
   10.6232   -1.6821    0.0000 C   0  0  0  0  0  0  0  0  0  0  0  0
   11.2892   -2.8336    0.0000 C   0  0  0  0  0  0  0  0  0  0  0  0
  1  2  1  0  0  0  0
  1  8  1  0  0  0  0
  1 13  1  0  0  0  0
  1 18  1  1  0  0  0
  2  4  1  0  0  0  0
  2 11  1  0  0  0  0
  2 23  1  6  0  0  0
  3  6  1  0  0  0  0
  3  7  2  0  0  0  0
  3 14  1  0  0  0  0
  4 10  1  0  0  0  0
  4  5  1  0  0  0  0
  4 22  1  1  0  0  0
  5  9  1  0  0  0  0
  5  6  1  0  0  0  0
  5 24  1  6  0  0  0
  6 12  1  0  0  0  0
  6 21  1  1  0  0  0
  7 16  1  0  0  0  0
  8  9  1  0  0  0  0
 10 14  1  0  0  0  0
 11 15  1  0  0  0  0
 12 17  1  0  0  0  0
 13 15  1  0  0  0  0
 13 19  1  1  0  0  0
 13 27  1  6  0  0  0
 16 17  1  0  0  0  0
 16 20  2  0  0  0  0
 18 26  1  0  0  0  0
 20 25  1  0  0  0  0
 27 28  3  0  0  0  0
M  END
> <ID>
11970

> <Formula>
C21H29NO2

> <FW>
327.4605

> <DSSTox_CID>
26788

> <DSSTox_RID>
81906

> <DSSTox_GSID>
46788

> <DSSTox_FileID_Sort>
6587

> <TS_ChemName>
Norelgestromin

> <TS_ChemName_Synonyms>


> <TS_CASRN>
53016-31-2

> <CASRN_ChemName_Relationship>
primary

> <TS_Description>
single chemical compound

> <ChemNote>
stereochem

> <STRUCTURE_Shown>
tested chemical

> <STRUCTURE_Formula>
C21H29NO2

> <STRUCTURE_MW>
327.4605

> <STRUCTURE_ChemType>
defined organic

> <STRUCTURE_DefinedOrganicForm>
parent

> <STRUCTURE_IUPAC>
(3E,8R,9S,10R,13S,14S,17R)-13-ethyl-17-ethynyl-3-(hydroxyimino)-2,3,6,7,8,9,10,11,12,13,14,15,16,17-tetradecahydro-1H-cyclopenta[a]phenanthren-17-ol

> <STRUCTURE_SMILES>
O\N=C4/CC[C@H]3C(CC[C@@H]2[C@@H]3CC[C@@]1(CC)[C@H]2CC[C@@]1(O)C#C)=C4

> <STRUCTURE_SMILES_Desalt>
O\N=C4/CC[C@H]3C(CC[C@@H]2[C@@H]3CC[C@@]1(CC)[C@H]2CC[C@@]1(O)C#C)=C4

> <Substance_modify_yyyymmdd>
20110802

$$$$
