5307-14-2
ChemmineR-0915142007XD

 11 11  0  0  0  0  0  0  0  0  2 V2000
    1.9968   -4.6079    0.0000 N   0  0  0  0  0  0  0  0  0  0  0  0
    2.6577   -3.4583    0.0000 C   0  0  0  0  0  0  0  0  0  0  0  0
    1.9968   -2.3039    0.0000 C   0  0  0  0  0  0  0  0  0  0  0  0
    2.6577   -1.1543    0.0000 C   0  0  0  0  0  0  0  0  0  0  0  0
    3.9889   -1.1543    0.0000 C   0  0  0  0  0  0  0  0  0  0  0  0
    4.6544   -2.3039    0.0000 C   0  0  0  0  0  0  0  0  0  0  0  0
    3.9889   -3.4583    0.0000 C   0  0  0  0  0  0  0  0  0  0  0  0
    4.6544    0.0000    0.0000 N   0  0  0  0  0  0  0  0  0  0  0  0
    0.6656   -2.3039    0.0000 N   0  3  0  0  0  0  0  0  0  0  0  0
    0.0000   -3.4583    0.0000 O   0  0  0  0  0  0  0  0  0  0  0  0
    0.0000   -1.1543    0.0000 O   0  5  0  0  0  0  0  0  0  0  0  0
  1  2  1  0  0  0  0
  2  3  2  0  0  0  0
  2  7  1  0  0  0  0
  3  4  1  0  0  0  0
  3  9  1  0  0  0  0
  4  5  2  0  0  0  0
  5  6  1  0  0  0  0
  5  8  1  0  0  0  0
  6  7  2  0  0  0  0
  9 10  2  0  0  0  0
  9 11  1  0  0  0  0
M  END
> <ID>
921

> <Formula>
C6H7N3O2

> <FW>
153.1387

> <DSSTox_CID>
957

> <DSSTox_RID>
75885

> <DSSTox_GSID>
20957

> <DSSTox_FileID_Sort>
569

> <TS_ChemName>
2-Nitro-1,4-phenylenediamine

> <TS_ChemName_Synonyms>
2-Nitro-1,4-phenylenediamine (2-Nitro-p-phenylenediamine)

> <TS_CASRN>
5307-14-2

> <CASRN_ChemName_Relationship>
primary

> <TS_Description>
single chemical compound

> <ChemNote>


> <STRUCTURE_Shown>
tested chemical

> <STRUCTURE_Formula>
C6H7N3O2

> <STRUCTURE_MW>
153.1387

> <STRUCTURE_ChemType>
defined organic

> <STRUCTURE_DefinedOrganicForm>
parent

> <STRUCTURE_IUPAC>
2-nitrobenzene-1,4-diamine

> <STRUCTURE_SMILES>
O=[N+]([O-])c1cc(N)ccc1N

> <STRUCTURE_SMILES_Desalt>
O=[N+]([O-])c1cc(N)ccc1N

> <Substance_modify_yyyymmdd>
20080429

$$$$
