531-75-9
ChemmineR-0915142007XD

 24 26  0  0  1  0  0  0  0  0  1 V2000
    8.0361   -2.8235    0.0000 C   0  0  0  0  0  0  0  0  0  0  0  0
    9.1907   -2.1834    0.0000 O   0  0  0  0  0  0  0  0  0  0  0  0
    4.6296   -4.7783    0.0000 O   0  0  0  0  0  0  0  0  0  0  0  0
    5.7613   -4.1267    0.0000 C   0  0  0  0  0  0  0  0  0  0  0  0
    6.9045   -2.1834    0.0000 C   0  0  0  0  0  0  0  0  0  0  0  0
    8.0361   -4.1267    0.0000 C   0  0  0  0  0  0  0  0  0  0  0  0
   10.2995   -2.8235    0.0000 C   0  0  0  0  0  0  0  0  0  0  0  0
    5.7613   -2.8235    0.0000 C   0  0  0  0  0  0  0  0  0  0  0  0
    9.1907   -4.7783    0.0000 C   0  0  0  0  0  0  0  0  0  0  0  0
    6.9045   -4.7783    0.0000 C   0  0  0  0  0  0  0  0  0  0  0  0
   10.2995   -4.1267    0.0000 C   0  0  0  0  0  0  0  0  0  0  0  0
   11.4312   -2.1834    0.0000 O   0  0  0  0  0  0  0  0  0  0  0  0
    4.6296   -2.1834    0.0000 O   0  0  0  0  0  0  0  0  0  0  0  0
    3.4980   -4.1267    0.0000 C   0  0  0  0  0  0  0  0  0  0  0  0
    3.4980   -2.8235    0.0000 O   0  0  0  0  0  0  0  0  0  0  0  0
    2.3663   -4.7783    0.0000 C   0  0  0  0  0  0  0  0  0  0  0  0
    2.3663   -2.1834    0.0000 C   0  0  0  0  0  0  0  0  0  0  0  0
    1.2460   -4.1267    0.0000 C   0  0  0  0  0  0  0  0  0  0  0  0
    1.2460   -2.8235    0.0000 C   0  0  0  0  0  0  0  0  0  0  0  0
    2.3663   -6.2186    0.0000 O   0  0  0  0  0  0  0  0  0  0  0  0
    0.0000   -4.8468    0.0000 O   0  0  0  0  0  0  0  0  0  0  0  0
    0.0000   -2.0919    0.0000 O   0  0  0  0  0  0  0  0  0  0  0  0
    2.3663   -0.7430    0.0000 C   0  0  0  0  0  0  0  0  0  0  0  0
    1.1203    0.0000    0.0000 O   0  0  0  0  0  0  0  0  0  0  0  0
  1  6  2  0  0  0  0
  1  2  1  0  0  0  0
  1  5  1  0  0  0  0
  2  7  1  0  0  0  0
  3  4  1  0  0  0  0
 14  3  1  1  0  0  0
  4  8  1  0  0  0  0
  4 10  2  0  0  0  0
  5  8  2  0  0  0  0
  6 10  1  0  0  0  0
  6  9  1  0  0  0  0
  7 11  1  0  0  0  0
  7 12  2  0  0  0  0
  8 13  1  0  0  0  0
  9 11  2  0  0  0  0
 14 15  1  0  0  0  0
 14 16  1  0  0  0  0
 15 17  1  0  0  0  0
 16 18  1  0  0  0  0
 16 20  1  6  0  0  0
 17 19  1  0  0  0  0
 17 23  1  1  0  0  0
 18 19  1  0  0  0  0
 18 21  1  1  0  0  0
 19 22  1  6  0  0  0
 23 24  1  0  0  0  0
M  END
> <ID>
10868

> <Formula>
C15H16O9

> <FW>
340.2821

> <DSSTox_CID>
25318

> <DSSTox_RID>
80798

> <DSSTox_GSID>
45318

> <DSSTox_FileID_Sort>
5479

> <TS_ChemName>
Esculin

> <TS_ChemName_Synonyms>


> <TS_CASRN>
531-75-9

> <CASRN_ChemName_Relationship>
primary

> <TS_Description>
single chemical compound

> <ChemNote>
stereochem

> <STRUCTURE_Shown>
tested chemical

> <STRUCTURE_Formula>
C15H16O9

> <STRUCTURE_MW>
340.2821

> <STRUCTURE_ChemType>
defined organic

> <STRUCTURE_DefinedOrganicForm>
parent

> <STRUCTURE_IUPAC>
7-hydroxy-2-oxo-2H-chromen-6-yl beta-D-glucopyranoside

> <STRUCTURE_SMILES>
O=C2C=Cc3cc(O[C@@H]1O[C@H](CO)[C@@H](O)[C@H](O)[C@H]1O)c(O)cc3O2

> <STRUCTURE_SMILES_Desalt>
O=C2C=Cc3cc(O[C@@H]1O[C@H](CO)[C@@H](O)[C@H](O)[C@H]1O)c(O)cc3O2

> <Substance_modify_yyyymmdd>
20110720

$$$$
