53112-28-0
ChemmineR-0915142007XD

 15 16  0  0  0  0  0  0  0  0  1 V2000
    5.7642   -3.9881    0.0000 N   0  0  0  0  0  0  0  0  0  0  0  0
    4.6097   -2.0021    0.0000 N   0  0  0  0  0  0  0  0  0  0  0  0
    4.6097   -3.3342    0.0000 C   0  0  0  0  0  0  0  0  0  0  0  0
    6.9186   -2.0021    0.0000 C   0  0  0  0  0  0  0  0  0  0  0  0
    6.9186   -3.3342    0.0000 C   0  0  0  0  0  0  0  0  0  0  0  0
    5.7642   -1.3321    0.0000 C   0  0  0  0  0  0  0  0  0  0  0  0
    3.4633   -3.9881    0.0000 N   0  0  0  0  0  0  0  0  0  0  0  0
    5.7642    0.0000    0.0000 C   0  0  0  0  0  0  0  0  0  0  0  0
    8.0731   -3.9881    0.0000 C   0  0  0  0  0  0  0  0  0  0  0  0
    2.3089   -3.3342    0.0000 C   0  0  0  0  0  0  0  0  0  0  0  0
    1.1544   -3.9881    0.0000 C   0  0  0  0  0  0  0  0  0  0  0  0
    2.3089   -2.0021    0.0000 C   0  0  0  0  0  0  0  0  0  0  0  0
    0.0000   -3.3342    0.0000 C   0  0  0  0  0  0  0  0  0  0  0  0
    1.1544   -1.3321    0.0000 C   0  0  0  0  0  0  0  0  0  0  0  0
    0.0000   -2.0021    0.0000 C   0  0  0  0  0  0  0  0  0  0  0  0
  1  3  2  0  0  0  0
  1  5  1  0  0  0  0
  2  3  1  0  0  0  0
  2  6  2  0  0  0  0
  3  7  1  0  0  0  0
  4  5  2  0  0  0  0
  4  6  1  0  0  0  0
  5  9  1  0  0  0  0
  6  8  1  0  0  0  0
  7 10  1  0  0  0  0
 10 11  2  0  0  0  0
 10 12  1  0  0  0  0
 11 13  1  0  0  0  0
 12 14  2  0  0  0  0
 13 15  2  0  0  0  0
 14 15  1  0  0  0  0
M  END
> <ID>
6939

> <Formula>
C12H13N3

> <FW>
199.2517

> <DSSTox_CID>
14877

> <DSSTox_RID>
79216

> <DSSTox_GSID>
34877

> <DSSTox_FileID_Sort>
3898

> <TS_ChemName>
Pyrimethanil

> <TS_ChemName_Synonyms>
Pyrimethanil (4,6-Dimethyl-N-phenyl-2-pyrimidinamine)

> <TS_CASRN>
53112-28-0

> <CASRN_ChemName_Relationship>
primary

> <TS_Description>
single chemical compound

> <ChemNote>


> <STRUCTURE_Shown>
tested chemical

> <STRUCTURE_Formula>
C12H13N3

> <STRUCTURE_MW>
199.2517

> <STRUCTURE_ChemType>
defined organic

> <STRUCTURE_DefinedOrganicForm>
parent

> <STRUCTURE_IUPAC>
4,6-dimethyl-N-phenylpyrimidin-2-amine

> <STRUCTURE_SMILES>
Cc2cc(C)nc(Nc1ccccc1)n2

> <STRUCTURE_SMILES_Desalt>
Cc2cc(C)nc(Nc1ccccc1)n2

> <Substance_modify_yyyymmdd>
20080429

$$$$
