53152-21-9
ChemmineR-0915142007XD

 36 41  0  0  1  0  0  0  0  0  1 V2000
    3.3764   -4.0725    0.0000 C    0  0  0  0  0  0  0  0  0  0  0  0
    4.5504   -4.6958    0.0000 C    0  0  0  0  0  0  0  0  0  0  0  0
    2.2440   -4.7166    0.0000 C    0  0  0  0  0  0  0  0  0  0  0  0
    2.2440   -6.0568    0.0000 C    0  0  0  0  0  0  0  0  0  0  0  0
    3.3764   -2.7323    0.0000 C    0  0  0  0  0  0  0  0  0  0  0  0
    3.4180   -6.7009    0.0000 C    0  0  0  0  0  0  0  0  0  0  0  0
    2.2440   -2.0155    0.0000 C    0  0  0  0  0  0  0  0  0  0  0  0
    1.3921   -3.4076    0.0000 O    0  0  0  0  0  0  0  0  0  0  0  0
    5.7139   -4.0309    0.0000 C    0  0  0  0  0  0  0  0  0  0  0  0
    6.8048   -4.5815    0.0000 N    0  0  0  0  0  0  0  0  0  0  0  0
    4.5504   -2.0155    0.0000 C    0  0  0  0  0  0  0  0  0  0  0  0
    4.5504   -6.0152    0.0000 C    0  0  0  0  0  0  0  0  0  0  0  0
    3.4180   -8.0722    0.0000 C    0  0  0  0  0  0  0  0  0  0  0  0
    5.7139   -2.7323    0.0000 C    0  0  0  0  0  0  0  0  0  0  0  0
    3.4387   -4.9036    0.0000 C    0  0  0  0  0  0  0  0  0  0  0  0
    3.4387   -5.7659    0.0000 C    0  0  0  0  0  0  0  0  0  0  0  0
    4.3737   -3.3141    0.0000 C    0  0  0  0  0  0  0  0  0  0  0  0
    8.4047   -4.5815    0.0000 C    0  0  0  0  0  0  0  0  0  0  0  0
    4.3737   -8.6124    0.0000 C    0  0  0  0  0  0  0  0  0  0  0  0
    2.2440   -0.6649    0.0000 C    0  0  0  0  0  0  0  0  0  0  0  0
    9.1319   -3.3452    0.0000 C    0  0  0  0  0  0  0  0  0  0  0  0
    6.8048   -3.3141    0.0000 C    0  0  0  0  0  0  0  0  0  0  0  0
    9.1319   -1.8908    0.0000 C    0  0  0  0  0  0  0  0  0  0  0  0
   10.3889   -2.6180    0.0000 C    0  0  0  0  0  0  0  0  0  0  0  0
    4.5504   -0.6649    0.0000 C    0  0  0  0  0  0  0  0  0  0  0  0
    1.2571   -6.6281    0.0000 O    0  0  0  0  0  0  0  0  0  0  0  0
    3.4180    0.0000    0.0000 C    0  0  0  0  0  0  0  0  0  0  0  0
    2.3271   -8.1034    0.0000 O    0  0  0  0  0  0  0  0  0  0  0  0
    1.0804    0.0000    0.0000 O    0  0  0  0  0  0  0  0  0  0  0  0
    5.3191   -8.7267    0.0000 C    0  0  0  0  0  0  0  0  0  0  0  0
    4.3737   -9.7137    0.0000 C    0  0  0  0  0  0  0  0  0  0  0  0
    0.0000   -5.9425    0.0000 C    0  0  0  0  0  0  0  0  0  0  0  0
    2.2128   -7.1164    0.0000 H    0  0  0  0  0  0  0  0  0  0  0  0
    5.0179   -7.4593    0.0000 C    0  0  0  0  0  0  0  0  0  0  0  0
    2.9712   -9.0176    0.0000 C    0  0  0  0  0  0  0  0  0  0  0  0
    6.6905   -6.2749    0.0000 Cl   0  0  0  0  0  0  0  0  0  0  0  0
  1  2  1  0  0  0  0
  1  3  1  0  0  0  0
  1  5  1  0  0  0  0
  1 17  1  1  0  0  0
  2  9  1  0  0  0  0
  2 12  1  0  0  0  0
  2 15  1  6  0  0  0
  3  4  1  0  0  0  0
  3  8  1  6  0  0  0
  4  6  1  0  0  0  0
  4 16  1  6  0  0  0
  4 26  1  1  0  0  0
  5  7  1  0  0  0  0
  5 11  2  0  0  0  0
  6 13  1  0  0  0  0
  6 12  1  0  0  0  0
  6 33  1  1  0  0  0
  7 20  2  0  0  0  0
  7  8  1  0  0  0  0
  9 10  1  1  0  0  0
  9 14  1  0  0  0  0
 10 22  1  0  0  0  0
 10 18  1  0  0  0  0
 11 14  1  0  0  0  0
 11 25  1  0  0  0  0
 13 19  1  0  0  0  0
 13 28  1  1  0  0  0
 13 35  1  0  0  0  0
 15 16  1  0  0  0  0
 17 22  1  0  0  0  0
 18 21  1  0  0  0  0
 19 30  1  0  0  0  0
 19 31  1  0  0  0  0
 19 34  1  0  0  0  0
 20 29  1  0  0  0  0
 20 27  1  0  0  0  0
 21 23  1  0  0  0  0
 21 24  1  0  0  0  0
 23 24  1  0  0  0  0
 25 27  2  0  0  0  0
 26 32  1  0  0  0  0
M  END
> <ID>
13894

> <Formula>
C29H42ClNO4

> <FW>
504.1011 (467.6401+36.4609)

> <DSSTox_CID>
28831

> <DSSTox_RID>
83100

> <DSSTox_GSID>
48905

> <DSSTox_FileID_Sort>
7777

> <TS_ChemName>
Buprenorphine hydrochloride

> <TS_ChemName_Synonyms>


> <TS_CASRN>
53152-21-9

> <CASRN_ChemName_Relationship>
primary

> <TS_Description>
single chemical compound

> <ChemNote>


> <STRUCTURE_Shown>
tested chemical

> <STRUCTURE_Formula>
C29H42ClNO4

> <STRUCTURE_MW>
504.1011

> <STRUCTURE_ChemType>
defined organic

> <STRUCTURE_DefinedOrganicForm>
complex

> <STRUCTURE_IUPAC>
(5alpha,14beta,18R)-17-(cyclopropylmethyl)-18-[(2S)-2-hydroxy-3,3-dimethylbutan-2-yl]-6-methoxy-18,19-dihydro-4,5-epoxy-6,14-ethenomorphinan-3-ol hydrochloride (1:1)

> <STRUCTURE_SMILES>
Cl.CC(C)(C)[C@@](C)(O)[C@H]7C[C@]64CC[C@]7(OC)[C@@H]1Oc3c(O)ccc2C[C@H]6N(CC[C@]14c23)CC5CC5

> <STRUCTURE_SMILES_Desalt>
CC(C)(C)[C@@](C)(O)[C@H]7C[C@]64CC[C@]7(OC)[C@@H]1Oc3c(O)ccc2C[C@H]6N(CC[C@]14c23)CC5CC5

> <Substance_modify_yyyymmdd>
20111204

$$$$
