5315-79-7
ChemmineR-0915142007XD

 17 20  0  0  0  0  0  0  0  0  1 V2000
    2.3066   -3.9917    0.0000 C   0  0  0  0  0  0  0  0  0  0  0  0
    3.4599   -3.3165    0.0000 C   0  0  0  0  0  0  0  0  0  0  0  0
    4.6132   -3.9917    0.0000 C   0  0  0  0  0  0  0  0  0  0  0  0
    2.3066   -5.3183    0.0000 C   0  0  0  0  0  0  0  0  0  0  0  0
    3.4599   -1.9839    0.0000 C   0  0  0  0  0  0  0  0  0  0  0  0
    1.1533   -3.3165    0.0000 C   0  0  0  0  0  0  0  0  0  0  0  0
    3.4599   -5.9756    0.0000 C   0  0  0  0  0  0  0  0  0  0  0  0
    2.3066   -1.3326    0.0000 C   0  0  0  0  0  0  0  0  0  0  0  0
    1.1533   -1.9839    0.0000 C   0  0  0  0  0  0  0  0  0  0  0  0
    4.6132   -5.3183    0.0000 C   0  0  0  0  0  0  0  0  0  0  0  0
    5.7665   -1.9839    0.0000 C   0  0  0  0  0  0  0  0  0  0  0  0
    0.0000   -5.3183    0.0000 C   0  0  0  0  0  0  0  0  0  0  0  0
    1.1533   -5.9756    0.0000 C   0  0  0  0  0  0  0  0  0  0  0  0
    0.0000   -3.9917    0.0000 C   0  0  0  0  0  0  0  0  0  0  0  0
    5.7665   -3.3165    0.0000 C   0  0  0  0  0  0  0  0  0  0  0  0
    4.6132   -1.3326    0.0000 C   0  0  0  0  0  0  0  0  0  0  0  0
    4.6132    0.0000    0.0000 O   0  0  0  0  0  0  0  0  0  0  0  0
  1  2  2  0  0  0  0
  1  4  1  0  0  0  0
  1  6  1  0  0  0  0
  2  3  1  0  0  0  0
  2  5  1  0  0  0  0
  3 10  2  0  0  0  0
  3 15  1  0  0  0  0
  4  7  2  0  0  0  0
  4 13  1  0  0  0  0
  5  8  1  0  0  0  0
  5 16  2  0  0  0  0
  6  9  1  0  0  0  0
  6 14  2  0  0  0  0
  7 10  1  0  0  0  0
  8  9  2  0  0  0  0
 11 15  2  0  0  0  0
 11 16  1  0  0  0  0
 12 13  2  0  0  0  0
 12 14  1  0  0  0  0
 16 17  1  0  0  0  0
M  END
> <ID>
7437

> <Formula>
C16H10O

> <FW>
218.25

> <DSSTox_CID>
18298

> <DSSTox_RID>
79380

> <DSSTox_GSID>
38298

> <DSSTox_FileID_Sort>
4062

> <TS_ChemName>
1-Hydroxypyrene

> <TS_ChemName_Synonyms>


> <TS_CASRN>
5315-79-7

> <CASRN_ChemName_Relationship>
primary

> <TS_Description>
single chemical compound

> <ChemNote>


> <STRUCTURE_Shown>
tested chemical

> <STRUCTURE_Formula>
C16H10O

> <STRUCTURE_MW>
218.25

> <STRUCTURE_ChemType>
defined organic

> <STRUCTURE_DefinedOrganicForm>
parent

> <STRUCTURE_IUPAC>
pyren-1-ol

> <STRUCTURE_SMILES>
Oc4ccc1ccc2cccc3ccc4c1c23

> <STRUCTURE_SMILES_Desalt>
Oc4ccc1ccc2cccc3ccc4c1c23

> <Substance_modify_yyyymmdd>
20080429

$$$$
