53179-11-6
ChemmineR-0915142007XD

 34 37  0  0  0  0  0  0  0  0  1 V2000
    1.8226   -1.7059    0.0000 C    0  0  0  0  0  0  0  0  0  0  0  0
    3.1349   -1.4872    0.0000 N    0  0  0  0  0  0  0  0  0  0  0  0
    3.5869   -0.2333    0.0000 C    0  0  0  0  0  0  0  0  0  0  0  0
    3.9951   -2.4933    0.0000 C    0  0  0  0  0  0  0  0  0  0  0  0
    5.1470   -1.8226    0.0000 O    0  0  0  0  0  0  0  0  0  0  0  0
    3.9951   -3.8202    0.0000 C    0  0  0  0  0  0  0  0  0  0  0  0
    5.3220   -3.8202    0.0000 C    0  0  0  0  0  0  0  0  0  0  0  0
    5.9781   -2.6683    0.0000 C    0  0  0  0  0  0  0  0  0  0  0  0
    7.3195   -2.6683    0.0000 N    0  0  0  0  0  0  0  0  0  0  0  0
    7.9757   -1.5164    0.0000 C    0  0  0  0  0  0  0  0  0  0  0  0
    9.3025   -1.5164    0.0000 C    0  0  0  0  0  0  0  0  0  0  0  0
    9.9732   -2.6683    0.0000 C    0  0  0  0  0  0  0  0  0  0  0  0
   11.1251   -3.3390    0.0000 O    0  0  0  0  0  0  0  0  0  0  0  0
    9.3025   -3.8202    0.0000 C    0  0  0  0  0  0  0  0  0  0  0  0
    7.9757   -3.8202    0.0000 C    0  0  0  0  0  0  0  0  0  0  0  0
   11.1251   -2.0121    0.0000 C    0  0  0  0  0  0  0  0  0  0  0  0
   12.2916   -2.6683    0.0000 C    0  0  0  0  0  0  0  0  0  0  0  0
   13.4289   -2.0121    0.0000 C    0  0  0  0  0  0  0  0  0  0  0  0
   13.4289   -0.6853    0.0000 C    0  0  0  0  0  0  0  0  0  0  0  0
   14.5807    0.0000    0.0000 Cl   0  0  0  0  0  0  0  0  0  0  0  0
   12.2916    0.0000    0.0000 C    0  0  0  0  0  0  0  0  0  0  0  0
   11.1251   -0.6853    0.0000 C    0  0  0  0  0  0  0  0  0  0  0  0
    3.9951   -5.1324    0.0000 C    0  0  0  0  0  0  0  0  0  0  0  0
    5.1470   -5.7886    0.0000 C    0  0  0  0  0  0  0  0  0  0  0  0
    5.1470   -7.1300    0.0000 C    0  0  0  0  0  0  0  0  0  0  0  0
    3.9951   -7.8007    0.0000 C    0  0  0  0  0  0  0  0  0  0  0  0
    2.8432   -7.1300    0.0000 C    0  0  0  0  0  0  0  0  0  0  0  0
    2.8432   -5.7886    0.0000 C    0  0  0  0  0  0  0  0  0  0  0  0
    2.6683   -3.8202    0.0000 C    0  0  0  0  0  0  0  0  0  0  0  0
    2.0121   -2.6683    0.0000 C    0  0  0  0  0  0  0  0  0  0  0  0
    0.6707   -2.6683    0.0000 C    0  0  0  0  0  0  0  0  0  0  0  0
    0.0000   -3.8202    0.0000 C    0  0  0  0  0  0  0  0  0  0  0  0
    0.6707   -4.9575    0.0000 C    0  0  0  0  0  0  0  0  0  0  0  0
    2.0121   -4.9575    0.0000 C    0  0  0  0  0  0  0  0  0  0  0  0
  1  2  1  0  0  0  0
  2  3  1  0  0  0  0
  2  4  1  0  0  0  0
  4  5  2  0  0  0  0
  4  6  1  0  0  0  0
  6  7  1  0  0  0  0
  6 23  1  0  0  0  0
  6 29  1  0  0  0  0
  7  8  1  0  0  0  0
  8  9  1  0  0  0  0
  9 10  1  0  0  0  0
  9 15  1  0  0  0  0
 10 11  1  0  0  0  0
 11 12  1  0  0  0  0
 12 13  1  0  0  0  0
 12 14  1  0  0  0  0
 12 16  1  0  0  0  0
 14 15  1  0  0  0  0
 16 17  2  0  0  0  0
 16 22  1  0  0  0  0
 17 18  1  0  0  0  0
 18 19  2  0  0  0  0
 19 20  1  0  0  0  0
 19 21  1  0  0  0  0
 21 22  2  0  0  0  0
 23 24  2  0  0  0  0
 23 28  1  0  0  0  0
 24 25  1  0  0  0  0
 25 26  2  0  0  0  0
 26 27  1  0  0  0  0
 27 28  2  0  0  0  0
 29 30  2  0  0  0  0
 29 34  1  0  0  0  0
 30 31  1  0  0  0  0
 31 32  2  0  0  0  0
 32 33  1  0  0  0  0
 33 34  2  0  0  0  0
M  END
> <ID>
10784

> <Formula>
C29H33ClN2O2

> <FW>
477.0375

> <DSSTox_CID>
25165

> <DSSTox_RID>
80715

> <DSSTox_GSID>
45165

> <DSSTox_FileID_Sort>
5396

> <TS_ChemName>
Loperamide

> <TS_ChemName_Synonyms>


> <TS_CASRN>
53179-11-6

> <CASRN_ChemName_Relationship>
primary

> <TS_Description>
single chemical compound

> <ChemNote>


> <STRUCTURE_Shown>
tested chemical

> <STRUCTURE_Formula>
C29H33ClN2O2

> <STRUCTURE_MW>
477.0375

> <STRUCTURE_ChemType>
defined organic

> <STRUCTURE_DefinedOrganicForm>
parent

> <STRUCTURE_IUPAC>
4-[4-(4-chlorophenyl)-4-hydroxypiperidin-1-yl]-N,N-dimethyl-2,2-diphenylbutanamide

> <STRUCTURE_SMILES>
CN(C)C(=O)C(CCN1CCC(O)(CC1)c2ccc(Cl)cc2)(c3ccccc3)c4ccccc4

> <STRUCTURE_SMILES_Desalt>
CN(C)C(=O)C(CCN1CCC(O)(CC1)c2ccc(Cl)cc2)(c3ccccc3)c4ccccc4

> <Substance_modify_yyyymmdd>
20100107

$$$$
