53179-07-0
ChemmineR-0915142007XD

 20 21  0  0  0  0  0  0  0  0  1 V2000
    4.6119   -0.6381    0.0000 C   0  0  0  0  0  0  0  0  0  0  0  0
    4.6119   -1.9708    0.0000 C   0  0  0  0  0  0  0  0  0  0  0  0
    5.7669   -2.6412    0.0000 C   0  0  0  0  0  0  0  0  0  0  0  0
    6.9219   -1.9708    0.0000 C   0  0  0  0  0  0  0  0  0  0  0  0
    6.9219   -0.6381    0.0000 C   0  0  0  0  0  0  0  0  0  0  0  0
    5.7669    0.0000    0.0000 C   0  0  0  0  0  0  0  0  0  0  0  0
    3.4650    0.0000    0.0000 O   0  0  0  0  0  0  0  0  0  0  0  0
    2.3100   -0.6381    0.0000 C   0  0  0  0  0  0  0  0  0  0  0  0
    3.4650   -2.6412    0.0000 O   0  0  0  0  0  0  0  0  0  0  0  0
    3.4650   -3.9739    0.0000 C   0  0  0  0  0  0  0  0  0  0  0  0
    4.6119   -4.6442    0.0000 C   0  0  0  0  0  0  0  0  0  0  0  0
    5.7669   -3.9739    0.0000 C   0  0  0  0  0  0  0  0  0  0  0  0
    6.9219   -4.6442    0.0000 N   0  0  0  0  0  0  0  0  0  0  0  0
    8.0769   -3.9739    0.0000 C   0  0  0  0  0  0  0  0  0  0  0  0
    2.3100   -4.6442    0.0000 C   0  0  0  0  0  0  0  0  0  0  0  0
    1.1550   -3.9739    0.0000 C   0  0  0  0  0  0  0  0  0  0  0  0
    0.0000   -4.6442    0.0000 C   0  0  0  0  0  0  0  0  0  0  0  0
    0.0000   -5.9769    0.0000 C   0  0  0  0  0  0  0  0  0  0  0  0
    1.1550   -6.6312    0.0000 C   0  0  0  0  0  0  0  0  0  0  0  0
    2.3100   -5.9769    0.0000 C   0  0  0  0  0  0  0  0  0  0  0  0
  1  2  1  0  0  0  0
  1  6  2  0  0  0  0
  1  7  1  0  0  0  0
  2  9  1  0  0  0  0
  2  3  2  0  0  0  0
  3  4  1  0  0  0  0
  4  5  2  0  0  0  0
  5  6  1  0  0  0  0
  7  8  1  0  0  0  0
  9 10  1  0  0  0  0
 10 15  1  0  0  0  0
 10 11  1  0  0  0  0
 11 12  1  0  0  0  0
 12 13  1  0  0  0  0
 13 14  1  0  0  0  0
 15 20  1  0  0  0  0
 15 16  2  0  0  0  0
 16 17  1  0  0  0  0
 17 18  2  0  0  0  0
 18 19  1  0  0  0  0
 19 20  2  0  0  0  0
M  END
> <ID>
10794

> <Formula>
C17H21NO2

> <FW>
271.3541

> <DSSTox_CID>
25175

> <DSSTox_RID>
80724

> <DSSTox_GSID>
45175

> <DSSTox_FileID_Sort>
5405

> <TS_ChemName>
Nisoxetine

> <TS_ChemName_Synonyms>


> <TS_CASRN>
53179-07-0

> <CASRN_ChemName_Relationship>
primary

> <TS_Description>
single chemical compound

> <ChemNote>


> <STRUCTURE_Shown>
tested chemical

> <STRUCTURE_Formula>
C17H21NO2

> <STRUCTURE_MW>
271.3541

> <STRUCTURE_ChemType>
defined organic

> <STRUCTURE_DefinedOrganicForm>
parent

> <STRUCTURE_IUPAC>
3-(2-methoxyphenoxy)-N-methyl-3-phenylpropan-1-amine

> <STRUCTURE_SMILES>
COc2ccccc2OC(CCNC)c1ccccc1

> <STRUCTURE_SMILES_Desalt>
COc2ccccc2OC(CCNC)c1ccccc1

> <Substance_modify_yyyymmdd>
20100107

$$$$
