53179-13-8
ChemmineR-0915142007XD

 14 15  0  0  0  0  0  0  0  0  1 V2000
    2.6577   -2.3056    0.0000 N   0  0  0  0  0  0  0  0  0  0  0  0
    3.9866   -2.3056    0.0000 C   0  0  0  0  0  0  0  0  0  0  0  0
    1.9866   -3.4617    0.0000 C   0  0  0  0  0  0  0  0  0  0  0  0
    1.9866   -1.1561    0.0000 C   0  0  0  0  0  0  0  0  0  0  0  0
    4.6444   -1.1561    0.0000 C   0  0  0  0  0  0  0  0  0  0  0  0
    4.6444   -3.4617    0.0000 C   0  0  0  0  0  0  0  0  0  0  0  0
    0.6578   -3.4617    0.0000 C   0  0  0  0  0  0  0  0  0  0  0  0
    2.6577   -4.6111    0.0000 O   0  0  0  0  0  0  0  0  0  0  0  0
    0.6578   -1.1561    0.0000 C   0  0  0  0  0  0  0  0  0  0  0  0
    5.9732   -1.1561    0.0000 C   0  0  0  0  0  0  0  0  0  0  0  0
    5.9732   -3.4617    0.0000 C   0  0  0  0  0  0  0  0  0  0  0  0
    0.0000   -2.3056    0.0000 C   0  0  0  0  0  0  0  0  0  0  0  0
    0.0000    0.0000    0.0000 C   0  0  0  0  0  0  0  0  0  0  0  0
    6.6443   -2.3056    0.0000 C   0  0  0  0  0  0  0  0  0  0  0  0
  1  2  1  0  0  0  0
  1  3  1  0  0  0  0
  1  4  1  0  0  0  0
  2  5  2  0  0  0  0
  2  6  1  0  0  0  0
  3  7  1  0  0  0  0
  3  8  2  0  0  0  0
  4  9  2  0  0  0  0
  5 10  1  0  0  0  0
  6 11  2  0  0  0  0
  7 12  2  0  0  0  0
  9 13  1  0  0  0  0
  9 12  1  0  0  0  0
 10 14  2  0  0  0  0
 11 14  1  0  0  0  0
M  END
> <ID>
10801

> <Formula>
C12H11NO

> <FW>
185.2218

> <DSSTox_CID>
25183

> <DSSTox_RID>
80731

> <DSSTox_GSID>
45183

> <DSSTox_FileID_Sort>
5412

> <TS_ChemName>
Pirfenidone

> <TS_ChemName_Synonyms>


> <TS_CASRN>
53179-13-8

> <CASRN_ChemName_Relationship>
primary

> <TS_Description>
single chemical compound

> <ChemNote>


> <STRUCTURE_Shown>
tested chemical

> <STRUCTURE_Formula>
C12H11NO

> <STRUCTURE_MW>
185.2218

> <STRUCTURE_ChemType>
defined organic

> <STRUCTURE_DefinedOrganicForm>
parent

> <STRUCTURE_IUPAC>
5-methyl-1-phenylpyridin-2(1H)-one

> <STRUCTURE_SMILES>
CC2=CN(c1ccccc1)C(=O)C=C2

> <STRUCTURE_SMILES_Desalt>
CC2=CN(c1ccccc1)C(=O)C=C2

> <Substance_modify_yyyymmdd>
20100107

$$$$
