53179-09-2
ChemmineR-0915142007XD

 87 86  0  0  1  0  0  0  0  0  1 V2000
   25.8519   -2.0732    0.0000 C   0  0  0  0  0  0  0  0  0  0  0  0
   27.0141   -2.7642    0.0000 C   0  0  0  0  0  0  0  0  0  0  0  0
   24.7210   -2.7642    0.0000 O   0  0  0  0  0  0  0  0  0  0  0  0
   27.0141   -4.0835    0.0000 C   0  0  0  0  0  0  0  0  0  0  0  0
   24.7210   -4.0835    0.0000 C   0  0  0  0  0  0  0  0  0  0  0  0
   25.8519   -4.7118    0.0000 C   0  0  0  0  0  0  0  0  0  0  0  0
   25.8519   -6.0625    0.0000 O   0  0  0  0  0  0  0  0  0  0  0  0
   23.5902   -4.7118    0.0000 O   0  0  0  0  0  0  0  0  0  0  0  0
   28.1135   -4.7118    0.0000 N   0  0  0  0  0  0  0  0  0  0  0  0
   28.1135   -6.0625    0.0000 C   0  0  0  0  0  0  0  0  0  0  0  0
   27.6423   -1.6020    0.0000 O   0  0  0  0  0  0  0  0  0  0  0  0
   28.3020   -2.7642    0.0000 C   0  0  0  0  0  0  0  0  0  0  0  0
   19.0041   -4.7118    0.0000 O   0  0  0  0  0  0  0  0  0  0  0  0
   17.8419   -4.0835    0.0000 C   0  0  0  0  0  0  0  0  0  0  0  0
   17.8419   -2.7014    0.0000 O   0  0  0  0  0  0  0  0  0  0  0  0
   16.6796   -2.0418    0.0000 C   0  0  0  0  0  0  0  0  0  0  0  0
   15.4860   -2.7014    0.0000 C   0  0  0  0  0  0  0  0  0  0  0  0
   16.6796   -4.7118    0.0000 C   0  0  0  0  0  0  0  0  0  0  0  0
   15.4860   -4.0835    0.0000 C   0  0  0  0  0  0  0  0  0  0  0  0
   16.6796   -6.0939    0.0000 N   0  0  0  0  0  0  0  0  0  0  0  0
   17.8419    0.0000    0.0000 N   0  0  0  0  0  0  0  0  0  0  0  0
   16.6796   -0.6911    0.0000 C   0  0  0  0  0  0  0  0  0  0  0  0
   21.2972   -2.0732    0.0000 C   0  0  0  0  0  0  0  0  0  0  0  0
   22.4280   -2.7642    0.0000 C   0  0  0  0  0  0  0  0  0  0  0  0
   20.1663   -2.7642    0.0000 C   0  0  0  0  0  0  0  0  0  0  0  0
   22.4280   -4.0835    0.0000 C   0  0  0  0  0  0  0  0  0  0  0  0
   20.1663   -4.0835    0.0000 C   0  0  0  0  0  0  0  0  0  0  0  0
   21.2972   -4.7118    0.0000 C   0  0  0  0  0  0  0  0  0  0  0  0
   21.2972   -6.0625    0.0000 O   0  0  0  0  0  0  0  0  0  0  0  0
   19.0041   -2.0732    0.0000 N   0  0  0  0  0  0  0  0  0  0  0  0
   23.5902   -2.0732    0.0000 N   0  0  0  0  0  0  0  0  0  0  0  0
   10.3659   -5.4971    0.0000 C   0  0  0  0  0  0  0  0  0  0  0  0
   11.5281   -6.1567    0.0000 C   0  0  0  0  0  0  0  0  0  0  0  0
    9.2036   -6.1881    0.0000 O   0  0  0  0  0  0  0  0  0  0  0  0
   11.5281   -7.5074    0.0000 C   0  0  0  0  0  0  0  0  0  0  0  0
    9.2036   -7.5074    0.0000 C   0  0  0  0  0  0  0  0  0  0  0  0
   10.3659   -8.1042    0.0000 C   0  0  0  0  0  0  0  0  0  0  0  0
   10.3659   -9.4549    0.0000 O   0  0  0  0  0  0  0  0  0  0  0  0
    8.0728   -8.1042    0.0000 O   0  0  0  0  0  0  0  0  0  0  0  0
   12.6275   -8.1042    0.0000 N   0  0  0  0  0  0  0  0  0  0  0  0
   12.6275   -9.4549    0.0000 C   0  0  0  0  0  0  0  0  0  0  0  0
   12.1563   -5.0259    0.0000 O   0  0  0  0  0  0  0  0  0  0  0  0
   12.8160   -6.1567    0.0000 C   0  0  0  0  0  0  0  0  0  0  0  0
    3.5181   -8.1042    0.0000 O   0  0  0  0  0  0  0  0  0  0  0  0
    2.3559   -7.4760    0.0000 C   0  0  0  0  0  0  0  0  0  0  0  0
    2.3559   -6.1253    0.0000 O   0  0  0  0  0  0  0  0  0  0  0  0
    1.1622   -5.4656    0.0000 C   0  0  0  0  0  0  0  0  0  0  0  0
    0.0000   -6.1253    0.0000 C   0  0  0  0  0  0  0  0  0  0  0  0
    1.1622   -8.1042    0.0000 C   0  0  0  0  0  0  0  0  0  0  0  0
    0.0000   -7.4760    0.0000 C   0  0  0  0  0  0  0  0  0  0  0  0
    1.1622   -9.4863    0.0000 N   0  0  0  0  0  0  0  0  0  0  0  0
    2.3559   -3.4239    0.0000 N   0  0  0  0  0  0  0  0  0  0  0  0
    1.1622   -4.0835    0.0000 C   0  0  0  0  0  0  0  0  0  0  0  0
    5.8112   -5.4971    0.0000 C   0  0  0  0  0  0  0  0  0  0  0  0
    6.9420   -6.1881    0.0000 C   0  0  0  0  0  0  0  0  0  0  0  0
    4.6803   -6.1881    0.0000 C   0  0  0  0  0  0  0  0  0  0  0  0
    6.9420   -7.5074    0.0000 C   0  0  0  0  0  0  0  0  0  0  0  0
    4.6803   -7.5074    0.0000 C   0  0  0  0  0  0  0  0  0  0  0  0
    5.8112   -8.1042    0.0000 C   0  0  0  0  0  0  0  0  0  0  0  0
    5.8112   -9.4549    0.0000 O   0  0  0  0  0  0  0  0  0  0  0  0
    3.5181   -5.4971    0.0000 N   0  0  0  0  0  0  0  0  0  0  0  0
    8.0728   -5.4971    0.0000 N   0  0  0  0  0  0  0  0  0  0  0  0
   19.2240   -8.0414    0.0000 S   0  0  0  0  0  0  0  0  0  0  0  0
   20.5747   -8.0414    0.0000 O   0  0  0  0  0  0  0  0  0  0  0  0
   17.9047   -8.0414    0.0000 O   0  0  0  0  0  0  0  0  0  0  0  0
   19.2240   -9.3607    0.0000 O   0  0  0  0  0  0  0  0  0  0  0  0
   19.2240   -6.6907    0.0000 O   0  0  0  0  0  0  0  0  0  0  0  0
   24.8153   -8.2613    0.0000 S   0  0  0  0  0  0  0  0  0  0  0  0
   26.1346   -8.2613    0.0000 O   0  0  0  0  0  0  0  0  0  0  0  0
   23.4646   -8.2613    0.0000 O   0  0  0  0  0  0  0  0  0  0  0  0
   24.8153   -9.5806    0.0000 O   0  0  0  0  0  0  0  0  0  0  0  0
   24.8153   -6.9106    0.0000 O   0  0  0  0  0  0  0  0  0  0  0  0
   30.0924   -8.0414    0.0000 S   0  0  0  0  0  0  0  0  0  0  0  0
   31.4117   -8.0414    0.0000 O   0  0  0  0  0  0  0  0  0  0  0  0
   28.7417   -8.0414    0.0000 O   0  0  0  0  0  0  0  0  0  0  0  0
   30.0924   -9.3607    0.0000 O   0  0  0  0  0  0  0  0  0  0  0  0
   30.0924   -6.6907    0.0000 O   0  0  0  0  0  0  0  0  0  0  0  0
    7.2561   -2.8271    0.0000 S   0  0  0  0  0  0  0  0  0  0  0  0
    8.5754   -2.8271    0.0000 O   0  0  0  0  0  0  0  0  0  0  0  0
    5.9054   -2.8271    0.0000 O   0  0  0  0  0  0  0  0  0  0  0  0
    7.2561   -4.1463    0.0000 O   0  0  0  0  0  0  0  0  0  0  0  0
    7.2561   -1.4764    0.0000 O   0  0  0  0  0  0  0  0  0  0  0  0
   11.7166   -2.7328    0.0000 S   0  0  0  0  0  0  0  0  0  0  0  0
   13.0359   -2.7328    0.0000 O   0  0  0  0  0  0  0  0  0  0  0  0
   10.3659   -2.7328    0.0000 O   0  0  0  0  0  0  0  0  0  0  0  0
   11.7166   -4.0521    0.0000 O   0  0  0  0  0  0  0  0  0  0  0  0
   11.7166   -1.3821    0.0000 O   0  0  0  0  0  0  0  0  0  0  0  0
  1  2  1  0  0  0  0
  1  3  1  0  0  0  0
  2  4  1  0  0  0  0
  2 11  1  6  0  0  0
  2 12  1  0  0  0  0
  3  5  1  0  0  0  0
  4  6  1  0  0  0  0
  4  9  1  6  0  0  0
  5  6  1  0  0  0  0
  5  8  1  1  0  0  0
  6  7  1  1  0  0  0
 26  8  1  6  0  0  0
  9 10  1  0  0  0  0
 13 14  1  0  0  0  0
 27 13  1  6  0  0  0
 14 15  1  0  0  0  0
 14 18  1  0  0  0  0
 15 16  1  0  0  0  0
 16 22  1  0  0  0  0
 16 17  2  0  0  0  0
 17 19  1  0  0  0  0
 18 19  1  0  0  0  0
 18 20  1  0  0  0  0
 21 22  1  0  0  0  0
 23 24  1  0  0  0  0
 23 25  1  0  0  0  0
 24 26  1  0  0  0  0
 24 31  1  1  0  0  0
 25 27  1  0  0  0  0
 25 30  1  1  0  0  0
 26 28  1  0  0  0  0
 27 28  1  0  0  0  0
 28 29  1  1  0  0  0
 32 33  1  0  0  0  0
 32 34  1  0  0  0  0
 33 35  1  0  0  0  0
 33 42  1  6  0  0  0
 33 43  1  0  0  0  0
 34 36  1  0  0  0  0
 35 37  1  0  0  0  0
 35 40  1  6  0  0  0
 36 37  1  0  0  0  0
 36 39  1  1  0  0  0
 37 38  1  1  0  0  0
 57 39  1  6  0  0  0
 40 41  1  0  0  0  0
 44 45  1  0  0  0  0
 58 44  1  6  0  0  0
 45 46  1  0  0  0  0
 45 49  1  0  0  0  0
 46 47  1  0  0  0  0
 47 53  1  0  0  0  0
 47 48  2  0  0  0  0
 48 50  1  0  0  0  0
 49 50  1  0  0  0  0
 49 51  1  0  0  0  0
 52 53  1  0  0  0  0
 54 55  1  0  0  0  0
 54 56  1  0  0  0  0
 55 57  1  0  0  0  0
 55 62  1  1  0  0  0
 56 58  1  0  0  0  0
 56 61  1  1  0  0  0
 57 59  1  0  0  0  0
 58 59  1  0  0  0  0
 59 60  1  1  0  0  0
 63 64  2  0  0  0  0
 63 65  2  0  0  0  0
 63 66  1  0  0  0  0
 63 67  1  0  0  0  0
 68 69  2  0  0  0  0
 68 70  2  0  0  0  0
 68 71  1  0  0  0  0
 68 72  1  0  0  0  0
 73 74  2  0  0  0  0
 73 75  2  0  0  0  0
 73 76  1  0  0  0  0
 73 77  1  0  0  0  0
 78 79  2  0  0  0  0
 78 80  2  0  0  0  0
 78 81  1  0  0  0  0
 78 82  1  0  0  0  0
 83 84  2  0  0  0  0
 83 85  2  0  0  0  0
 83 86  1  0  0  0  0
 83 87  1  0  0  0  0
M  END
> <ID>
10973

> <Formula>
C38H84N10O34S5

> <FW>
1385.4452 (447.5264+447.5264+98.0785+98.0785+98.0785+98.0785+98.0785)

> <DSSTox_CID>
25479

> <DSSTox_RID>
80905

> <DSSTox_GSID>
45479

> <DSSTox_FileID_Sort>
5586

> <TS_ChemName>
Sisomicin sulfate

> <TS_ChemName_Synonyms>


> <TS_CASRN>
53179-09-2

> <CASRN_ChemName_Relationship>
primary

> <TS_Description>
single chemical compound

> <ChemNote>
stereochem; parent [32385-11-8]

> <STRUCTURE_Shown>
tested chemical

> <STRUCTURE_Formula>
C38H84N10O34S5

> <STRUCTURE_MW>
1385.4452

> <STRUCTURE_ChemType>
defined organic

> <STRUCTURE_DefinedOrganicForm>
complex

> <STRUCTURE_IUPAC>
(1S,2S,3R,4S,6R)-4,6-diamino-3-{[3-amino-6-(aminomethyl)-3,4-dihydro-2H-pyran-2-yl]oxy}-2-hydroxycyclohexyl 3-deoxy-4-C-methyl-3-(methylamino)-beta-L-arabinopyranoside sulfate (2:5)

> <STRUCTURE_SMILES>
O=S(=O)(O)O.O=S(=O)(O)O.O=S(=O)(O)O.O=S(=O)(O)O.O=S(=O)(O)O.NC3CC=C(CN)OC3O[C@@H]2[C@@H](N)C[C@@H](N)[C@H](O[C@H]1OC[C@](C)(O)[C@H](NC)[C@H]1O)[C@H]2O.NC3CC=C(CN)OC3O[C@H]2[C@H](O)[C@@H](O[C@H]1OC[C@](C)(O)[C@H](NC)[C@H]1O)[C@H](N)C[C@@H]2N

> <STRUCTURE_SMILES_Desalt>
NC3CC=C(CN)OC3O[C@H]2[C@H](O)[C@@H](O[C@H]1OC[C@](C)(O)[C@H](NC)[C@H]1O)[C@H](N)C[C@@H]2N

> <Substance_modify_yyyymmdd>
20100107

$$$$
