532-02-5
ChemmineR-0915142007XD

 15 15  0  0  0  0  0  0  0  0  2 V2000
    2.3049   -1.8117    0.0000 C    0  0  0  0  0  0  0  0  0  0  0  0
    2.3049   -3.1396    0.0000 C    0  0  0  0  0  0  0  0  0  0  0  0
    1.1382   -1.1572    0.0000 C    0  0  0  0  0  0  0  0  0  0  0  0
    1.1382   -3.8130    0.0000 C    0  0  0  0  0  0  0  0  0  0  0  0
    3.4146   -3.8130    0.0000 C    0  0  0  0  0  0  0  0  0  0  0  0
    3.4146   -1.1572    0.0000 C    0  0  0  0  0  0  0  0  0  0  0  0
    4.5813   -1.8117    0.0000 C    0  0  0  0  0  0  0  0  0  0  0  0
    4.5813   -3.1396    0.0000 C    0  0  0  0  0  0  0  0  0  0  0  0
    0.0000   -3.1396    0.0000 C    0  0  0  0  0  0  0  0  0  0  0  0
    0.0000   -1.8117    0.0000 C    0  0  0  0  0  0  0  0  0  0  0  0
    5.7195   -1.1572    0.0000 S    0  0  0  0  0  0  0  0  0  0  0  0
    6.4594   -2.4187    0.0000 O    0  0  0  0  0  0  0  0  0  0  0  0
    6.8293   -0.5122    0.0000 O    0  5  0  0  0  0  0  0  0  0  0  0
    5.0935    0.0000    0.0000 O    0  0  0  0  0  0  0  0  0  0  0  0
    9.4851   -1.9065    0.0000 Na   0  3  0  0  0  0  0  0  0  0  0  0
  1  2  2  0  0  0  0
  1  3  1  0  0  0  0
  1  6  1  0  0  0  0
  2  4  1  0  0  0  0
  2  5  1  0  0  0  0
  3 10  2  0  0  0  0
  4  9  2  0  0  0  0
  5  8  2  0  0  0  0
  6  7  2  0  0  0  0
  7  8  1  0  0  0  0
  7 11  1  0  0  0  0
  9 10  1  0  0  0  0
 11 12  2  0  0  0  0
 11 13  1  0  0  0  0
 11 14  2  0  0  0  0
M  END
> <ID>
8408

> <Formula>
C10H7NaO3S

> <FW>
230.2155 (207.2263+22.9892)

> <DSSTox_CID>
21442

> <DSSTox_RID>
79737

> <DSSTox_GSID>
41442

> <DSSTox_FileID_Sort>
4419

> <TS_ChemName>
Sodium 2-naphthalenesulfonate

> <TS_ChemName_Synonyms>


> <TS_CASRN>
532-02-5

> <CASRN_ChemName_Relationship>
primary

> <TS_Description>
single chemical compound

> <ChemNote>
parent [120-18-3]

> <STRUCTURE_Shown>
tested chemical

> <STRUCTURE_Formula>
C10H7NaO3S

> <STRUCTURE_MW>
230.2155

> <STRUCTURE_ChemType>
defined organic

> <STRUCTURE_DefinedOrganicForm>
salt

> <STRUCTURE_IUPAC>
sodium naphthalene-2-sulfonate

> <STRUCTURE_SMILES>
[Na+].[O-]S(=O)(=O)c1ccc2ccccc2c1

> <STRUCTURE_SMILES_Desalt>
O=S(=O)(O)c1ccc2ccccc2c1

> <Substance_modify_yyyymmdd>
20080825

$$$$
