532-40-1
ChemmineR-0915142007XD

 23 23  0  0  0  0  0  0  0  0  2 V2000
    5.5970   -2.4026    0.0000 N    0  3  0  0  0  0  0  0  0  0  0  0
   12.2947   -1.1006    0.0000 P    0  0  0  0  0  0  0  0  0  0  0  0
   13.4221   -1.7315    0.0000 O    0  0  0  0  0  0  0  0  0  0  0  0
    7.8251   -2.4026    0.0000 C    0  0  0  0  0  0  0  0  0  0  0  0
    5.5970   -1.1140    0.0000 C    0  0  0  0  0  0  0  0  0  0  0  0
    2.2549   -0.4698    0.0000 N    0  0  0  0  0  0  0  0  0  0  0  0
    3.3555   -2.4026    0.0000 C    0  0  0  0  0  0  0  0  0  0  0  0
    3.3555   -1.1140    0.0000 C    0  0  0  0  0  0  0  0  0  0  0  0
    6.6976   -0.4698    0.0000 S    0  0  0  0  0  0  0  0  0  0  0  0
    4.4696   -3.0200    0.0000 C    0  0  0  0  0  0  0  0  0  0  0  0
    7.8251   -1.1140    0.0000 C    0  0  0  0  0  0  0  0  0  0  0  0
    1.1006   -2.4026    0.0000 N    0  0  0  0  0  0  0  0  0  0  0  0
    1.1006   -1.1140    0.0000 C    0  0  0  0  0  0  0  0  0  0  0  0
    2.2549   -3.0200    0.0000 C    0  0  0  0  0  0  0  0  0  0  0  0
   12.9524    0.0000    0.0000 O    0  0  0  0  0  0  0  0  0  0  0  0
   11.1806   -0.4564    0.0000 O    0  0  0  0  0  0  0  0  0  0  0  0
   11.6370   -2.2147    0.0000 O    0  0  0  0  0  0  0  0  0  0  0  0
    4.4696   -0.4698    0.0000 N    0  0  0  0  0  0  0  0  0  0  0  0
    8.9660   -0.4564    0.0000 C    0  0  0  0  0  0  0  0  0  0  0  0
   10.0666   -1.1006    0.0000 C    0  0  0  0  0  0  0  0  0  0  0  0
    8.9660   -3.0334    0.0000 C    0  0  0  0  0  0  0  0  0  0  0  0
    0.0000   -0.4564    0.0000 C    0  0  0  0  0  0  0  0  0  0  0  0
    5.5568   -4.2817    0.0000 Cl   0  5  0  0  0  0  0  0  0  0  0  0
  1  4  1  0  0  0  0
  1  5  2  0  0  0  0
  1 10  1  0  0  0  0
  2 16  1  0  0  0  0
  2  3  1  0  0  0  0
  2 15  2  0  0  0  0
  2 17  1  0  0  0  0
  4 11  2  0  0  0  0
  4 21  1  0  0  0  0
  5  9  1  0  0  0  0
  6  8  2  0  0  0  0
  6 13  1  0  0  0  0
  7 10  1  0  0  0  0
  7  8  1  0  0  0  0
  7 14  2  0  0  0  0
  8 18  1  0  0  0  0
  9 11  1  0  0  0  0
 11 19  1  0  0  0  0
 12 14  1  0  0  0  0
 12 13  2  0  0  0  0
 13 22  1  0  0  0  0
 16 20  1  0  0  0  0
 19 20  1  0  0  0  0
M  END
> <ID>
11644

> <Formula>
C12H18ClN4O4PS

> <FW>
380.7875 (345.3339+35.4535)

> <DSSTox_CID>
26397

> <DSSTox_RID>
81577

> <DSSTox_GSID>
46397

> <DSSTox_FileID_Sort>
6258

> <TS_ChemName>
Monophosphothiamine

> <TS_ChemName_Synonyms>


> <TS_CASRN>
532-40-1

> <CASRN_ChemName_Relationship>
primary

> <TS_Description>
single chemical compound

> <ChemNote>
ammonium; parent [10023-48-0]

> <STRUCTURE_Shown>
tested chemical

> <STRUCTURE_Formula>
C12H18ClN4O4PS

> <STRUCTURE_MW>
380.7875

> <STRUCTURE_ChemType>
defined organic

> <STRUCTURE_DefinedOrganicForm>
salt

> <STRUCTURE_IUPAC>
3-[(4-amino-2-methylpyrimidin-5-yl)methyl]-4-methyl-5-[2-(phosphonooxy)ethyl]-1,3-thiazol-3-ium chloride

> <STRUCTURE_SMILES>
[Cl-].O=P(O)(O)OCCc2sc[n+](Cc1cnc(C)nc1N)c2C

> <STRUCTURE_SMILES_Desalt>
O=P(O)(O)OCCc2sc[n+](Cc1cnc(C)nc1N)c2C

> <Substance_modify_yyyymmdd>
20110814

$$$$
