532-28-5
ChemmineR-0915142007XD

 10 10  0  0  0  0  0  0  0  0  1 V2000
    3.9894   -2.3032    0.0000 C   0  0  0  0  0  0  0  0  0  0  0  0
    4.6543   -3.4575    0.0000 O   0  0  0  0  0  0  0  0  0  0  0  0
    4.6543   -1.1543    0.0000 C   0  0  0  0  0  0  0  0  0  0  0  0
    5.3192    0.0000    0.0000 N   0  0  0  0  0  0  0  0  0  0  0  0
    2.6596   -2.3032    0.0000 C   0  0  0  0  0  0  0  0  0  0  0  0
    1.9947   -3.4575    0.0000 C   0  0  0  0  0  0  0  0  0  0  0  0
    0.6649   -3.4575    0.0000 C   0  0  0  0  0  0  0  0  0  0  0  0
    0.0000   -2.3032    0.0000 C   0  0  0  0  0  0  0  0  0  0  0  0
    0.6649   -1.1543    0.0000 C   0  0  0  0  0  0  0  0  0  0  0  0
    1.9947   -1.1543    0.0000 C   0  0  0  0  0  0  0  0  0  0  0  0
  1  2  1  0  0  0  0
  1  3  1  0  0  0  0
  1  5  1  0  0  0  0
  3  4  3  0  0  0  0
  5  6  2  0  0  0  0
  5 10  1  0  0  0  0
  6  7  1  0  0  0  0
  7  8  2  0  0  0  0
  8  9  1  0  0  0  0
  9 10  2  0  0  0  0
M  END
> <ID>
4185

> <Formula>
C8H7NO

> <FW>
133.1473

> <DSSTox_CID>
5422

> <DSSTox_RID>
77778

> <DSSTox_GSID>
25422

> <DSSTox_FileID_Sort>
2461

> <TS_ChemName>
alpha-Hydroxybenzeneacetonitrile

> <TS_ChemName_Synonyms>


> <TS_CASRN>
532-28-5

> <CASRN_ChemName_Relationship>
primary

> <TS_Description>
single chemical compound

> <ChemNote>


> <STRUCTURE_Shown>
tested chemical

> <STRUCTURE_Formula>
C8H7NO

> <STRUCTURE_MW>
133.1473

> <STRUCTURE_ChemType>
defined organic

> <STRUCTURE_DefinedOrganicForm>
parent

> <STRUCTURE_IUPAC>
hydroxy(phenyl)acetonitrile

> <STRUCTURE_SMILES>
OC(C#N)c1ccccc1

> <STRUCTURE_SMILES_Desalt>
OC(C#N)c1ccccc1

> <Substance_modify_yyyymmdd>
20080429

$$$$
