532-82-1
ChemmineR-0915142007XD

 17 17  0  0  0  0  0  0  0  0  1 V2000
    3.9878   -6.9114    0.0000 N    0  0  0  0  0  0  0  0  0  0  0  0
    3.3244   -5.7572    0.0000 C    0  0  0  0  0  0  0  0  0  0  0  0
    1.9974   -5.7572    0.0000 C    0  0  0  0  0  0  0  0  0  0  0  0
    1.3270   -4.6099    0.0000 C    0  0  0  0  0  0  0  0  0  0  0  0
    0.0000   -4.6099    0.0000 N    0  0  0  0  0  0  0  0  0  0  0  0
    1.9974   -3.4557    0.0000 C    0  0  0  0  0  0  0  0  0  0  0  0
    3.3244   -3.4557    0.0000 C    0  0  0  0  0  0  0  0  0  0  0  0
    3.9878   -4.6099    0.0000 C    0  0  0  0  0  0  0  0  0  0  0  0
    5.3217   -4.6099    0.0000 N    0  0  0  0  0  0  0  0  0  0  0  0
    5.9852   -3.4557    0.0000 N    0  0  0  0  0  0  0  0  0  0  0  0
    5.3217   -2.3015    0.0000 C    0  0  0  0  0  0  0  0  0  0  0  0
    3.9878   -2.3015    0.0000 C    0  0  0  0  0  0  0  0  0  0  0  0
    3.3244   -1.1542    0.0000 C    0  0  0  0  0  0  0  0  0  0  0  0
    3.9878    0.0000    0.0000 C    0  0  0  0  0  0  0  0  0  0  0  0
    5.3217    0.0000    0.0000 C    0  0  0  0  0  0  0  0  0  0  0  0
    5.9852   -1.1542    0.0000 C    0  0  0  0  0  0  0  0  0  0  0  0
    1.3270   -1.7762    0.0000 Cl   0  0  0  0  0  0  0  0  0  0  0  0
  1  2  1  0  0  0  0
  2  3  2  0  0  0  0
  2  8  1  0  0  0  0
  3  4  1  0  0  0  0
  4  5  1  0  0  0  0
  4  6  2  0  0  0  0
  6  7  1  0  0  0  0
  7  8  2  0  0  0  0
  8  9  1  0  0  0  0
  9 10  2  0  0  0  0
 10 11  1  0  0  0  0
 11 12  2  0  0  0  0
 11 16  1  0  0  0  0
 12 13  1  0  0  0  0
 13 14  2  0  0  0  0
 14 15  1  0  0  0  0
 15 16  2  0  0  0  0
M  END
> <ID>
3742

> <Formula>
C12H13ClN4

> <FW>
248.7114 (212.2505+36.4609)

> <DSSTox_CID>
4559

> <DSSTox_RID>
77452

> <DSSTox_GSID>
24559

> <DSSTox_FileID_Sort>
2135

> <TS_ChemName>
C.I. Basic orange 2

> <TS_ChemName_Synonyms>


> <TS_CASRN>
532-82-1

> <CASRN_ChemName_Relationship>
primary

> <TS_Description>
single chemical compound

> <ChemNote>
C.I. 11270; parent [495-54-5]

> <STRUCTURE_Shown>
tested chemical

> <STRUCTURE_Formula>
C12H13ClN4

> <STRUCTURE_MW>
248.7114

> <STRUCTURE_ChemType>
defined organic

> <STRUCTURE_DefinedOrganicForm>
complex

> <STRUCTURE_IUPAC>
4-[(Z)-phenyldiazenyl]benzene-1,3-diamine hydrochloride (1:1)

> <STRUCTURE_SMILES>
Cl.Nc2ccc(\N=N/c1ccccc1)c(N)c2

> <STRUCTURE_SMILES_Desalt>
Nc2ccc(\N=N/c1ccccc1)c(N)c2

> <Substance_modify_yyyymmdd>
20080429

$$$$
