532-32-1
ChemmineR-0915142007XD

 10  9  0  0  0  0  0  0  0  0  2 V2000
    1.9965   -1.1542    0.0000 C    0  0  0  0  0  0  0  0  0  0  0  0
    2.6574    0.0000    0.0000 C    0  0  0  0  0  0  0  0  0  0  0  0
    3.9884    0.0000    0.0000 C    0  0  0  0  0  0  0  0  0  0  0  0
    4.6539   -1.1542    0.0000 C    0  0  0  0  0  0  0  0  0  0  0  0
    3.9884   -2.3037    0.0000 C    0  0  0  0  0  0  0  0  0  0  0  0
    2.6574   -2.3037    0.0000 C    0  0  0  0  0  0  0  0  0  0  0  0
    0.6655   -1.1542    0.0000 C    0  0  0  0  0  0  0  0  0  0  0  0
    0.0000   -2.3037    0.0000 O    0  0  0  0  0  0  0  0  0  0  0  0
    0.0000    0.0000    0.0000 O    0  5  0  0  0  0  0  0  0  0  0  0
    2.2618   -3.6347    0.0000 Na   0  3  0  0  0  0  0  0  0  0  0  0
  1  2  2  0  0  0  0
  1  6  1  0  0  0  0
  1  7  1  0  0  0  0
  2  3  1  0  0  0  0
  3  4  2  0  0  0  0
  4  5  1  0  0  0  0
  5  6  2  0  0  0  0
  7  8  2  0  0  0  0
  7  9  1  0  0  0  0
M  END
> <ID>
137

> <Formula>
C7H5NaO2

> <FW>
144.1032 (121.1139+22.9892)

> <DSSTox_CID>
140

> <DSSTox_RID>
75393

> <DSSTox_GSID>
20140

> <DSSTox_FileID_Sort>
77

> <TS_ChemName>
Sodium benzoate

> <TS_ChemName_Synonyms>
Sodium benzoate (Benzoic acid, sodium salt) (Benzoate, sodium)

> <TS_CASRN>
532-32-1

> <CASRN_ChemName_Relationship>
primary

> <TS_Description>
single chemical compound

> <ChemNote>
parent [65-85-0]

> <STRUCTURE_Shown>
tested chemical

> <STRUCTURE_Formula>
C7H5NaO2

> <STRUCTURE_MW>
144.1032

> <STRUCTURE_ChemType>
defined organic

> <STRUCTURE_DefinedOrganicForm>
salt

> <STRUCTURE_IUPAC>
sodium benzoate

> <STRUCTURE_SMILES>
[Na+].[O-]C(=O)c1ccccc1

> <STRUCTURE_SMILES_Desalt>
O=C(O)c1ccccc1

> <Substance_modify_yyyymmdd>
20080429

$$$$
