532-43-4
ChemmineR-0915142007XD

 22 22  0  0  0  0  0  0  0  0  2 V2000
    5.3748   -2.0044    0.0000 N   0  3  0  0  0  0  0  0  0  0  0  0
    4.1543   -2.4075    0.0000 C   0  0  0  0  0  0  0  0  0  0  0  0
    9.9882   -2.0044    0.0000 N   0  0  0  0  0  0  0  0  0  0  0  0
    5.3748   -0.6607    0.0000 C   0  0  0  0  0  0  0  0  0  0  0  0
    8.8797   -2.6426    0.0000 C   0  0  0  0  0  0  0  0  0  0  0  0
    7.7375   -2.0044    0.0000 C   0  0  0  0  0  0  0  0  0  0  0  0
    4.1095   -0.2463    0.0000 S   0  0  0  0  0  0  0  0  0  0  0  0
    6.5618   -2.6426    0.0000 C   0  0  0  0  0  0  0  0  0  0  0  0
    3.3481   -1.3325    0.0000 C   0  0  0  0  0  0  0  0  0  0  0  0
    8.8797    0.0000    0.0000 N   0  0  0  0  0  0  0  0  0  0  0  0
    9.9882   -0.6607    0.0000 C   0  0  0  0  0  0  0  0  0  0  0  0
    8.8797   -3.9863    0.0000 N   0  0  0  0  0  0  0  0  0  0  0  0
    7.7375   -0.6607    0.0000 C   0  0  0  0  0  0  0  0  0  0  0  0
    2.0268   -1.3325    0.0000 C   0  0  0  0  0  0  0  0  0  0  0  0
    3.7512   -3.6840    0.0000 C   0  0  0  0  0  0  0  0  0  0  0  0
    0.0000   -0.2016    0.0000 O   0  0  0  0  0  0  0  0  0  0  0  0
   11.1976    0.0000    0.0000 C   0  0  0  0  0  0  0  0  0  0  0  0
    1.3213   -0.2016    0.0000 C   0  0  0  0  0  0  0  0  0  0  0  0
    5.9907   -6.1587    0.0000 N   0  3  0  0  0  0  0  0  0  0  0  0
    6.6626   -7.3120    0.0000 O   0  5  0  0  0  0  0  0  0  0  0  0
    6.6626   -4.9941    0.0000 O   0  0  0  0  0  0  0  0  0  0  0  0
    4.6470   -6.1587    0.0000 O   0  5  0  0  0  0  0  0  0  0  0  0
  1  2  1  0  0  0  0
  1  4  2  0  0  0  0
  1  8  1  0  0  0  0
  2  9  2  0  0  0  0
  2 15  1  0  0  0  0
  3  5  2  0  0  0  0
  3 11  1  0  0  0  0
  4  7  1  0  0  0  0
  5  6  1  0  0  0  0
  5 12  1  0  0  0  0
  6  8  1  0  0  0  0
  6 13  2  0  0  0  0
  7  9  1  0  0  0  0
  9 14  1  0  0  0  0
 10 13  1  0  0  0  0
 10 11  2  0  0  0  0
 11 17  1  0  0  0  0
 14 18  1  0  0  0  0
 16 18  1  0  0  0  0
 19 20  1  0  0  0  0
 19 21  2  0  0  0  0
 19 22  1  0  0  0  0
M  END
> <ID>
7489

> <Formula>
C12H17N5O4S

> <FW>
327.3595 (265.3540+62.0054)

> <DSSTox_CID>
18762

> <DSSTox_RID>
79391

> <DSSTox_GSID>
38762

> <DSSTox_FileID_Sort>
4073

> <TS_ChemName>
Thiamine nitrate

> <TS_ChemName_Synonyms>
Thiamine nitrate (Thiazolium, 3-[(4-amino-2-methyl-5-pyrimidinyl)methyl]-5-(2hydroxyethyl)-4-m-ethyl-, nitrate (salt))

> <TS_CASRN>
532-43-4

> <CASRN_ChemName_Relationship>
primary

> <TS_Description>
single chemical compound

> <ChemNote>
parent [59-43-8]

> <STRUCTURE_Shown>
tested chemical

> <STRUCTURE_Formula>
C12H17N5O4S

> <STRUCTURE_MW>
327.3595

> <STRUCTURE_ChemType>
defined organic

> <STRUCTURE_DefinedOrganicForm>
complex

> <STRUCTURE_IUPAC>
3-[(4-amino-2-methylpyrimidin-5-yl)methyl]-5-(2-hydroxyethyl)-4-methyl-1,3-thiazol-3-ium nitrate

> <STRUCTURE_SMILES>
[O-][N+]([O-])=O.Cc2nc(N)c(C[n+]1csc(CCO)c1C)cn2

> <STRUCTURE_SMILES_Desalt>
Cc2nc(N)c(C[n+]1csc(CCO)c1C)cn2

> <Substance_modify_yyyymmdd>
20080429

$$$$
