532-27-4
ChemmineR-0915142007XD

 10 10  0  0  0  0  0  0  0  0  1 V2000
    4.6545   -3.4536    0.0000 O    0  0  0  0  0  0  0  0  0  0  0  0
    3.9889   -2.3040    0.0000 C    0  0  0  0  0  0  0  0  0  0  0  0
    2.6577   -2.3040    0.0000 C    0  0  0  0  0  0  0  0  0  0  0  0
    1.9968   -3.4536    0.0000 C    0  0  0  0  0  0  0  0  0  0  0  0
    0.6656   -3.4536    0.0000 C    0  0  0  0  0  0  0  0  0  0  0  0
    0.0000   -2.3040    0.0000 C    0  0  0  0  0  0  0  0  0  0  0  0
    0.6656   -1.1497    0.0000 C    0  0  0  0  0  0  0  0  0  0  0  0
    1.9968   -1.1497    0.0000 C    0  0  0  0  0  0  0  0  0  0  0  0
    4.6545   -1.1497    0.0000 C    0  0  0  0  0  0  0  0  0  0  0  0
    3.9889    0.0000    0.0000 Cl   0  0  0  0  0  0  0  0  0  0  0  0
  1  2  2  0  0  0  0
  2  3  1  0  0  0  0
  2  9  1  0  0  0  0
  3  4  2  0  0  0  0
  3  8  1  0  0  0  0
  4  5  1  0  0  0  0
  5  6  2  0  0  0  0
  6  7  1  0  0  0  0
  7  8  2  0  0  0  0
  9 10  1  0  0  0  0
M  END
> <ID>
284

> <Formula>
C8H7ClO

> <FW>
154.5936

> <DSSTox_CID>
293

> <DSSTox_RID>
75493

> <DSSTox_GSID>
20293

> <DSSTox_FileID_Sort>
177

> <TS_ChemName>
2-Chloroacetophenone

> <TS_ChemName_Synonyms>
2-Chloroacetophenone (CN) (Chloroacetophenone) (2-Chloro-1-phenyl-ethanone)

> <TS_CASRN>
532-27-4

> <CASRN_ChemName_Relationship>
primary

> <TS_Description>
single chemical compound

> <ChemNote>


> <STRUCTURE_Shown>
tested chemical

> <STRUCTURE_Formula>
C8H7ClO

> <STRUCTURE_MW>
154.5936

> <STRUCTURE_ChemType>
defined organic

> <STRUCTURE_DefinedOrganicForm>
parent

> <STRUCTURE_IUPAC>
2-chloro-1-phenylethanone

> <STRUCTURE_SMILES>
O=C(CCl)c1ccccc1

> <STRUCTURE_SMILES_Desalt>
O=C(CCl)c1ccccc1

> <Substance_modify_yyyymmdd>
20080429

$$$$
