5321-32-4
ChemmineR-0915142007XD

 30 32  0  0  1  0  0  0  0  0  2 V2000
   10.7230   -8.3439    0.0000 K   0  3  0  0  0  0  0  0  0  0  0  0
    7.0682   -3.7122    0.0000 C   0  0  0  0  0  0  0  0  0  0  0  0
    8.3554   -5.0339    0.0000 N   0  0  0  0  0  0  0  0  0  0  0  0
    8.3554   -3.7122    0.0000 C   0  0  0  0  0  0  0  0  0  0  0  0
    7.0682   -5.0339    0.0000 C   0  0  0  0  0  0  0  0  0  0  0  0
    9.5967   -5.4247    0.0000 C   0  0  0  0  0  0  0  0  0  0  0  0
   10.3782   -4.3673    0.0000 C   0  0  0  0  0  0  0  0  0  0  0  0
    9.5967   -3.3100    0.0000 S   0  0  0  0  0  0  0  0  0  0  0  0
    9.9989   -6.6774    0.0000 C   0  0  0  0  0  0  0  0  0  0  0  0
   11.2746   -6.9418    0.0000 O   0  0  0  0  0  0  0  0  0  0  0  0
    9.1140   -7.6543    0.0000 O   0  5  0  0  0  0  0  0  0  0  0  0
   11.4930   -5.0339    0.0000 C   0  0  0  0  0  0  0  0  0  0  0  0
   11.2861   -3.4594    0.0000 C   0  0  0  0  0  0  0  0  0  0  0  0
    8.3554   -2.4020    0.0000 H   0  0  0  0  0  0  0  0  0  0  0  0
    7.0682   -2.4020    0.0000 H   0  0  0  0  0  0  0  0  0  0  0  0
    5.0914   -3.8502    0.0000 N   0  0  0  0  0  0  0  0  0  0  0  0
    6.1143   -5.9649    0.0000 O   0  0  0  0  0  0  0  0  0  0  0  0
    2.9767   -3.8502    0.0000 N   0  0  0  0  0  0  0  0  0  0  0  0
    4.0570   -4.6202    0.0000 C   0  0  0  0  0  0  0  0  0  0  0  0
    3.3904   -2.6204    0.0000 C   0  0  0  0  0  0  0  0  0  0  0  0
    4.7006   -2.5859    0.0000 C   0  0  0  0  0  0  0  0  0  0  0  0
    4.7121   -5.7580    0.0000 C   0  0  0  0  0  0  0  0  0  0  0  0
    3.3904   -5.7580    0.0000 C   0  0  0  0  0  0  0  0  0  0  0  0
    5.4707   -1.5516    0.0000 O   0  0  0  0  0  0  0  0  0  0  0  0
    2.2756   -0.6321    0.0000 C   0  0  0  0  0  0  0  0  0  0  0  0
    2.2756   -1.9538    0.0000 C   0  0  0  0  0  0  0  0  0  0  0  0
    1.1148    0.0000    0.0000 C   0  0  0  0  0  0  0  0  0  0  0  0
    1.1148   -2.6204    0.0000 C   0  0  0  0  0  0  0  0  0  0  0  0
    0.0000   -0.6321    0.0000 C   0  0  0  0  0  0  0  0  0  0  0  0
    0.0000   -1.9538    0.0000 C   0  0  0  0  0  0  0  0  0  0  0  0
  2  4  1  0  0  0  0
  2  5  1  0  0  0  0
  2 15  1  6  0  0  0
  2 16  1  1  0  0  0
  3  5  1  0  0  0  0
  3  6  1  0  0  0  0
  3  4  1  0  0  0  0
  4  8  1  0  0  0  0
  4 14  1  6  0  0  0
  5 17  2  0  0  0  0
  6  7  1  0  0  0  0
  6  9  1  6  0  0  0
  7  8  1  0  0  0  0
  7 12  1  0  0  0  0
  7 13  1  0  0  0  0
  9 10  2  0  0  0  0
  9 11  1  0  0  0  0
 16 19  1  0  0  0  0
 16 21  1  0  0  0  0
 18 19  1  0  0  0  0
 18 20  1  0  0  0  0
 19 22  1  0  0  0  0
 19 23  1  0  0  0  0
 20 21  1  0  0  0  0
 20 26  1  0  0  0  0
 21 24  2  0  0  0  0
 25 26  1  0  0  0  0
 25 27  2  0  0  0  0
 26 28  2  0  0  0  0
 27 29  1  0  0  0  0
 28 30  1  0  0  0  0
 29 30  2  0  0  0  0
M  END
> <ID>
11226

> <Formula>
C19H22KN3O4S

> <FW>
427.5590 (39.0978+388.4612)

> <DSSTox_CID>
25830

> <DSSTox_RID>
81158

> <DSSTox_GSID>
45830

> <DSSTox_FileID_Sort>
5839

> <TS_ChemName>
Hetacillin potassium

> <TS_ChemName_Synonyms>


> <TS_CASRN>
5321-32-4

> <CASRN_ChemName_Relationship>
primary

> <TS_Description>
single chemical compound

> <ChemNote>
stereochem; parent [3511-16-8]

> <STRUCTURE_Shown>
tested chemical

> <STRUCTURE_Formula>
C19H22KN3O4S

> <STRUCTURE_MW>
427.559

> <STRUCTURE_ChemType>
defined organic

> <STRUCTURE_DefinedOrganicForm>
salt

> <STRUCTURE_IUPAC>
potassium (2S,5R,6R)-6-(2,2-dimethyl-5-oxo-4-phenylimidazolidin-1-yl)-3,3-dimethyl-7-oxo-4-thia-1-azabicyclo[3.2.0]heptane-2-carboxylate

> <STRUCTURE_SMILES>
[K+].O=C([O-])[C@@H]3N4C(=O)[C@@H](N1C(=O)C(NC1(C)C)c2ccccc2)[C@H]4SC3(C)C

> <STRUCTURE_SMILES_Desalt>
OC(=O)[C@@H]3N4C(=O)[C@@H](N1C(=O)C(NC1(C)C)c2ccccc2)[C@H]4SC3(C)C

> <Substance_modify_yyyymmdd>
20110922

$$$$
