53251-94-8
ChemmineR-0915142007XD

 33 35  0  0  0  0  0  0  0  0  2 V2000
    1.0614   -6.5707    0.0000 C    0  0  0  0  0  0  0  0  0  0  0  0
    1.0614   -5.2565    0.0000 C    0  0  0  0  0  0  0  0  0  0  0  0
    9.1105   -4.6500    0.0000 C    0  0  0  0  0  0  0  0  0  0  0  0
    7.9733   -2.6409    0.0000 N    0  3  0  0  0  0  0  0  0  0  0  0
    2.2239   -7.2657    0.0000 C    0  0  0  0  0  0  0  0  0  0  0  0
    2.2239   -5.8757    0.0000 C    0  0  0  0  0  0  0  0  0  0  0  0
   11.4481   -4.6753    0.0000 C    0  0  0  0  0  0  0  0  0  0  0  0
   10.2856   -3.9930    0.0000 C    0  0  0  0  0  0  0  0  0  0  0  0
    9.1105   -5.9894    0.0000 C    0  0  0  0  0  0  0  0  0  0  0  0
    7.9733   -3.9930    0.0000 C    0  0  0  0  0  0  0  0  0  0  0  0
   11.4481   -5.9894    0.0000 C    0  0  0  0  0  0  0  0  0  0  0  0
   10.2856   -6.6465    0.0000 C    0  0  0  0  0  0  0  0  0  0  0  0
    2.2239   -4.5868    0.0000 C    0  0  0  0  0  0  0  0  0  0  0  0
    3.3612   -6.5707    0.0000 C    0  0  0  0  0  0  0  0  0  0  0  0
    3.3612   -5.2186    0.0000 C    0  0  0  0  0  0  0  0  0  0  0  0
    7.9733    0.0000    0.0000 O    0  0  0  0  0  0  0  0  0  0  0  0
   10.2856   -2.6788    0.0000 Br   0  0  0  0  0  0  0  0  0  0  0  0
   12.6233   -6.6718    0.0000 O    0  0  0  0  0  0  0  0  0  0  0  0
   10.2856   -7.9859    0.0000 O    0  0  0  0  0  0  0  0  0  0  0  0
    6.8108   -3.3232    0.0000 C    0  0  0  0  0  0  0  0  0  0  0  0
    1.0741   -7.8343    0.0000 C    0  0  0  0  0  0  0  0  0  0  0  0
    0.0000   -5.8757    0.0000 C    0  0  0  0  0  0  0  0  0  0  0  0
    6.8108   -1.9838    0.0000 C    0  0  0  0  0  0  0  0  0  0  0  0
    9.1105   -2.0091    0.0000 C    0  0  0  0  0  0  0  0  0  0  0  0
    4.5237   -3.2727    0.0000 O    0  0  0  0  0  0  0  0  0  0  0  0
    6.8108   -0.6697    0.0000 C    0  0  0  0  0  0  0  0  0  0  0  0
    9.1105   -0.6697    0.0000 C    0  0  0  0  0  0  0  0  0  0  0  0
    2.2239   -3.2601    0.0000 C    0  0  0  0  0  0  0  0  0  0  0  0
    5.6862   -2.6156    0.0000 C    0  0  0  0  0  0  0  0  0  0  0  0
    3.3612   -2.6030    0.0000 C    0  0  0  0  0  0  0  0  0  0  0  0
   12.6359   -7.9985    0.0000 C    0  0  0  0  0  0  0  0  0  0  0  0
   11.4481   -8.6430    0.0000 C    0  0  0  0  0  0  0  0  0  0  0  0
    6.4570   -4.8648    0.0000 Br   0  5  0  0  0  0  0  0  0  0  0  0
  1  2  1  0  0  0  0
  1  5  1  0  0  0  0
  1 21  1  0  0  0  0
  1 22  1  0  0  0  0
  2 13  1  0  0  0  0
  2  6  1  0  0  0  0
  3 10  1  0  0  0  0
  3  8  2  0  0  0  0
  3  9  1  0  0  0  0
  4 20  1  0  0  0  0
  4 10  1  0  0  0  0
  4 23  1  0  0  0  0
  4 24  1  0  0  0  0
  5  6  1  0  0  0  0
  5 14  1  0  0  0  0
  7  8  1  0  0  0  0
  7 11  2  0  0  0  0
  8 17  1  0  0  0  0
  9 12  2  0  0  0  0
 11 12  1  0  0  0  0
 11 18  1  0  0  0  0
 12 19  1  0  0  0  0
 13 28  1  0  0  0  0
 13 15  1  0  0  0  0
 14 15  1  0  0  0  0
 16 27  1  0  0  0  0
 16 26  1  0  0  0  0
 18 31  1  0  0  0  0
 19 32  1  0  0  0  0
 20 29  1  0  0  0  0
 23 26  1  0  0  0  0
 24 27  1  0  0  0  0
 25 30  1  0  0  0  0
 25 29  1  0  0  0  0
 28 30  1  0  0  0  0
M  END
> <ID>
13611

> <Formula>
C26H41Br2NO4

> <FW>
591.4160 (511.5115+79.9045)

> <DSSTox_CID>
28540

> <DSSTox_RID>
82812

> <DSSTox_GSID>
48614

> <DSSTox_FileID_Sort>
7489

> <TS_ChemName>
Pinaverium bromide

> <TS_ChemName_Synonyms>


> <TS_CASRN>
53251-94-8

> <CASRN_ChemName_Relationship>
primary

> <TS_Description>
single chemical compound

> <ChemNote>
ammonium; parent [59995-65-2]

> <STRUCTURE_Shown>
tested chemical

> <STRUCTURE_Formula>
C26H41Br2NO4

> <STRUCTURE_MW>
591.416

> <STRUCTURE_ChemType>
defined organic

> <STRUCTURE_DefinedOrganicForm>
complex

> <STRUCTURE_IUPAC>
4-(2-bromo-4,5-dimethoxybenzyl)-4-{2-[2-(6,6-dimethylbicyclo[3.1.1]hept-2-yl)ethoxy]ethyl}morpholin-4-ium bromide

> <STRUCTURE_SMILES>
[Br-].COc4cc(C[N+]3(CCOCCC1CCC2CC1C2(C)C)CCOCC3)c(Br)cc4OC

> <STRUCTURE_SMILES_Desalt>
COc4cc(C[N+]3(CCOCCC1CCC2CC1C2(C)C)CCOCC3)c(Br)cc4OC

> <Substance_modify_yyyymmdd>
20111015

$$$$
