5328-41-6
ChemmineR-0915142007XD

 27 24  0  0  1  0  0  0  0  0  2 V2000
    1.3174   -5.8707    0.0000 C    0  0  0  0  0  0  0  0  0  0  0  0
    0.0000   -5.8707    0.0000 O    0  5  0  0  0  0  0  0  0  0  0  0
    1.9877   -4.7035    0.0000 C    0  0  0  0  0  0  0  0  0  0  0  0
    3.3283   -4.7035    0.0000 O    0  0  0  0  0  0  0  0  0  0  0  0
    1.3174   -3.5594    0.0000 C    0  0  0  0  0  0  0  0  0  0  0  0
    0.0000   -3.5594    0.0000 O    0  0  0  0  0  0  0  0  0  0  0  0
    1.9877   -2.4269    0.0000 C    0  0  0  0  0  0  0  0  0  0  0  0
    3.3283   -2.4269    0.0000 O    0  0  0  0  0  0  0  0  0  0  0  0
    1.3174   -1.2481    0.0000 C    0  0  0  0  0  0  0  0  0  0  0  0
    0.0000   -1.2481    0.0000 O    0  0  0  0  0  0  0  0  0  0  0  0
    1.9877   -0.1156    0.0000 C    0  0  0  0  0  0  0  0  0  0  0  0
    3.3283   -0.1156    0.0000 O    0  0  0  0  0  0  0  0  0  0  0  0
    1.9877   -7.0148    0.0000 O    0  0  0  0  0  0  0  0  0  0  0  0
    5.9170   -2.8082    0.0000 Ba   0  2  0  0  0  0  0  0  0  0  0  0
    9.5457   -5.7552    0.0000 C    0  0  0  0  0  0  0  0  0  0  0  0
    8.2283   -5.7552    0.0000 O    0  5  0  0  0  0  0  0  0  0  0  0
   10.2160   -4.5880    0.0000 C    0  0  0  0  0  0  0  0  0  0  0  0
   11.5566   -4.5880    0.0000 O    0  0  0  0  0  0  0  0  0  0  0  0
    9.5457   -3.4439    0.0000 C    0  0  0  0  0  0  0  0  0  0  0  0
    8.2283   -3.4439    0.0000 O    0  0  0  0  0  0  0  0  0  0  0  0
   10.2160   -2.2998    0.0000 C    0  0  0  0  0  0  0  0  0  0  0  0
   11.5566   -2.2998    0.0000 O    0  0  0  0  0  0  0  0  0  0  0  0
    9.5457   -1.1325    0.0000 C    0  0  0  0  0  0  0  0  0  0  0  0
    8.2283   -1.1325    0.0000 O    0  0  0  0  0  0  0  0  0  0  0  0
   10.2160    0.0000    0.0000 C    0  0  0  0  0  0  0  0  0  0  0  0
   11.5566    0.0000    0.0000 O    0  0  0  0  0  0  0  0  0  0  0  0
   10.2160   -6.8993    0.0000 O    0  0  0  0  0  0  0  0  0  0  0  0
  1  2  1  0  0  0  0
  1  3  1  0  0  0  0
  1 13  2  0  0  0  0
  3  4  1  1  0  0  0
  3  5  1  0  0  0  0
  5  6  1  1  0  0  0
  5  7  1  0  0  0  0
  7  8  1  1  0  0  0
  7  9  1  0  0  0  0
  9 10  1  6  0  0  0
  9 11  1  0  0  0  0
 11 12  1  0  0  0  0
 15 16  1  0  0  0  0
 15 17  1  0  0  0  0
 15 27  2  0  0  0  0
 17 18  1  1  0  0  0
 17 19  1  0  0  0  0
 19 20  1  1  0  0  0
 19 21  1  0  0  0  0
 21 22  1  1  0  0  0
 21 23  1  0  0  0  0
 23 24  1  6  0  0  0
 23 25  1  0  0  0  0
 25 26  1  0  0  0  0
M  END
> <ID>
10724

> <Formula>
C12H22BaO14

> <FW>
527.6217 (195.1479+137.3259+195.1479)

> <DSSTox_CID>
25079

> <DSSTox_RID>
80655

> <DSSTox_GSID>
45079

> <DSSTox_FileID_Sort>
5337

> <TS_ChemName>
D-Gluconic acid, barium salt

> <TS_ChemName_Synonyms>


> <TS_CASRN>
5328-41-6

> <CASRN_ChemName_Relationship>
primary

> <TS_Description>
single chemical compound

> <ChemNote>
stereochem

> <STRUCTURE_Shown>
tested chemical

> <STRUCTURE_Formula>
C12H22BaO14

> <STRUCTURE_MW>
527.6217

> <STRUCTURE_ChemType>
defined organic

> <STRUCTURE_DefinedOrganicForm>
salt

> <STRUCTURE_IUPAC>
barium di(D-gluconate)

> <STRUCTURE_SMILES>
[Ba+2].O[C@H]([C@@H](O)C([O-])=O)[C@H](O)[C@H](O)CO.[O-]C(=O)[C@H](O)[C@@H](O)[C@H](O)[C@H](O)CO

> <STRUCTURE_SMILES_Desalt>
O[C@H]([C@@H](O)C(=O)O)[C@H](O)[C@H](O)CO

> <Substance_modify_yyyymmdd>
20100107

$$$$
