533-75-5
ChemmineR-0915142007XD

  9  9  0  0  0  0  0  0  0  0  1 V2000
    1.5103   -1.3194    0.0000 C   0  0  0  0  0  0  0  0  0  0  0  0
    2.6981   -1.9133    0.0000 C   0  0  0  0  0  0  0  0  0  0  0  0
    0.3054   -1.9133    0.0000 C   0  0  0  0  0  0  0  0  0  0  0  0
    2.9908   -3.2157    0.0000 C   0  0  0  0  0  0  0  0  0  0  0  0
    3.7587   -1.0945    0.0000 O   0  0  0  0  0  0  0  0  0  0  0  0
    0.0000   -3.2157    0.0000 C   0  0  0  0  0  0  0  0  0  0  0  0
    2.1551   -4.2423    0.0000 C   0  0  0  0  0  0  0  0  0  0  0  0
    0.8357   -4.2423    0.0000 C   0  0  0  0  0  0  0  0  0  0  0  0
    1.5103    0.0000    0.0000 O   0  0  0  0  0  0  0  0  0  0  0  0
  1  2  1  0  0  0  0
  1  3  2  0  0  0  0
  1  9  1  0  0  0  0
  2  4  1  0  0  0  0
  2  5  2  0  0  0  0
  3  6  1  0  0  0  0
  4  7  2  0  0  0  0
  6  8  2  0  0  0  0
  7  8  1  0  0  0  0
M  END
> <ID>
14280

> <Formula>
C7H6O2

> <FW>
122.1213

> <DSSTox_CID>
29376

> <DSSTox_RID>
83491

> <DSSTox_GSID>
49416

> <DSSTox_FileID_Sort>
8166

> <TS_ChemName>
Tropolone

> <TS_ChemName_Synonyms>


> <TS_CASRN>
533-75-5

> <CASRN_ChemName_Relationship>
primary

> <TS_Description>
single chemical compound

> <ChemNote>


> <STRUCTURE_Shown>
tested chemical

> <STRUCTURE_Formula>
C7H6O2

> <STRUCTURE_MW>
122.1213

> <STRUCTURE_ChemType>
defined organic

> <STRUCTURE_DefinedOrganicForm>
parent

> <STRUCTURE_IUPAC>
2-hydroxycyclohepta-2,4,6-trien-1-one

> <STRUCTURE_SMILES>
OC1=CC=CC=CC1=O

> <STRUCTURE_SMILES_Desalt>
OC1=CC=CC=CC1=O

> <Substance_modify_yyyymmdd>
20111204

$$$$
