533-28-8
ChemmineR-0915142007XD

 20 20  0  0  0  0  0  0  0  0  1 V2000
    1.1508   -3.9817    0.0000 C    0  0  0  0  0  0  0  0  0  0  0  0
    1.1508   -2.6583    0.0000 C    0  0  0  0  0  0  0  0  0  0  0  0
    0.0000   -1.9793    0.0000 C    0  0  0  0  0  0  0  0  0  0  0  0
    0.0000   -0.6559    0.0000 C    0  0  0  0  0  0  0  0  0  0  0  0
    1.1508    0.0000    0.0000 C    0  0  0  0  0  0  0  0  0  0  0  0
    2.3015   -0.6559    0.0000 C    0  0  0  0  0  0  0  0  0  0  0  0
    2.3015   -1.9793    0.0000 N    0  0  0  0  0  0  0  0  0  0  0  0
    3.4523   -2.6583    0.0000 C    0  0  0  0  0  0  0  0  0  0  0  0
    4.5916   -1.9793    0.0000 C    0  0  0  0  0  0  0  0  0  0  0  0
    5.7423   -2.6583    0.0000 C    0  0  0  0  0  0  0  0  0  0  0  0
    6.8931   -1.9793    0.0000 O    0  0  0  0  0  0  0  0  0  0  0  0
    8.0554   -2.6583    0.0000 C    0  0  0  0  0  0  0  0  0  0  0  0
    8.0554   -3.9817    0.0000 O    0  0  0  0  0  0  0  0  0  0  0  0
    9.2062   -1.9793    0.0000 C    0  0  0  0  0  0  0  0  0  0  0  0
    9.2062   -0.6559    0.0000 C    0  0  0  0  0  0  0  0  0  0  0  0
   10.3569    0.0000    0.0000 C    0  0  0  0  0  0  0  0  0  0  0  0
   11.5077   -0.6559    0.0000 C    0  0  0  0  0  0  0  0  0  0  0  0
   11.5077   -1.9793    0.0000 C    0  0  0  0  0  0  0  0  0  0  0  0
   10.3569   -2.6583    0.0000 C    0  0  0  0  0  0  0  0  0  0  0  0
    4.6606   -3.6479    0.0000 Cl   0  0  0  0  0  0  0  0  0  0  0  0
  1  2  1  0  0  0  0
  2  3  1  0  0  0  0
  2  7  1  0  0  0  0
  3  4  1  0  0  0  0
  4  5  1  0  0  0  0
  5  6  1  0  0  0  0
  6  7  1  0  0  0  0
  7  8  1  0  0  0  0
  8  9  1  0  0  0  0
  9 10  1  0  0  0  0
 10 11  1  0  0  0  0
 11 12  1  0  0  0  0
 12 13  2  0  0  0  0
 12 14  1  0  0  0  0
 14 15  2  0  0  0  0
 14 19  1  0  0  0  0
 15 16  1  0  0  0  0
 16 17  2  0  0  0  0
 17 18  1  0  0  0  0
 18 19  2  0  0  0  0
M  END
> <ID>
11906

> <Formula>
C16H24ClNO2

> <FW>
297.8203 (261.3593+36.4609)

> <DSSTox_CID>
26709

> <DSSTox_RID>
81842

> <DSSTox_GSID>
46709

> <DSSTox_FileID_Sort>
6523

> <TS_ChemName>
Piperocaine hydrochloride

> <TS_ChemName_Synonyms>


> <TS_CASRN>
533-28-8

> <CASRN_ChemName_Relationship>
primary

> <TS_Description>
single chemical compound

> <ChemNote>
parent [136-82-3]

> <STRUCTURE_Shown>
tested chemical

> <STRUCTURE_Formula>
C16H24ClNO2

> <STRUCTURE_MW>
297.8203

> <STRUCTURE_ChemType>
defined organic

> <STRUCTURE_DefinedOrganicForm>
complex

> <STRUCTURE_IUPAC>
3-(2-methylpiperidin-1-yl)propyl benzoate hydrochloride (1:1)

> <STRUCTURE_SMILES>
Cl.CC2CCCCN2CCCOC(=O)c1ccccc1

> <STRUCTURE_SMILES_Desalt>
CC2CCCCN2CCCOC(=O)c1ccccc1

> <Substance_modify_yyyymmdd>
20110805

$$$$
