533-31-3
ChemmineR-0915142007XD

 10 11  0  0  0  0  0  0  0  0  1 V2000
    5.5020   -2.6575    0.0000 O   0  0  0  0  0  0  0  0  0  0  0  0
    4.3521   -1.9917    0.0000 C   0  0  0  0  0  0  0  0  0  0  0  0
    3.1967   -2.6575    0.0000 C   0  0  0  0  0  0  0  0  0  0  0  0
    2.0468   -1.9917    0.0000 C   0  0  0  0  0  0  0  0  0  0  0  0
    2.0468   -0.6602    0.0000 C   0  0  0  0  0  0  0  0  0  0  0  0
    3.1967    0.0000    0.0000 C   0  0  0  0  0  0  0  0  0  0  0  0
    4.3521   -0.6602    0.0000 C   0  0  0  0  0  0  0  0  0  0  0  0
    0.7813   -0.2531    0.0000 O   0  0  0  0  0  0  0  0  0  0  0  0
    0.0000   -1.3260    0.0000 C   0  0  0  0  0  0  0  0  0  0  0  0
    0.7813   -2.4044    0.0000 O   0  0  0  0  0  0  0  0  0  0  0  0
  1  2  1  0  0  0  0
  2  3  2  0  0  0  0
  2  7  1  0  0  0  0
  3  4  1  0  0  0  0
  4  5  2  0  0  0  0
  4 10  1  0  0  0  0
  5  6  1  0  0  0  0
  5  8  1  0  0  0  0
  6  7  2  0  0  0  0
  8  9  1  0  0  0  0
  9 10  1  0  0  0  0
M  END
> <ID>
1218

> <Formula>
C7H6O3

> <FW>
138.1207

> <DSSTox_CID>
1267

> <DSSTox_RID>
76047

> <DSSTox_GSID>
21267

> <DSSTox_FileID_Sort>
731

> <TS_ChemName>
Sesamol

> <TS_ChemName_Synonyms>


> <TS_CASRN>
533-31-3

> <CASRN_ChemName_Relationship>
primary

> <TS_Description>
single chemical compound

> <ChemNote>


> <STRUCTURE_Shown>
tested chemical

> <STRUCTURE_Formula>
C7H6O3

> <STRUCTURE_MW>
138.1207

> <STRUCTURE_ChemType>
defined organic

> <STRUCTURE_DefinedOrganicForm>
parent

> <STRUCTURE_IUPAC>
1,3-benzodioxol-5-ol

> <STRUCTURE_SMILES>
Oc1ccc2OCOc2c1

> <STRUCTURE_SMILES_Desalt>
Oc1ccc2OCOc2c1

> <Substance_modify_yyyymmdd>
20080429

$$$$
