533-74-4
ChemmineR-0915142007XD

  9  9  0  0  0  0  0  0  0  0  1 V2000
    4.6082   -2.6589    0.0000 C   0  0  0  0  0  0  0  0  0  0  0  0
    3.4561   -1.9953    0.0000 N   0  0  0  0  0  0  0  0  0  0  0  0
    2.3041   -2.6589    0.0000 C   0  0  0  0  0  0  0  0  0  0  0  0
    1.1520   -1.9953    0.0000 N   0  0  0  0  0  0  0  0  0  0  0  0
    0.0000   -2.6589    0.0000 C   0  0  0  0  0  0  0  0  0  0  0  0
    1.1520   -0.6636    0.0000 C   0  0  0  0  0  0  0  0  0  0  0  0
    2.3041    0.0000    0.0000 S   0  0  0  0  0  0  0  0  0  0  0  0
    3.4561   -0.6636    0.0000 C   0  0  0  0  0  0  0  0  0  0  0  0
    4.6082    0.0000    0.0000 S   0  0  0  0  0  0  0  0  0  0  0  0
  1  2  1  0  0  0  0
  2  3  1  0  0  0  0
  2  8  1  0  0  0  0
  3  4  1  0  0  0  0
  4  5  1  0  0  0  0
  4  6  1  0  0  0  0
  6  7  1  0  0  0  0
  7  8  1  0  0  0  0
  8  9  2  0  0  0  0
M  END
> <ID>
3906

> <Formula>
C5H10N2S2

> <FW>
162.2763

> <DSSTox_CID>
4902

> <DSSTox_RID>
77573

> <DSSTox_GSID>
24902

> <DSSTox_FileID_Sort>
2256

> <TS_ChemName>
Dazomet

> <TS_ChemName_Synonyms>
Dazomet (2H-1,3,5-Thiadiazine-2-thione, tetrahydro-3,5-dimethyl)

> <TS_CASRN>
533-74-4

> <CASRN_ChemName_Relationship>
primary

> <TS_Description>
single chemical compound

> <ChemNote>


> <STRUCTURE_Shown>
tested chemical

> <STRUCTURE_Formula>
C5H10N2S2

> <STRUCTURE_MW>
162.2763

> <STRUCTURE_ChemType>
defined organic

> <STRUCTURE_DefinedOrganicForm>
parent

> <STRUCTURE_IUPAC>
3,5-dimethyl-1,3,5-thiadiazinane-2-thione

> <STRUCTURE_SMILES>
S=C1SCN(C)CN1C

> <STRUCTURE_SMILES_Desalt>
S=C1SCN(C)CN1C

> <Substance_modify_yyyymmdd>
20080429

$$$$
