533-23-3
ChemmineR-0915142007XD

 15 15  0  0  0  0  0  0  0  0  1 V2000
    6.9207   -1.3489    0.0000 C    0  0  0  0  0  0  0  0  0  0  0  0
    6.9207    0.0000    0.0000 O    0  0  0  0  0  0  0  0  0  0  0  0
    8.0724   -2.0129    0.0000 O    0  0  0  0  0  0  0  0  0  0  0  0
    5.7794   -2.0129    0.0000 C    0  0  0  0  0  0  0  0  0  0  0  0
    4.5965   -1.3489    0.0000 O    0  0  0  0  0  0  0  0  0  0  0  0
    3.4759   -2.0129    0.0000 C    0  0  0  0  0  0  0  0  0  0  0  0
    3.4759   -3.3306    0.0000 C    0  0  0  0  0  0  0  0  0  0  0  0
    2.3034   -1.3489    0.0000 C    0  0  0  0  0  0  0  0  0  0  0  0
    2.3034   -4.0051    0.0000 C    0  0  0  0  0  0  0  0  0  0  0  0
    1.1621   -2.0129    0.0000 C    0  0  0  0  0  0  0  0  0  0  0  0
    1.1621   -3.3306    0.0000 C    0  0  0  0  0  0  0  0  0  0  0  0
    4.5965   -4.0051    0.0000 Cl   0  0  0  0  0  0  0  0  0  0  0  0
    0.0000   -4.0051    0.0000 Cl   0  0  0  0  0  0  0  0  0  0  0  0
    9.2345   -1.3489    0.0000 C    0  0  0  0  0  0  0  0  0  0  0  0
   10.3759   -2.0129    0.0000 C    0  0  0  0  0  0  0  0  0  0  0  0
  1  2  2  0  0  0  0
  1  3  1  0  0  0  0
  1  4  1  0  0  0  0
  3 14  1  0  0  0  0
  4  5  1  0  0  0  0
  5  6  1  0  0  0  0
  6  7  2  0  0  0  0
  6  8  1  0  0  0  0
  7  9  1  0  0  0  0
  7 12  1  0  0  0  0
  8 10  2  0  0  0  0
  9 11  2  0  0  0  0
 10 11  1  0  0  0  0
 11 13  1  0  0  0  0
 14 15  1  0  0  0  0
M  END
> <ID>
8312

> <Formula>
C10H10Cl2O3

> <FW>
249.0906

> <DSSTox_CID>
21346

> <DSSTox_RID>
79692

> <DSSTox_GSID>
41346

> <DSSTox_FileID_Sort>
4374

> <TS_ChemName>
2,4-D-ethyl ester

> <TS_ChemName_Synonyms>
2,4-DEE; Ethyl 2,4-dichlorophenoxyacetate

> <TS_CASRN>
533-23-3

> <CASRN_ChemName_Relationship>
primary

> <TS_Description>
single chemical compound

> <ChemNote>


> <STRUCTURE_Shown>
tested chemical

> <STRUCTURE_Formula>
C10H10Cl2O3

> <STRUCTURE_MW>
249.0906

> <STRUCTURE_ChemType>
defined organic

> <STRUCTURE_DefinedOrganicForm>
parent

> <STRUCTURE_IUPAC>
ethyl (2,4-dichlorophenoxy)acetate

> <STRUCTURE_SMILES>
Clc1cc(Cl)ccc1OCC(=O)OCC

> <STRUCTURE_SMILES_Desalt>
Clc1cc(Cl)ccc1OCC(=O)OCC

> <Substance_modify_yyyymmdd>
20080825

$$$$
