53308-83-1
ChemmineR-0915142007XD

 17 15  0  0  1  0  0  0  0  0  1 V2000
    6.1878   -1.9981    0.0000 C   0  0  0  0  0  0  0  0  0  0  0  0
    5.0552   -1.3260    0.0000 C   0  0  0  0  0  0  0  0  0  0  0  0
    3.9042   -1.9981    0.0000 O   0  0  0  0  0  0  0  0  0  0  0  0
    5.0552    0.0000    0.0000 O   0  0  0  0  0  0  0  0  0  0  0  0
    8.0754   -4.2173    0.0000 C   0  0  0  0  0  0  0  0  0  0  0  0
    9.2080   -4.8894    0.0000 O   0  0  0  0  0  0  0  0  0  0  0  0
    6.9060   -4.8894    0.0000 C   0  0  0  0  0  0  0  0  0  0  0  0
    8.0754   -2.8913    0.0000 O   0  0  0  0  0  0  0  0  0  0  0  0
    6.9060   -6.2154    0.0000 N   0  0  0  0  0  0  0  0  0  0  0  0
    2.3020   -4.8894    0.0000 N   0  0  0  0  0  0  0  0  0  0  0  0
    3.4530   -4.2173    0.0000 C   0  0  0  0  0  0  0  0  0  0  0  0
    5.7734   -4.2173    0.0000 C   0  0  0  0  0  0  0  0  0  0  0  0
    4.6040   -4.8894    0.0000 C   0  0  0  0  0  0  0  0  0  0  0  0
    1.1510   -4.2173    0.0000 C   0  0  0  0  0  0  0  0  0  0  0  0
    1.1510   -2.8913    0.0000 N   0  0  0  0  0  0  0  0  0  0  0  0
    0.0000   -4.8894    0.0000 N   0  0  0  0  0  0  0  0  0  0  0  0
    0.0000   -2.2191    0.0000 C   0  0  0  0  0  0  0  0  0  0  0  0
  1  2  1  0  0  0  0
  2  3  1  0  0  0  0
  2  4  2  0  0  0  0
  5  6  2  0  0  0  0
  5  7  1  0  0  0  0
  5  8  1  0  0  0  0
  7  9  1  1  0  0  0
  7 12  1  0  0  0  0
 10 11  1  0  0  0  0
 10 14  1  0  0  0  0
 11 13  1  0  0  0  0
 12 13  1  0  0  0  0
 14 15  1  0  0  0  0
 14 16  2  0  0  0  0
 15 17  1  0  0  0  0
M  END
> <ID>
11190

> <Formula>
C9H20N4O4

> <FW>
248.2795 (60.0520+188.2275)

> <DSSTox_CID>
25780

> <DSSTox_RID>
81122

> <DSSTox_GSID>
45780

> <DSSTox_FileID_Sort>
5803

> <TS_ChemName>
Tilarginine acetate

> <TS_ChemName_Synonyms>


> <TS_CASRN>
53308-83-1

> <CASRN_ChemName_Relationship>
primary

> <TS_Description>
single chemical compound

> <ChemNote>
absolute stereochem; parent [17035-90-4]

> <STRUCTURE_Shown>
tested chemical

> <STRUCTURE_Formula>
C9H20N4O4

> <STRUCTURE_MW>
248.2795

> <STRUCTURE_ChemType>
defined organic

> <STRUCTURE_DefinedOrganicForm>
complex

> <STRUCTURE_IUPAC>
N~5~-(N-methylcarbamimidoyl)-L-ornithine acetate (1:1)

> <STRUCTURE_SMILES>
N[C@@H](CCCNC(=N)NC)C(=O)O.CC(=O)O

> <STRUCTURE_SMILES_Desalt>
N[C@@H](CCCNC(=N)NC)C(=O)O

> <Substance_modify_yyyymmdd>
20110902

$$$$
