5331-43-1
ChemmineR-0915142007XD

 12 12  0  0  0  0  0  0  0  0  1 V2000
    6.9127   -1.9924    0.0000 N   0  0  0  0  0  0  0  0  0  0  0  0
    8.0662   -1.3148    0.0000 N   0  0  0  0  0  0  0  0  0  0  0  0
    5.7512   -1.3148    0.0000 C   0  0  0  0  0  0  0  0  0  0  0  0
    5.7673    0.0000    0.0000 O   0  0  0  0  0  0  0  0  0  0  0  0
    4.5977   -1.9924    0.0000 O   0  0  0  0  0  0  0  0  0  0  0  0
    3.4685   -1.3309    0.0000 C   0  0  0  0  0  0  0  0  0  0  0  0
    1.1535   -3.9686    0.0000 C   0  0  0  0  0  0  0  0  0  0  0  0
    0.0000   -3.3233    0.0000 C   0  0  0  0  0  0  0  0  0  0  0  0
    0.0000   -1.9924    0.0000 C   0  0  0  0  0  0  0  0  0  0  0  0
    1.1535   -1.3148    0.0000 C   0  0  0  0  0  0  0  0  0  0  0  0
    2.3150   -1.9924    0.0000 C   0  0  0  0  0  0  0  0  0  0  0  0
    2.3150   -3.3071    0.0000 C   0  0  0  0  0  0  0  0  0  0  0  0
  1  2  1  0  0  0  0
  1  3  1  0  0  0  0
  3  4  2  0  0  0  0
  3  5  1  0  0  0  0
  5  6  1  0  0  0  0
  6 11  1  0  0  0  0
  7 12  2  0  0  0  0
  7  8  1  0  0  0  0
  8  9  2  0  0  0  0
  9 10  1  0  0  0  0
 10 11  2  0  0  0  0
 11 12  1  0  0  0  0
M  END
> <ID>
12587

> <Formula>
C8H10N2O2

> <FW>
166.1772

> <DSSTox_CID>
27447

> <DSSTox_RID>
82353

> <DSSTox_GSID>
47447

> <DSSTox_FileID_Sort>
7034

> <TS_ChemName>
Hydrazinecarboxylic acid, phenylmethyl ester

> <TS_ChemName_Synonyms>


> <TS_CASRN>
5331-43-1

> <CASRN_ChemName_Relationship>
primary

> <TS_Description>
single chemical compound

> <ChemNote>


> <STRUCTURE_Shown>
tested chemical

> <STRUCTURE_Formula>
C8H10N2O2

> <STRUCTURE_MW>
166.1772

> <STRUCTURE_ChemType>
defined organic

> <STRUCTURE_DefinedOrganicForm>
parent

> <STRUCTURE_IUPAC>
benzyl hydrazinecarboxylate

> <STRUCTURE_SMILES>
NNC(=O)OCc1ccccc1

> <STRUCTURE_SMILES_Desalt>
NNC(=O)OCc1ccccc1

> <Substance_modify_yyyymmdd>
20100620

$$$$
