5332-73-0
ChemmineR-0915142007XD

  6  5  0  0  0  0  0  0  0  0  1 V2000
    1.1480    0.0000    0.0000 C   0  0  0  0  0  0  0  0  0  0  0  0
    2.2960   -0.6716    0.0000 C   0  0  0  0  0  0  0  0  0  0  0  0
    3.4440    0.0000    0.0000 C   0  0  0  0  0  0  0  0  0  0  0  0
    0.0000   -0.6716    0.0000 N   0  0  0  0  0  0  0  0  0  0  0  0
    4.5920   -0.6716    0.0000 O   0  0  0  0  0  0  0  0  0  0  0  0
    5.7400    0.0000    0.0000 C   0  0  0  0  0  0  0  0  0  0  0  0
  1  2  1  0  0  0  0
  1  4  1  0  0  0  0
  2  3  1  0  0  0  0
  3  5  1  0  0  0  0
  5  6  1  0  0  0  0
M  END
> <ID>
5279

> <Formula>
C4H11NO

> <FW>
89.1362

> <DSSTox_CID>
7596

> <DSSTox_RID>
78522

> <DSSTox_GSID>
27596

> <DSSTox_FileID_Sort>
3205

> <TS_ChemName>
3-Methoxypropylamine

> <TS_ChemName_Synonyms>


> <TS_CASRN>
5332-73-0

> <CASRN_ChemName_Relationship>
primary

> <TS_Description>
single chemical compound

> <ChemNote>


> <STRUCTURE_Shown>
tested chemical

> <STRUCTURE_Formula>
C4H11NO

> <STRUCTURE_MW>
89.1362

> <STRUCTURE_ChemType>
defined organic

> <STRUCTURE_DefinedOrganicForm>
parent

> <STRUCTURE_IUPAC>
3-methoxypropan-1-amine

> <STRUCTURE_SMILES>
NCCCOC

> <STRUCTURE_SMILES_Desalt>
NCCCOC

> <Substance_modify_yyyymmdd>
20080429

$$$$
