5333-42-6
ChemmineR-0915142007XD

 21 20  0  0  0  0  0  0  0  0  1 V2000
    9.2149   -0.6641    0.0000 C   0  0  0  0  0  0  0  0  0  0  0  0
    9.2149   -1.9924    0.0000 C   0  0  0  0  0  0  0  0  0  0  0  0
   10.3771   -2.6565    0.0000 C   0  0  0  0  0  0  0  0  0  0  0  0
   11.5394   -1.9924    0.0000 C   0  0  0  0  0  0  0  0  0  0  0  0
   12.6808   -2.6565    0.0000 C   0  0  0  0  0  0  0  0  0  0  0  0
   13.8431   -1.9924    0.0000 C   0  0  0  0  0  0  0  0  0  0  0  0
   14.9846   -2.6565    0.0000 C   0  0  0  0  0  0  0  0  0  0  0  0
   16.1260   -1.9924    0.0000 C   0  0  0  0  0  0  0  0  0  0  0  0
   17.2883   -2.6565    0.0000 C   0  0  0  0  0  0  0  0  0  0  0  0
   18.4505   -1.9924    0.0000 C   0  0  0  0  0  0  0  0  0  0  0  0
   19.5920   -2.6565    0.0000 C   0  0  0  0  0  0  0  0  0  0  0  0
   20.7542   -1.9924    0.0000 C   0  0  0  0  0  0  0  0  0  0  0  0
    8.0734    0.0000    0.0000 O   0  0  0  0  0  0  0  0  0  0  0  0
    8.0734   -2.6565    0.0000 C   0  0  0  0  0  0  0  0  0  0  0  0
    6.9112   -1.9924    0.0000 C   0  0  0  0  0  0  0  0  0  0  0  0
    5.7489   -2.6565    0.0000 C   0  0  0  0  0  0  0  0  0  0  0  0
    4.6074   -1.9924    0.0000 C   0  0  0  0  0  0  0  0  0  0  0  0
    3.4660   -2.6565    0.0000 C   0  0  0  0  0  0  0  0  0  0  0  0
    2.3037   -1.9924    0.0000 C   0  0  0  0  0  0  0  0  0  0  0  0
    1.1622   -2.6565    0.0000 C   0  0  0  0  0  0  0  0  0  0  0  0
    0.0000   -1.9924    0.0000 C   0  0  0  0  0  0  0  0  0  0  0  0
  1  2  1  0  0  0  0
  1 13  1  0  0  0  0
  2  3  1  0  0  0  0
  2 14  1  0  0  0  0
  3  4  1  0  0  0  0
  4  5  1  0  0  0  0
  5  6  1  0  0  0  0
  6  7  1  0  0  0  0
  7  8  1  0  0  0  0
  8  9  1  0  0  0  0
  9 10  1  0  0  0  0
 10 11  1  0  0  0  0
 11 12  1  0  0  0  0
 14 15  1  0  0  0  0
 15 16  1  0  0  0  0
 16 17  1  0  0  0  0
 17 18  1  0  0  0  0
 18 19  1  0  0  0  0
 19 20  1  0  0  0  0
 20 21  1  0  0  0  0
M  END
> <ID>
7107

> <Formula>
C20H42O

> <FW>
298.5469

> <DSSTox_CID>
16288

> <DSSTox_RID>
79277

> <DSSTox_GSID>
36288

> <DSSTox_FileID_Sort>
3959

> <TS_ChemName>
2-Octyl-1-dodecanol

> <TS_ChemName_Synonyms>
1-Dodecanol, 2-octyl-

> <TS_CASRN>
5333-42-6

> <CASRN_ChemName_Relationship>
primary

> <TS_Description>
single chemical compound

> <ChemNote>


> <STRUCTURE_Shown>
tested chemical

> <STRUCTURE_Formula>
C20H42O

> <STRUCTURE_MW>
298.5469

> <STRUCTURE_ChemType>
defined organic

> <STRUCTURE_DefinedOrganicForm>
parent

> <STRUCTURE_IUPAC>
2-octyldodecan-1-ol

> <STRUCTURE_SMILES>
CCCCCCCCC(CCCCCCCCCC)CO

> <STRUCTURE_SMILES_Desalt>
CCCCCCCCC(CCCCCCCCCC)CO

> <Substance_modify_yyyymmdd>
20080429

$$$$
