53370-90-4
ChemmineR-0915142007XD

 16 16  0  0  0  0  0  0  0  0  1 V2000
    2.2879   -1.9967    0.0000 C   0  0  0  0  0  0  0  0  0  0  0  0
    3.4319   -1.3312    0.0000 C   0  0  0  0  0  0  0  0  0  0  0  0
    2.2879   -3.3383    0.0000 C   0  0  0  0  0  0  0  0  0  0  0  0
    4.5759   -1.9863    0.0000 N   0  0  0  0  0  0  0  0  0  0  0  0
    3.4319    0.0000    0.0000 O   0  0  0  0  0  0  0  0  0  0  0  0
    1.1440   -1.3520    0.0000 C   0  0  0  0  0  0  0  0  0  0  0  0
    3.4631   -3.9831    0.0000 O   0  0  0  0  0  0  0  0  0  0  0  0
    1.1440   -4.0039    0.0000 C   0  0  0  0  0  0  0  0  0  0  0  0
    4.6071   -3.3175    0.0000 C   0  0  0  0  0  0  0  0  0  0  0  0
    5.7718   -3.9727    0.0000 C   0  0  0  0  0  0  0  0  0  0  0  0
    9.2246   -3.2551    0.0000 C   0  0  0  0  0  0  0  0  0  0  0  0
    8.0910   -3.9415    0.0000 C   0  0  0  0  0  0  0  0  0  0  0  0
    6.9158   -3.2863    0.0000 C   0  0  0  0  0  0  0  0  0  0  0  0
    0.0000   -1.9967    0.0000 C   0  0  0  0  0  0  0  0  0  0  0  0
   10.3997   -3.9103    0.0000 C   0  0  0  0  0  0  0  0  0  0  0  0
    0.0000   -3.3383    0.0000 C   0  0  0  0  0  0  0  0  0  0  0  0
  1  2  1  0  0  0  0
  1  3  1  0  0  0  0
  1  6  2  0  0  0  0
  2  4  1  0  0  0  0
  2  5  2  0  0  0  0
  3  7  1  0  0  0  0
  3  8  2  0  0  0  0
  6 14  1  0  0  0  0
  7  9  1  0  0  0  0
  8 16  1  0  0  0  0
  9 10  1  0  0  0  0
 10 13  1  0  0  0  0
 11 12  1  0  0  0  0
 11 15  1  0  0  0  0
 12 13  1  0  0  0  0
 14 16  2  0  0  0  0
M  END
> <ID>
11279

> <Formula>
C13H19NO2

> <FW>
221.2955

> <DSSTox_CID>
25899

> <DSSTox_RID>
81211

> <DSSTox_GSID>
45899

> <DSSTox_FileID_Sort>
5892

> <TS_ChemName>
Exalamide

> <TS_ChemName_Synonyms>


> <TS_CASRN>
53370-90-4

> <CASRN_ChemName_Relationship>
primary

> <TS_Description>
single chemical compound

> <ChemNote>


> <STRUCTURE_Shown>
tested chemical

> <STRUCTURE_Formula>
C13H19NO2

> <STRUCTURE_MW>
221.2955

> <STRUCTURE_ChemType>
defined organic

> <STRUCTURE_DefinedOrganicForm>
parent

> <STRUCTURE_IUPAC>
2-(hexyloxy)benzamide

> <STRUCTURE_SMILES>
NC(=O)c1ccccc1OCCCCCC

> <STRUCTURE_SMILES_Desalt>
NC(=O)c1ccccc1OCCCCCC

> <Substance_modify_yyyymmdd>
20110922

$$$$
