534-85-0
ChemmineR-0915142007XD

 14 15  0  0  0  0  0  0  0  0  1 V2000
    6.9275   -3.3252    0.0000 C   0  0  0  0  0  0  0  0  0  0  0  0
    6.9275   -2.0020    0.0000 C   0  0  0  0  0  0  0  0  0  0  0  0
    5.7775   -3.9833    0.0000 C   0  0  0  0  0  0  0  0  0  0  0  0
    0.0000   -3.3252    0.0000 C   0  0  0  0  0  0  0  0  0  0  0  0
    1.1707   -3.9833    0.0000 C   0  0  0  0  0  0  0  0  0  0  0  0
    5.7775   -1.3301    0.0000 C   0  0  0  0  0  0  0  0  0  0  0  0
    4.6206   -3.3252    0.0000 C   0  0  0  0  0  0  0  0  0  0  0  0
    0.0000   -2.0020    0.0000 C   0  0  0  0  0  0  0  0  0  0  0  0
    2.3069   -3.3252    0.0000 C   0  0  0  0  0  0  0  0  0  0  0  0
    4.6206   -2.0020    0.0000 C   0  0  0  0  0  0  0  0  0  0  0  0
    1.1707   -1.3301    0.0000 C   0  0  0  0  0  0  0  0  0  0  0  0
    2.3069   -2.0020    0.0000 C   0  0  0  0  0  0  0  0  0  0  0  0
    1.1707    0.0000    0.0000 N   0  0  0  0  0  0  0  0  0  0  0  0
    3.4707   -1.3301    0.0000 N   0  0  0  0  0  0  0  0  0  0  0  0
  1  2  2  0  0  0  0
  1  3  1  0  0  0  0
  2  6  1  0  0  0  0
  3  7  2  0  0  0  0
  4  5  2  0  0  0  0
  4  8  1  0  0  0  0
  5  9  1  0  0  0  0
  6 10  2  0  0  0  0
  7 10  1  0  0  0  0
  8 11  2  0  0  0  0
  9 12  2  0  0  0  0
 10 14  1  0  0  0  0
 11 12  1  0  0  0  0
 11 13  1  0  0  0  0
 12 14  1  0  0  0  0
M  END
> <ID>
14179

> <Formula>
C12H12N2

> <FW>
184.2371

> <DSSTox_CID>
29271

> <DSSTox_RID>
83390

> <DSSTox_GSID>
49315

> <DSSTox_FileID_Sort>
8065

> <TS_ChemName>
1,2-Benzenediamine,N-phenyl-

> <TS_ChemName_Synonyms>


> <TS_CASRN>
534-85-0

> <CASRN_ChemName_Relationship>
primary

> <TS_Description>
single chemical compound

> <ChemNote>


> <STRUCTURE_Shown>
tested chemical

> <STRUCTURE_Formula>
C12H12N2

> <STRUCTURE_MW>
184.2371

> <STRUCTURE_ChemType>
defined organic

> <STRUCTURE_DefinedOrganicForm>
parent

> <STRUCTURE_IUPAC>
N-phenylbenzene-1,2-diamine

> <STRUCTURE_SMILES>
Nc2ccccc2Nc1ccccc1

> <STRUCTURE_SMILES_Desalt>
Nc2ccccc2Nc1ccccc1

> <Substance_modify_yyyymmdd>
20111204

$$$$
