534-15-6
ChemmineR-0915142007XD

  6  5  0  0  0  0  0  0  0  0  1 V2000
    2.2870   -1.3318    0.0000 C   0  0  0  0  0  0  0  0  0  0  0  0
    2.2870    0.0000    0.0000 C   0  0  0  0  0  0  0  0  0  0  0  0
    1.1343   -2.0023    0.0000 O   0  0  0  0  0  0  0  0  0  0  0  0
    0.0000   -1.3318    0.0000 C   0  0  0  0  0  0  0  0  0  0  0  0
    3.4397   -2.0023    0.0000 O   0  0  0  0  0  0  0  0  0  0  0  0
    4.5924   -1.3318    0.0000 C   0  0  0  0  0  0  0  0  0  0  0  0
  1  2  1  0  0  0  0
  1  3  1  0  0  0  0
  1  5  1  0  0  0  0
  3  4  1  0  0  0  0
  5  6  1  0  0  0  0
M  END
> <ID>
4974

> <Formula>
C4H10O2

> <FW>
90.121

> <DSSTox_CID>
7178

> <DSSTox_RID>
78336

> <DSSTox_GSID>
27178

> <DSSTox_FileID_Sort>
3019

> <TS_ChemName>
1,1-Dimethoxyethane

> <TS_ChemName_Synonyms>


> <TS_CASRN>
534-15-6

> <CASRN_ChemName_Relationship>
primary

> <TS_Description>
single chemical compound

> <ChemNote>


> <STRUCTURE_Shown>
tested chemical

> <STRUCTURE_Formula>
C4H10O2

> <STRUCTURE_MW>
90.121

> <STRUCTURE_ChemType>
defined organic

> <STRUCTURE_DefinedOrganicForm>
parent

> <STRUCTURE_IUPAC>
1,1-dimethoxyethane

> <STRUCTURE_SMILES>
CC(OC)OC

> <STRUCTURE_SMILES_Desalt>
CC(OC)OC

> <Substance_modify_yyyymmdd>
20080429

$$$$
