534-13-4
ChemmineR-0915142007XD

  6  5  0  0  0  0  0  0  0  0  1 V2000
    2.3105   -1.3355    0.0000 C   0  0  0  0  0  0  0  0  0  0  0  0
    2.3105    0.0000    0.0000 S   0  0  0  0  0  0  0  0  0  0  0  0
    3.4658   -1.9917    0.0000 N   0  0  0  0  0  0  0  0  0  0  0  0
    1.1691   -1.9917    0.0000 N   0  0  0  0  0  0  0  0  0  0  0  0
    4.6211   -1.3355    0.0000 C   0  0  0  0  0  0  0  0  0  0  0  0
    0.0000   -1.3355    0.0000 C   0  0  0  0  0  0  0  0  0  0  0  0
  1  2  2  0  0  0  0
  1  3  1  0  0  0  0
  1  4  1  0  0  0  0
  3  5  1  0  0  0  0
  4  6  1  0  0  0  0
M  END
> <ID>
9121

> <Formula>
C3H8N2S

> <FW>
104.174

> <DSSTox_CID>
22191

> <DSSTox_RID>
79951

> <DSSTox_GSID>
42191

> <DSSTox_FileID_Sort>
4633

> <TS_ChemName>
N,N'-Dimethylthiourea

> <TS_ChemName_Synonyms>


> <TS_CASRN>
534-13-4

> <CASRN_ChemName_Relationship>
primary

> <TS_Description>
single chemical compound

> <ChemNote>


> <STRUCTURE_Shown>
tested chemical

> <STRUCTURE_Formula>
C3H8N2S

> <STRUCTURE_MW>
104.174

> <STRUCTURE_ChemType>
defined organic

> <STRUCTURE_DefinedOrganicForm>
parent

> <STRUCTURE_IUPAC>
1,3-dimethylthiourea

> <STRUCTURE_SMILES>
CNC(=S)NC

> <STRUCTURE_SMILES_Desalt>
CNC(=S)NC

> <Substance_modify_yyyymmdd>
20080825

$$$$
