534-22-5
ChemmineR-0915142007XD

  6  6  0  0  0  0  0  0  0  0  1 V2000
    0.0000   -1.0738    0.0000 C   0  0  0  0  0  0  0  0  0  0  0  0
    1.3304   -1.0738    0.0000 C   0  0  0  0  0  0  0  0  0  0  0  0
    2.1104    0.0000    0.0000 C   0  0  0  0  0  0  0  0  0  0  0  0
    3.3767   -0.4086    0.0000 C   0  0  0  0  0  0  0  0  0  0  0  0
    3.3767   -1.7390    0.0000 C   0  0  0  0  0  0  0  0  0  0  0  0
    2.1104   -2.1509    0.0000 O   0  0  0  0  0  0  0  0  0  0  0  0
  1  2  1  0  0  0  0
  2  3  2  0  0  0  0
  2  6  1  0  0  0  0
  3  4  1  0  0  0  0
  4  5  2  0  0  0  0
  5  6  1  0  0  0  0
M  END
> <ID>
4299

> <Formula>
C5H6O

> <FW>
82.1005

> <DSSTox_CID>
5611

> <DSSTox_RID>
77854

> <DSSTox_GSID>
25611

> <DSSTox_FileID_Sort>
2537

> <TS_ChemName>
2-Methylfuran

> <TS_ChemName_Synonyms>


> <TS_CASRN>
534-22-5

> <CASRN_ChemName_Relationship>
primary

> <TS_Description>
single chemical compound

> <ChemNote>


> <STRUCTURE_Shown>
tested chemical

> <STRUCTURE_Formula>
C5H6O

> <STRUCTURE_MW>
82.1005

> <STRUCTURE_ChemType>
defined organic

> <STRUCTURE_DefinedOrganicForm>
parent

> <STRUCTURE_IUPAC>
2-methylfuran

> <STRUCTURE_SMILES>
Cc1ccco1

> <STRUCTURE_SMILES_Desalt>
Cc1ccco1

> <Substance_modify_yyyymmdd>
20080429

$$$$
