534-84-9
ChemmineR-0915142007XD

 14 15  0  0  0  0  0  0  0  0  1 V2000
    5.7567    0.0000    0.0000 O   0  0  0  0  0  0  0  0  0  0  0  0
    5.7567   -1.3269    0.0000 C   0  0  0  0  0  0  0  0  0  0  0  0
    6.9108   -1.9903    0.0000 C   0  0  0  0  0  0  0  0  0  0  0  0
    6.9108   -3.3241    0.0000 C   0  0  0  0  0  0  0  0  0  0  0  0
    5.7567   -3.9875    0.0000 C   0  0  0  0  0  0  0  0  0  0  0  0
    4.6095   -3.3241    0.0000 C   0  0  0  0  0  0  0  0  0  0  0  0
    4.6095   -1.9903    0.0000 C   0  0  0  0  0  0  0  0  0  0  0  0
    3.4554   -1.3269    0.0000 C   0  0  0  0  0  0  0  0  0  0  0  0
    2.3013   -1.9903    0.0000 N   0  0  0  0  0  0  0  0  0  0  0  0
    2.3013   -3.3241    0.0000 C   0  0  0  0  0  0  0  0  0  0  0  0
    1.1541   -3.9875    0.0000 C   0  0  0  0  0  0  0  0  0  0  0  0
    0.0000   -3.3241    0.0000 C   0  0  0  0  0  0  0  0  0  0  0  0
    0.0000   -1.9903    0.0000 C   0  0  0  0  0  0  0  0  0  0  0  0
    1.1541   -1.3269    0.0000 C   0  0  0  0  0  0  0  0  0  0  0  0
  1  2  2  0  0  0  0
  2  3  1  0  0  0  0
  2  7  1  0  0  0  0
  3  4  1  0  0  0  0
  4  5  1  0  0  0  0
  5  6  1  0  0  0  0
  6  7  1  0  0  0  0
  7  8  1  0  0  0  0
  8  9  1  0  0  0  0
  9 10  1  0  0  0  0
  9 14  1  0  0  0  0
 10 11  1  0  0  0  0
 11 12  1  0  0  0  0
 12 13  1  0  0  0  0
 13 14  1  0  0  0  0
M  END
> <ID>
11492

> <Formula>
C12H21NO

> <FW>
195.3012

> <DSSTox_CID>
26194

> <DSSTox_RID>
81425

> <DSSTox_GSID>
46194

> <DSSTox_FileID_Sort>
6106

> <TS_ChemName>
Pimeclone

> <TS_ChemName_Synonyms>


> <TS_CASRN>
534-84-9

> <CASRN_ChemName_Relationship>
primary

> <TS_Description>
single chemical compound

> <ChemNote>


> <STRUCTURE_Shown>
tested chemical

> <STRUCTURE_Formula>
C12H21NO

> <STRUCTURE_MW>
195.3012

> <STRUCTURE_ChemType>
defined organic

> <STRUCTURE_DefinedOrganicForm>
parent

> <STRUCTURE_IUPAC>
2-(piperidin-1-ylmethyl)cyclohexanone

> <STRUCTURE_SMILES>
O=C2CCCCC2CN1CCCCC1

> <STRUCTURE_SMILES_Desalt>
O=C2CCCCC2CN1CCCCC1

> <Substance_modify_yyyymmdd>
20110817

$$$$
