5344-27-4
ChemmineR-0915142007XD

  9  9  0  0  0  0  0  0  0  0  1 V2000
    0.0000   -1.1491    0.0000 N   0  0  0  0  0  0  0  0  0  0  0  0
    0.6703    0.0000    0.0000 C   0  0  0  0  0  0  0  0  0  0  0  0
    0.6703   -2.3042    0.0000 C   0  0  0  0  0  0  0  0  0  0  0  0
    1.9990   -2.3042    0.0000 C   0  0  0  0  0  0  0  0  0  0  0  0
    1.9990    0.0000    0.0000 C   0  0  0  0  0  0  0  0  0  0  0  0
    2.6574   -1.1491    0.0000 C   0  0  0  0  0  0  0  0  0  0  0  0
    4.6564   -2.3042    0.0000 C   0  0  0  0  0  0  0  0  0  0  0  0
    3.9860   -1.1491    0.0000 C   0  0  0  0  0  0  0  0  0  0  0  0
    5.9850   -2.3042    0.0000 O   0  0  0  0  0  0  0  0  0  0  0  0
  1  2  2  0  0  0  0
  1  3  1  0  0  0  0
  2  5  1  0  0  0  0
  3  4  2  0  0  0  0
  4  6  1  0  0  0  0
  5  6  2  0  0  0  0
  6  8  1  0  0  0  0
  7  8  1  0  0  0  0
  7  9  1  0  0  0  0
M  END
> <ID>
10600

> <Formula>
C7H9NO

> <FW>
123.1525

> <DSSTox_CID>
24953

> <DSSTox_RID>
80612

> <DSSTox_GSID>
44953

> <DSSTox_FileID_Sort>
5294

> <TS_ChemName>
2-(Pyridin-4-yl)ethanol

> <TS_ChemName_Synonyms>
2-(Pyridin-4-yl)ethanol (4-Pyridineethanol)

> <TS_CASRN>
5344-27-4

> <CASRN_ChemName_Relationship>
primary

> <TS_Description>
single chemical compound

> <ChemNote>


> <STRUCTURE_Shown>
tested chemical

> <STRUCTURE_Formula>
C7H9NO

> <STRUCTURE_MW>
123.1525

> <STRUCTURE_ChemType>
defined organic

> <STRUCTURE_DefinedOrganicForm>
parent

> <STRUCTURE_IUPAC>
2-(pyridin-4-yl)ethanol

> <STRUCTURE_SMILES>
OCCc1ccncc1

> <STRUCTURE_SMILES_Desalt>
OCCc1ccncc1

> <Substance_modify_yyyymmdd>
20091116

$$$$
