5349-51-9
ChemmineR-0915142007XD

 12 12  0  0  0  0  0  0  0  0  1 V2000
    5.9806   -1.3307    0.0000 C   0  0  0  0  0  0  0  0  0  0  0  0
    5.3153   -2.4858    0.0000 C   0  0  0  0  0  0  0  0  0  0  0  0
    3.9846   -2.4858    0.0000 C   0  0  0  0  0  0  0  0  0  0  0  0
    3.3266   -1.3307    0.0000 C   0  0  0  0  0  0  0  0  0  0  0  0
    3.9846   -0.1828    0.0000 C   0  0  0  0  0  0  0  0  0  0  0  0
    5.3153   -0.1828    0.0000 C   0  0  0  0  0  0  0  0  0  0  0  0
    7.3113   -1.3307    0.0000 O   0  0  0  0  0  0  0  0  0  0  0  0
    1.9960   -1.3307    0.0000 C   0  0  0  0  0  0  0  0  0  0  0  0
    0.6653   -1.3307    0.0000 C   0  0  0  0  0  0  0  0  0  0  0  0
    1.9960   -2.6613    0.0000 C   0  0  0  0  0  0  0  0  0  0  0  0
    1.9960    0.0000    0.0000 C   0  0  0  0  0  0  0  0  0  0  0  0
    0.0000   -2.4858    0.0000 C   0  0  0  0  0  0  0  0  0  0  0  0
  1  2  1  0  0  0  0
  1  6  1  0  0  0  0
  1  7  1  0  0  0  0
  2  3  1  0  0  0  0
  3  4  1  0  0  0  0
  4  5  1  0  0  0  0
  4  8  1  0  0  0  0
  5  6  1  0  0  0  0
  8 10  1  0  0  0  0
  8 11  1  0  0  0  0
  8  9  1  0  0  0  0
  9 12  1  0  0  0  0
M  END
> <ID>
7912

> <Formula>
C11H22O

> <FW>
170.2918

> <DSSTox_CID>
20716

> <DSSTox_RID>
79564

> <DSSTox_GSID>
40716

> <DSSTox_FileID_Sort>
4246

> <TS_ChemName>
4-(2-Methylbutan-2-yl)cyclohexanol

> <TS_ChemName_Synonyms>
4-(2-Methylbutan-2-yl)cyclohexanol (4-tert-amylcyclohexanol)

> <TS_CASRN>
5349-51-9

> <CASRN_ChemName_Relationship>
primary

> <TS_Description>
single chemical compound

> <ChemNote>


> <STRUCTURE_Shown>
tested chemical

> <STRUCTURE_Formula>
C11H22O

> <STRUCTURE_MW>
170.2918

> <STRUCTURE_ChemType>
defined organic

> <STRUCTURE_DefinedOrganicForm>
parent

> <STRUCTURE_IUPAC>
4-(2-methylbutan-2-yl)cyclohexanol

> <STRUCTURE_SMILES>
OC1CCC(CC1)C(C)(C)CC

> <STRUCTURE_SMILES_Desalt>
OC1CCC(CC1)C(C)(C)CC

> <Substance_modify_yyyymmdd>
20080429

$$$$
