535-80-8
ChemmineR-0915142007XD

 10 10  0  0  0  0  0  0  0  0  1 V2000
    3.9889   -2.3040    0.0000 C    0  0  0  0  0  0  0  0  0  0  0  0
    4.6545   -3.4536    0.0000 O    0  0  0  0  0  0  0  0  0  0  0  0
    4.6545   -1.1497    0.0000 O    0  0  0  0  0  0  0  0  0  0  0  0
    2.6577   -2.3040    0.0000 C    0  0  0  0  0  0  0  0  0  0  0  0
    1.9968   -3.4536    0.0000 C    0  0  0  0  0  0  0  0  0  0  0  0
    0.6656   -3.4536    0.0000 C    0  0  0  0  0  0  0  0  0  0  0  0
    0.0000   -2.3040    0.0000 C    0  0  0  0  0  0  0  0  0  0  0  0
    0.6656   -1.1497    0.0000 C    0  0  0  0  0  0  0  0  0  0  0  0
    0.0000    0.0000    0.0000 Cl   0  0  0  0  0  0  0  0  0  0  0  0
    1.9968   -1.1497    0.0000 C    0  0  0  0  0  0  0  0  0  0  0  0
  1  2  2  0  0  0  0
  1  3  1  0  0  0  0
  1  4  1  0  0  0  0
  4  5  2  0  0  0  0
  4 10  1  0  0  0  0
  5  6  1  0  0  0  0
  6  7  2  0  0  0  0
  7  8  1  0  0  0  0
  8  9  1  0  0  0  0
  8 10  2  0  0  0  0
M  END
> <ID>
3844

> <Formula>
C7H5ClO2

> <FW>
156.5664

> <DSSTox_CID>
4770

> <DSSTox_RID>
77523

> <DSSTox_GSID>
24770

> <DSSTox_FileID_Sort>
2206

> <TS_ChemName>
3-Chlorobenzoic acid

> <TS_ChemName_Synonyms>
3-Chlorobenzoic acid (m-Chlorobenzoic acid)

> <TS_CASRN>
535-80-8

> <CASRN_ChemName_Relationship>
primary

> <TS_Description>
single chemical compound

> <ChemNote>


> <STRUCTURE_Shown>
tested chemical

> <STRUCTURE_Formula>
C7H5ClO2

> <STRUCTURE_MW>
156.5664

> <STRUCTURE_ChemType>
defined organic

> <STRUCTURE_DefinedOrganicForm>
parent

> <STRUCTURE_IUPAC>
3-chlorobenzoic acid

> <STRUCTURE_SMILES>
OC(=O)c1cc(Cl)ccc1

> <STRUCTURE_SMILES_Desalt>
OC(=O)c1cc(Cl)ccc1

> <Substance_modify_yyyymmdd>
20080429

$$$$
