535-65-9
ChemmineR-0915142007XD

 20 21  0  0  0  0  0  0  0  0  1 V2000
    0.0000   -8.9469    0.0000 C   0  0  0  0  0  0  0  0  0  0  0  0
    1.0697   -9.7357    0.0000 C   0  0  0  0  0  0  0  0  0  0  0  0
    2.1503  -10.5137    0.0000 C   0  0  0  0  0  0  0  0  0  0  0  0
    0.2917  -10.8054    0.0000 C   0  0  0  0  0  0  0  0  0  0  0  0
    1.8585   -8.6551    0.0000 C   0  0  0  0  0  0  0  0  0  0  0  0
    3.1876   -8.6551    0.0000 N   0  0  0  0  0  0  0  0  0  0  0  0
    3.5982   -7.3909    0.0000 N   0  0  0  0  0  0  0  0  0  0  0  0
    2.5285   -6.6129    0.0000 C   0  0  0  0  0  0  0  0  0  0  0  0
    2.5285   -5.2838    0.0000 N   0  0  0  0  0  0  0  0  0  0  0  0
    3.6630   -4.6139    0.0000 S   0  0  0  0  0  0  0  0  0  0  0  0
    4.8300   -3.9548    0.0000 O   0  0  0  0  0  0  0  0  0  0  0  0
    4.3330   -5.7593    0.0000 O   0  0  0  0  0  0  0  0  0  0  0  0
    3.0147   -3.4577    0.0000 C   0  0  0  0  0  0  0  0  0  0  0  0
    3.6630   -2.3015    0.0000 C   0  0  0  0  0  0  0  0  0  0  0  0
    3.0147   -1.1562    0.0000 C   0  0  0  0  0  0  0  0  0  0  0  0
    1.6856   -1.1562    0.0000 C   0  0  0  0  0  0  0  0  0  0  0  0
    1.0049    0.0000    0.0000 N   0  0  0  0  0  0  0  0  0  0  0  0
    1.0049   -2.3015    0.0000 C   0  0  0  0  0  0  0  0  0  0  0  0
    1.6856   -3.4577    0.0000 C   0  0  0  0  0  0  0  0  0  0  0  0
    1.4371   -7.3909    0.0000 S   0  0  0  0  0  0  0  0  0  0  0  0
  1  2  1  0  0  0  0
  2  3  1  0  0  0  0
  2  4  1  0  0  0  0
  2  5  1  0  0  0  0
  5  6  2  0  0  0  0
  5 20  1  0  0  0  0
  6  7  1  0  0  0  0
  7  8  2  0  0  0  0
  8  9  1  0  0  0  0
  8 20  1  0  0  0  0
  9 10  1  0  0  0  0
 10 11  2  0  0  0  0
 10 12  2  0  0  0  0
 10 13  1  0  0  0  0
 13 14  2  0  0  0  0
 13 19  1  0  0  0  0
 14 15  1  0  0  0  0
 15 16  2  0  0  0  0
 16 17  1  0  0  0  0
 16 18  1  0  0  0  0
 18 19  2  0  0  0  0
M  END
> <ID>
16161

> <Formula>
C12H16N4O2S2

> <FW>
312.411

> <DSSTox_CID>
31551

> <DSSTox_RID>
97436

> <DSSTox_GSID>
57762

> <DSSTox_FileID_Sort>
8503

> <TS_ChemName>
Glybuthiazol

> <TS_ChemName_Synonyms>


> <TS_CASRN>
535-65-9

> <CASRN_ChemName_Relationship>
primary

> <TS_Description>
single chemical compound

> <ChemNote>


> <STRUCTURE_Shown>
tested chemical

> <STRUCTURE_Formula>
C12H16N4O2S2

> <STRUCTURE_MW>
312.411

> <STRUCTURE_ChemType>
defined organic

> <STRUCTURE_DefinedOrganicForm>
parent

> <STRUCTURE_IUPAC>
4-amino-N-(5-tert-butyl-1,3,4-thiadiazol-2-yl)benzenesulfonamide

> <STRUCTURE_SMILES>
O=S(=O)(Nc1nnc(s1)C(C)(C)C)c2ccc(N)cc2

> <STRUCTURE_SMILES_Desalt>
O=S(=O)(Nc1nnc(s1)C(C)(C)C)c2ccc(N)cc2

> <Substance_modify_yyyymmdd>
20131018

$$$$
