535-87-5
ChemmineR-0915142007XD

 11 11  0  0  0  0  0  0  0  0  1 V2000
    4.6398   -1.3364    0.0000 C   0  0  0  0  0  0  0  0  0  0  0  0
    4.6398    0.0000    0.0000 O   0  0  0  0  0  0  0  0  0  0  0  0
    3.4596   -1.9901    0.0000 C   0  0  0  0  0  0  0  0  0  0  0  0
    5.7853   -1.9901    0.0000 O   0  0  0  0  0  0  0  0  0  0  0  0
    2.3257   -1.3364    0.0000 C   0  0  0  0  0  0  0  0  0  0  0  0
    3.4596   -3.3323    0.0000 C   0  0  0  0  0  0  0  0  0  0  0  0
    1.1802   -1.9901    0.0000 C   0  0  0  0  0  0  0  0  0  0  0  0
    2.3257   -3.9861    0.0000 C   0  0  0  0  0  0  0  0  0  0  0  0
    1.1802   -3.3323    0.0000 C   0  0  0  0  0  0  0  0  0  0  0  0
    0.0000   -1.3364    0.0000 N   0  0  0  0  0  0  0  0  0  0  0  0
    2.3257   -5.3225    0.0000 N   0  0  0  0  0  0  0  0  0  0  0  0
  1  2  2  0  0  0  0
  1  3  1  0  0  0  0
  1  4  1  0  0  0  0
  3  5  2  0  0  0  0
  3  6  1  0  0  0  0
  5  7  1  0  0  0  0
  6  8  2  0  0  0  0
  7  9  2  0  0  0  0
  7 10  1  0  0  0  0
  8  9  1  0  0  0  0
  8 11  1  0  0  0  0
M  END
> <ID>
10094

> <Formula>
C7H8N2O2

> <FW>
152.1506

> <DSSTox_CID>
24437

> <DSSTox_RID>
80227

> <DSSTox_GSID>
44437

> <DSSTox_FileID_Sort>
4909

> <TS_ChemName>
3,5-Diaminobenzoic acid

> <TS_ChemName_Synonyms>
3,5-Diaminobenzoic acid (Benzoic acid, 3,5-diamino-)

> <TS_CASRN>
535-87-5

> <CASRN_ChemName_Relationship>
primary

> <TS_Description>
single chemical compound

> <ChemNote>


> <STRUCTURE_Shown>
tested chemical

> <STRUCTURE_Formula>
C7H8N2O2

> <STRUCTURE_MW>
152.1506

> <STRUCTURE_ChemType>
defined organic

> <STRUCTURE_DefinedOrganicForm>
parent

> <STRUCTURE_IUPAC>
3,5-diaminobenzoic acid

> <STRUCTURE_SMILES>
Nc1cc(cc(N)c1)C(=O)O

> <STRUCTURE_SMILES_Desalt>
Nc1cc(cc(N)c1)C(=O)O

> <Substance_modify_yyyymmdd>
20091116

$$$$
