5355-16-8
ChemmineR-0915142007XD

 19 20  0  0  0  0  0  0  0  0  1 V2000
    9.1844   -1.9962    0.0000 N   0  0  0  0  0  0  0  0  0  0  0  0
    8.0260   -1.3342    0.0000 C   0  0  0  0  0  0  0  0  0  0  0  0
    6.8779   -1.9962    0.0000 C   0  0  0  0  0  0  0  0  0  0  0  0
    9.1844   -3.3304    0.0000 C   0  0  0  0  0  0  0  0  0  0  0  0
    8.0260   -4.0026    0.0000 N   0  0  0  0  0  0  0  0  0  0  0  0
    2.2961   -1.9962    0.0000 C   0  0  0  0  0  0  0  0  0  0  0  0
    6.8779   -3.3304    0.0000 C   0  0  0  0  0  0  0  0  0  0  0  0
    5.7299   -1.3342    0.0000 C   0  0  0  0  0  0  0  0  0  0  0  0
    2.2961   -3.3304    0.0000 C   0  0  0  0  0  0  0  0  0  0  0  0
    3.4545   -1.3342    0.0000 C   0  0  0  0  0  0  0  0  0  0  0  0
    4.5818   -1.9962    0.0000 C   0  0  0  0  0  0  0  0  0  0  0  0
    8.0260    0.0000    0.0000 N   0  0  0  0  0  0  0  0  0  0  0  0
    3.4545   -4.0026    0.0000 C   0  0  0  0  0  0  0  0  0  0  0  0
   10.3428   -4.0233    0.0000 N   0  0  0  0  0  0  0  0  0  0  0  0
    4.5818   -3.3304    0.0000 C   0  0  0  0  0  0  0  0  0  0  0  0
    1.1584   -1.3342    0.0000 O   0  0  0  0  0  0  0  0  0  0  0  0
    1.1584   -4.0026    0.0000 O   0  0  0  0  0  0  0  0  0  0  0  0
    0.0000   -1.9962    0.0000 C   0  0  0  0  0  0  0  0  0  0  0  0
    1.1584   -5.3369    0.0000 C   0  0  0  0  0  0  0  0  0  0  0  0
  1  2  2  0  0  0  0
  1  4  1  0  0  0  0
  2  3  1  0  0  0  0
  2 12  1  0  0  0  0
  3  8  1  0  0  0  0
  3  7  2  0  0  0  0
  4  5  2  0  0  0  0
  4 14  1  0  0  0  0
  5  7  1  0  0  0  0
  6 10  2  0  0  0  0
  6 16  1  0  0  0  0
  6  9  1  0  0  0  0
  8 11  1  0  0  0  0
  9 13  2  0  0  0  0
  9 17  1  0  0  0  0
 10 11  1  0  0  0  0
 11 15  2  0  0  0  0
 13 15  1  0  0  0  0
 16 18  1  0  0  0  0
 17 19  1  0  0  0  0
M  END
> <ID>
11498

> <Formula>
C13H16N4O2

> <FW>
260.2917

> <DSSTox_CID>
26200

> <DSSTox_RID>
81431

> <DSSTox_GSID>
46200

> <DSSTox_FileID_Sort>
6112

> <TS_ChemName>
Diaveridine

> <TS_ChemName_Synonyms>


> <TS_CASRN>
5355-16-8

> <CASRN_ChemName_Relationship>
primary

> <TS_Description>
single chemical compound

> <ChemNote>


> <STRUCTURE_Shown>
tested chemical

> <STRUCTURE_Formula>
C13H16N4O2

> <STRUCTURE_MW>
260.2917

> <STRUCTURE_ChemType>
defined organic

> <STRUCTURE_DefinedOrganicForm>
parent

> <STRUCTURE_IUPAC>
5-(3,4-dimethoxybenzyl)pyrimidine-2,4-diamine

> <STRUCTURE_SMILES>
Nc2nc(N)ncc2Cc1ccc(OC)c(OC)c1

> <STRUCTURE_SMILES_Desalt>
Nc2nc(N)ncc2Cc1ccc(OC)c(OC)c1

> <Substance_modify_yyyymmdd>
20110817

$$$$
