53558-25-1
ChemmineR-0915142007XD

 20 21  0  0  0  0  0  0  0  0  2 V2000
   11.5319   -1.3448    0.0000 N   0  3  0  0  0  0  0  0  0  0  0  0
    5.7723   -3.3238    0.0000 C   0  0  0  0  0  0  0  0  0  0  0  0
   10.3648   -2.0171    0.0000 C   0  0  0  0  0  0  0  0  0  0  0  0
   12.6864   -2.0044    0.0000 O   0  5  0  0  0  0  0  0  0  0  0  0
    6.9141   -3.9962    0.0000 N   0  0  0  0  0  0  0  0  0  0  0  0
   11.5319    0.0000    0.0000 O   0  0  0  0  0  0  0  0  0  0  0  0
    4.6052   -3.9962    0.0000 N   0  0  0  0  0  0  0  0  0  0  0  0
    5.7723   -2.0171    0.0000 O   0  0  0  0  0  0  0  0  0  0  0  0
    1.1291   -6.0133    0.0000 N   0  0  0  0  0  0  0  0  0  0  0  0
   10.3648   -3.3238    0.0000 C   0  0  0  0  0  0  0  0  0  0  0  0
    9.2230   -1.3448    0.0000 C   0  0  0  0  0  0  0  0  0  0  0  0
    2.2962   -4.0216    0.0000 C   0  0  0  0  0  0  0  0  0  0  0  0
    8.0685   -3.3238    0.0000 C   0  0  0  0  0  0  0  0  0  0  0  0
    3.4634   -3.3238    0.0000 C   0  0  0  0  0  0  0  0  0  0  0  0
    9.2230   -3.9962    0.0000 C   0  0  0  0  0  0  0  0  0  0  0  0
    8.0685   -2.0171    0.0000 C   0  0  0  0  0  0  0  0  0  0  0  0
    2.2962   -5.3537    0.0000 C   0  0  0  0  0  0  0  0  0  0  0  0
    0.0000   -5.3537    0.0000 C   0  0  0  0  0  0  0  0  0  0  0  0
    1.1291   -3.3492    0.0000 C   0  0  0  0  0  0  0  0  0  0  0  0
    0.0000   -4.0216    0.0000 C   0  0  0  0  0  0  0  0  0  0  0  0
  1  3  1  0  0  0  0
  1  4  1  0  0  0  0
  1  6  2  0  0  0  0
  2  5  1  0  0  0  0
  2  7  1  0  0  0  0
  2  8  2  0  0  0  0
  3 10  2  0  0  0  0
  3 11  1  0  0  0  0
  5 13  1  0  0  0  0
  7 14  1  0  0  0  0
  9 17  2  0  0  0  0
  9 18  1  0  0  0  0
 10 15  1  0  0  0  0
 11 16  2  0  0  0  0
 12 14  1  0  0  0  0
 12 17  1  0  0  0  0
 12 19  2  0  0  0  0
 13 16  1  0  0  0  0
 13 15  2  0  0  0  0
 18 20  2  0  0  0  0
 19 20  1  0  0  0  0
M  END
> <ID>
9279

> <Formula>
C13H12N4O3

> <FW>
272.2594

> <DSSTox_CID>
22360

> <DSSTox_RID>
80005

> <DSSTox_GSID>
42360

> <DSSTox_FileID_Sort>
4687

> <TS_ChemName>
Pyrinuron

> <TS_ChemName_Synonyms>


> <TS_CASRN>
53558-25-1

> <CASRN_ChemName_Relationship>
primary

> <TS_Description>
single chemical compound

> <ChemNote>


> <STRUCTURE_Shown>
tested chemical

> <STRUCTURE_Formula>
C13H12N4O3

> <STRUCTURE_MW>
272.2594

> <STRUCTURE_ChemType>
defined organic

> <STRUCTURE_DefinedOrganicForm>
parent

> <STRUCTURE_IUPAC>
1-(4-nitrophenyl)-3-(pyridin-3-ylmethyl)urea

> <STRUCTURE_SMILES>
[O-][N+](=O)c1ccc(cc1)NC(=O)NCc2cccnc2

> <STRUCTURE_SMILES_Desalt>
[O-][N+](=O)c1ccc(cc1)NC(=O)NCc2cccnc2

> <Substance_modify_yyyymmdd>
20080825

$$$$
