53581-53-6
ChemmineR-0915142007XD

 16 15  0  0  0  0  0  0  0  0  1 V2000
    3.4591   -2.0063    0.0000 C    0  0  0  0  0  0  0  0  0  0  0  0
    3.4591   -3.3346    0.0000 C    0  0  0  0  0  0  0  0  0  0  0  0
    2.3038   -1.3352    0.0000 C    0  0  0  0  0  0  0  0  0  0  0  0
    2.3038   -3.9918    0.0000 C    0  0  0  0  0  0  0  0  0  0  0  0
    1.1553   -2.0063    0.0000 C    0  0  0  0  0  0  0  0  0  0  0  0
    1.1553   -3.3346    0.0000 C    0  0  0  0  0  0  0  0  0  0  0  0
    0.0000   -3.9918    0.0000 Br   0  0  0  0  0  0  0  0  0  0  0  0
    0.0000   -1.3352    0.0000 O    0  0  0  0  0  0  0  0  0  0  0  0
    0.0000    0.0000    0.0000 C    0  0  0  0  0  0  0  0  0  0  0  0
    4.6145   -1.3352    0.0000 C    0  0  0  0  0  0  0  0  0  0  0  0
    5.7629   -1.9924    0.0000 C    0  0  0  0  0  0  0  0  0  0  0  0
    4.6145   -3.9918    0.0000 O    0  0  0  0  0  0  0  0  0  0  0  0
    4.6145   -5.3201    0.0000 C    0  0  0  0  0  0  0  0  0  0  0  0
    6.9182   -1.3352    0.0000 N    0  0  0  0  0  0  0  0  0  0  0  0
    5.7629   -3.3207    0.0000 C    0  0  0  0  0  0  0  0  0  0  0  0
    1.8748   -5.1126    0.0000 Br   0  0  0  0  0  0  0  0  0  0  0  0
  1  2  1  0  0  0  0
  1  3  2  0  0  0  0
  1 10  1  0  0  0  0
  2  4  2  0  0  0  0
  2 12  1  0  0  0  0
  3  5  1  0  0  0  0
  4  6  1  0  0  0  0
  5  6  2  0  0  0  0
  5  8  1  0  0  0  0
  6  7  1  0  0  0  0
  8  9  1  0  0  0  0
 10 11  1  0  0  0  0
 11 14  1  0  0  0  0
 11 15  1  0  0  0  0
 12 13  1  0  0  0  0
M  END
> <ID>
13986

> <Formula>
C11H17Br2NO2

> <FW>
355.0662 (274.1542+80.9119)

> <DSSTox_CID>
28927

> <DSSTox_RID>
83193

> <DSSTox_GSID>
49001

> <DSSTox_FileID_Sort>
7869

> <TS_ChemName>
Benzeneethanamine, 4-bromo-2,5-dimethoxy-alpha-methyl-, hydrobromide (1:1)

> <TS_ChemName_Synonyms>
(+/-)-2,5-Dimethoxy-4-bromoamphetamine hydrobromide

> <TS_CASRN>
53581-53-6

> <CASRN_ChemName_Relationship>
primary

> <TS_Description>
single chemical compound

> <ChemNote>
stereochem

> <STRUCTURE_Shown>
tested chemical

> <STRUCTURE_Formula>
C11H17Br2NO2

> <STRUCTURE_MW>
355.0662

> <STRUCTURE_ChemType>
defined organic

> <STRUCTURE_DefinedOrganicForm>
complex

> <STRUCTURE_IUPAC>
1-(4-bromo-2,5-dimethoxyphenyl)propan-2-amine hydrobromide (1:1)

> <STRUCTURE_SMILES>
Br.COc1cc(CC(C)N)c(cc1Br)OC

> <STRUCTURE_SMILES_Desalt>
COc1cc(CC(C)N)c(cc1Br)OC

> <Substance_modify_yyyymmdd>
20111204

$$$$
