536-93-6
ChemmineR-0915142007XD

 22 22  0  0  0  0  0  0  0  0  1 V2000
    1.1436   -1.8194    0.0000 N    0  0  0  0  0  0  0  0  0  0  0  0
    2.2976   -1.1436    0.0000 C    0  0  0  0  0  0  0  0  0  0  0  0
    5.7805   -3.1502    0.0000 C    0  0  0  0  0  0  0  0  0  0  0  0
    1.1436   -3.1502    0.0000 C    0  0  0  0  0  0  0  0  0  0  0  0
    3.4621   -1.8194    0.0000 C    0  0  0  0  0  0  0  0  0  0  0  0
    3.4621   -3.1502    0.0000 C    0  0  0  0  0  0  0  0  0  0  0  0
    4.6161   -3.8051    0.0000 O    0  0  0  0  0  0  0  0  0  0  0  0
    2.2976   -3.8051    0.0000 C    0  0  0  0  0  0  0  0  0  0  0  0
    6.9345   -3.8051    0.0000 C    0  0  0  0  0  0  0  0  0  0  0  0
    5.7805   -1.8194    0.0000 O    0  0  0  0  0  0  0  0  0  0  0  0
    8.0989   -3.1502    0.0000 C    0  0  0  0  0  0  0  0  0  0  0  0
    0.0000   -1.1436    0.0000 C    0  0  0  0  0  0  0  0  0  0  0  0
    6.9345   -5.1359    0.0000 O    0  0  0  0  0  0  0  0  0  0  0  0
    2.9630    0.0000    0.0000 C    0  0  0  0  0  0  0  0  0  0  0  0
    1.6323    0.0000    0.0000 C    0  0  0  0  0  0  0  0  0  0  0  0
    0.0000   -3.8051    0.0000 C    0  0  0  0  0  0  0  0  0  0  0  0
    8.0989   -1.8194    0.0000 C    0  0  0  0  0  0  0  0  0  0  0  0
    9.2530   -3.8051    0.0000 C    0  0  0  0  0  0  0  0  0  0  0  0
   10.3966   -3.1502    0.0000 C    0  0  0  0  0  0  0  0  0  0  0  0
    9.2530   -1.1436    0.0000 C    0  0  0  0  0  0  0  0  0  0  0  0
   10.3966   -1.8194    0.0000 C    0  0  0  0  0  0  0  0  0  0  0  0
    7.8910   -0.2599    0.0000 Cl   0  0  0  0  0  0  0  0  0  0  0  0
  1  2  1  0  0  0  0
  1  4  1  0  0  0  0
  1 12  1  0  0  0  0
  2  5  1  0  0  0  0
  2 14  1  0  0  0  0
  2 15  1  0  0  0  0
  3  7  1  0  0  0  0
  3  9  1  0  0  0  0
  3 10  2  0  0  0  0
  4  8  1  0  0  0  0
  4 16  1  0  0  0  0
  5  6  1  0  0  0  0
  6  8  1  0  0  0  0
  6  7  1  0  0  0  0
  9 11  1  0  0  0  0
  9 13  1  0  0  0  0
 11 17  1  0  0  0  0
 11 18  2  0  0  0  0
 17 20  2  0  0  0  0
 18 19  1  0  0  0  0
 19 21  2  0  0  0  0
 20 21  1  0  0  0  0
M  END
> <ID>
11225

> <Formula>
C17H26ClNO3

> <FW>
327.8462 (291.3853+36.4609)

> <DSSTox_CID>
25828

> <DSSTox_RID>
81157

> <DSSTox_GSID>
45828

> <DSSTox_FileID_Sort>
5838

> <TS_ChemName>
Eucatropine hydrochloride

> <TS_ChemName_Synonyms>


> <TS_CASRN>
536-93-6

> <CASRN_ChemName_Relationship>
primary

> <TS_Description>
single chemical compound

> <ChemNote>
parent [100-91-4]

> <STRUCTURE_Shown>
tested chemical

> <STRUCTURE_Formula>
C17H26ClNO3

> <STRUCTURE_MW>
327.8462

> <STRUCTURE_ChemType>
defined organic

> <STRUCTURE_DefinedOrganicForm>
complex

> <STRUCTURE_IUPAC>
1,2,2,6-tetramethylpiperidin-4-yl hydroxy(phenyl)acetate hydrochloride (1:1)

> <STRUCTURE_SMILES>
Cl.CC2CC(OC(=O)C(O)c1ccccc1)CC(C)(C)N2C

> <STRUCTURE_SMILES_Desalt>
CC2CC(OC(=O)C(O)c1ccccc1)CC(C)(C)N2C

> <Substance_modify_yyyymmdd>
20110909

$$$$
