536-43-6
ChemmineR-0915142007XD

 22 22  0  0  0  0  0  0  0  0  1 V2000
    2.2958   -1.9957    0.0000 N    0  0  0  0  0  0  0  0  0  0  0  0
    5.7621   -1.3355    0.0000 C    0  0  0  0  0  0  0  0  0  0  0  0
    4.6217   -1.9957    0.0000 C    0  0  0  0  0  0  0  0  0  0  0  0
    6.9175   -1.9957    0.0000 C    0  0  0  0  0  0  0  0  0  0  0  0
    5.7621    0.0000    0.0000 O    0  0  0  0  0  0  0  0  0  0  0  0
    3.4813   -1.3355    0.0000 C    0  0  0  0  0  0  0  0  0  0  0  0
    6.9175   -3.3312    0.0000 C    0  0  0  0  0  0  0  0  0  0  0  0
    8.0729   -1.3355    0.0000 C    0  0  0  0  0  0  0  0  0  0  0  0
    9.2284   -3.3312    0.0000 C    0  0  0  0  0  0  0  0  0  0  0  0
    8.0879   -3.9915    0.0000 C    0  0  0  0  0  0  0  0  0  0  0  0
    9.2284   -2.0107    0.0000 C    0  0  0  0  0  0  0  0  0  0  0  0
   10.3988   -3.9915    0.0000 O    0  0  0  0  0  0  0  0  0  0  0  0
    2.2958   -3.3312    0.0000 C    0  0  0  0  0  0  0  0  0  0  0  0
    1.1404   -1.3355    0.0000 C    0  0  0  0  0  0  0  0  0  0  0  0
   11.5242   -3.3312    0.0000 C    0  0  0  0  0  0  0  0  0  0  0  0
   12.6646   -3.9915    0.0000 C    0  0  0  0  0  0  0  0  0  0  0  0
   13.8501   -3.3312    0.0000 C    0  0  0  0  0  0  0  0  0  0  0  0
    0.0000   -2.0107    0.0000 C    0  0  0  0  0  0  0  0  0  0  0  0
    1.1554   -3.9915    0.0000 C    0  0  0  0  0  0  0  0  0  0  0  0
   15.0055   -3.9765    0.0000 C    0  0  0  0  0  0  0  0  0  0  0  0
    0.0000   -3.3462    0.0000 C    0  0  0  0  0  0  0  0  0  0  0  0
    7.1126   -5.3119    0.0000 Cl   0  0  0  0  0  0  0  0  0  0  0  0
  1  6  1  0  0  0  0
  1 13  1  0  0  0  0
  1 14  1  0  0  0  0
  2  3  1  0  0  0  0
  2  4  1  0  0  0  0
  2  5  2  0  0  0  0
  3  6  1  0  0  0  0
  4  7  1  0  0  0  0
  4  8  2  0  0  0  0
  7 10  2  0  0  0  0
  8 11  1  0  0  0  0
  9 11  2  0  0  0  0
  9 12  1  0  0  0  0
  9 10  1  0  0  0  0
 12 15  1  0  0  0  0
 13 19  1  0  0  0  0
 14 18  1  0  0  0  0
 15 16  1  0  0  0  0
 16 17  1  0  0  0  0
 17 20  1  0  0  0  0
 18 21  1  0  0  0  0
 19 21  1  0  0  0  0
M  END
> <ID>
10872

> <Formula>
C18H28ClNO2

> <FW>
325.8734 (289.4125+36.4609)

> <DSSTox_CID>
25323

> <DSSTox_RID>
80802

> <DSSTox_GSID>
45323

> <DSSTox_FileID_Sort>
5483

> <TS_ChemName>
Dyclonine hydrochloride

> <TS_ChemName_Synonyms>


> <TS_CASRN>
536-43-6

> <CASRN_ChemName_Relationship>
primary

> <TS_Description>
single chemical compound

> <ChemNote>
parent [586-60-7]

> <STRUCTURE_Shown>
tested chemical

> <STRUCTURE_Formula>
C18H28ClNO2

> <STRUCTURE_MW>
325.8734

> <STRUCTURE_ChemType>
defined organic

> <STRUCTURE_DefinedOrganicForm>
complex

> <STRUCTURE_IUPAC>
1-(4-butoxyphenyl)-3-(piperidin-1-yl)propan-1-one hydrochloride (1:1)

> <STRUCTURE_SMILES>
Cl.CCCCOc1ccc(cc1)C(=O)CCN2CCCCC2

> <STRUCTURE_SMILES_Desalt>
CCCCOc1ccc(cc1)C(=O)CCN2CCCCC2

> <Substance_modify_yyyymmdd>
20110605

$$$$
