53636-17-2
ChemmineR-0915142007XD

  7  6  0  0  1  0  0  0  0  0  1 V2000
    3.4555    0.0000    0.0000 C   0  0  0  0  0  0  0  0  0  0  0  0
    3.4555   -1.3315    0.0000 C   0  0  0  0  0  0  0  0  0  0  0  0
    4.6073   -1.9950    0.0000 O   0  0  0  0  0  0  0  0  0  0  0  0
    2.3037   -1.9950    0.0000 C   0  0  0  0  0  0  0  0  0  0  0  0
    1.1518   -1.3315    0.0000 N   0  0  0  0  0  0  0  0  0  0  0  0
    0.0000   -1.9950    0.0000 C   0  0  0  0  0  0  0  0  0  0  0  0
    1.1518    0.0000    0.0000 C   0  0  0  0  0  0  0  0  0  0  0  0
  1  2  1  0  0  0  0
  2  3  1  6  0  0  0
  2  4  1  0  0  0  0
  4  5  1  0  0  0  0
  5  6  1  0  0  0  0
  5  7  1  0  0  0  0
M  END
> <ID>
11787

> <Formula>
C5H13NO

> <FW>
103.1628

> <DSSTox_CID>
26562

> <DSSTox_RID>
81721

> <DSSTox_GSID>
46562

> <DSSTox_FileID_Sort>
6402

> <TS_ChemName>
(S)-(+)-1-Dimethylamino-2-propanol

> <TS_ChemName_Synonyms>


> <TS_CASRN>
53636-17-2

> <CASRN_ChemName_Relationship>
primary

> <TS_Description>
single chemical compound

> <ChemNote>
stereochem

> <STRUCTURE_Shown>
tested chemical

> <STRUCTURE_Formula>
C5H13NO

> <STRUCTURE_MW>
103.1628

> <STRUCTURE_ChemType>
defined organic

> <STRUCTURE_DefinedOrganicForm>
parent

> <STRUCTURE_IUPAC>
(2S)-1-(dimethylamino)propan-2-ol

> <STRUCTURE_SMILES>
CN(C)C[C@H](C)O

> <STRUCTURE_SMILES_Desalt>
CN(C)C[C@H](C)O

> <Substance_modify_yyyymmdd>
20110810

$$$$
