53684-49-4
ChemmineR-0915142007XD

 23 24  0  0  0  0  0  0  0  0  1 V2000
    2.8420   -8.4745    0.0000 C   0  0  0  0  0  0  0  0  0  0  0  0
    3.9952   -9.1438    0.0000 C   0  0  0  0  0  0  0  0  0  0  0  0
    5.1485   -9.8131    0.0000 C   0  0  0  0  0  0  0  0  0  0  0  0
    3.3259  -10.2970    0.0000 C   0  0  0  0  0  0  0  0  0  0  0  0
    4.6543   -7.9905    0.0000 N   0  0  0  0  0  0  0  0  0  0  0  0
    3.9952   -6.8372    0.0000 C   0  0  0  0  0  0  0  0  0  0  0  0
    4.6543   -5.6840    0.0000 C   0  0  0  0  0  0  0  0  0  0  0  0
    5.9929   -5.6840    0.0000 O   0  0  0  0  0  0  0  0  0  0  0  0
    3.9952   -4.5307    0.0000 C   0  0  0  0  0  0  0  0  0  0  0  0
    2.6566   -4.5307    0.0000 O   0  0  0  0  0  0  0  0  0  0  0  0
    1.9976   -3.3774    0.0000 C   0  0  0  0  0  0  0  0  0  0  0  0
    2.6566   -2.2345    0.0000 C   0  0  0  0  0  0  0  0  0  0  0  0
    3.9952   -2.2345    0.0000 O   0  0  0  0  0  0  0  0  0  0  0  0
    4.6543   -1.0812    0.0000 C   0  0  0  0  0  0  0  0  0  0  0  0
    5.9929   -1.0812    0.0000 C   0  0  0  0  0  0  0  0  0  0  0  0
    6.7754   -2.1521    0.0000 C   0  0  0  0  0  0  0  0  0  0  0  0
    8.0317   -1.7402    0.0000 C   0  0  0  0  0  0  0  0  0  0  0  0
    8.0317   -0.4119    0.0000 C   0  0  0  0  0  0  0  0  0  0  0  0
    6.7754    0.0000    0.0000 O   0  0  0  0  0  0  0  0  0  0  0  0
    1.9976   -1.0812    0.0000 C   0  0  0  0  0  0  0  0  0  0  0  0
    0.6693   -1.0812    0.0000 C   0  0  0  0  0  0  0  0  0  0  0  0
    0.0000   -2.2345    0.0000 C   0  0  0  0  0  0  0  0  0  0  0  0
    0.6693   -3.3774    0.0000 C   0  0  0  0  0  0  0  0  0  0  0  0
  1  2  1  0  0  0  0
  2  3  1  0  0  0  0
  2  4  1  0  0  0  0
  2  5  1  0  0  0  0
  5  6  1  0  0  0  0
  6  7  1  0  0  0  0
  7  8  1  0  0  0  0
  7  9  1  0  0  0  0
  9 10  1  0  0  0  0
 10 11  1  0  0  0  0
 11 12  2  0  0  0  0
 11 23  1  0  0  0  0
 12 13  1  0  0  0  0
 12 20  1  0  0  0  0
 13 14  1  0  0  0  0
 14 15  1  0  0  0  0
 15 16  1  0  0  0  0
 15 19  1  0  0  0  0
 16 17  1  0  0  0  0
 17 18  1  0  0  0  0
 18 19  1  0  0  0  0
 20 21  2  0  0  0  0
 21 22  1  0  0  0  0
 22 23  2  0  0  0  0
M  END
> <ID>
16162

> <Formula>
C18H29NO4

> <FW>
323.4272

> <DSSTox_CID>
31552

> <DSSTox_RID>
97437

> <DSSTox_GSID>
57763

> <DSSTox_FileID_Sort>
8504

> <TS_ChemName>
Bufetolol

> <TS_ChemName_Synonyms>


> <TS_CASRN>
53684-49-4

> <CASRN_ChemName_Relationship>
primary

> <TS_Description>
single chemical compound

> <ChemNote>


> <STRUCTURE_Shown>
tested chemical

> <STRUCTURE_Formula>
C18H29NO4

> <STRUCTURE_MW>
323.4272

> <STRUCTURE_ChemType>
defined organic

> <STRUCTURE_DefinedOrganicForm>
parent

> <STRUCTURE_IUPAC>
1-(tert-butylamino)-3-[2-(tetrahydrofuran-2-ylmethoxy)phenoxy]propan-2-ol

> <STRUCTURE_SMILES>
CC(C)(C)NCC(O)COc2ccccc2OCC1CCCO1

> <STRUCTURE_SMILES_Desalt>
CC(C)(C)NCC(O)COc2ccccc2OCC1CCCO1

> <Substance_modify_yyyymmdd>
20131018

$$$$
