537-12-2
ChemmineR-0915142007XD

 30 31  0  0  0  0  0  0  0  0  1 V2000
    4.6146   -2.0093    0.0000 C    0  0  0  0  0  0  0  0  0  0  0  0
    8.0790   -3.9771    0.0000 N    0  0  0  0  0  0  0  0  0  0  0  0
    9.2430   -0.6652    0.0000 C    0  0  0  0  0  0  0  0  0  0  0  0
    3.4505   -2.6329    0.0000 N    0  0  0  0  0  0  0  0  0  0  0  0
   10.4070    0.0000    0.0000 N    0  0  0  0  0  0  0  0  0  0  0  0
    5.7786   -2.6329    0.0000 O    0  0  0  0  0  0  0  0  0  0  0  0
    4.6146   -0.6652    0.0000 O    0  0  0  0  0  0  0  0  0  0  0  0
    6.9288   -2.0093    0.0000 C    0  0  0  0  0  0  0  0  0  0  0  0
    8.0790   -2.6329    0.0000 C    0  0  0  0  0  0  0  0  0  0  0  0
    9.2430   -2.0093    0.0000 O    0  0  0  0  0  0  0  0  0  0  0  0
    8.0790    0.0000    0.0000 O    0  0  0  0  0  0  0  0  0  0  0  0
    6.9288   -0.6652    0.0000 C    0  0  0  0  0  0  0  0  0  0  0  0
    2.3142   -2.0093    0.0000 C    0  0  0  0  0  0  0  0  0  0  0  0
   11.5434   -0.6652    0.0000 C    0  0  0  0  0  0  0  0  0  0  0  0
    6.9288   -4.6423    0.0000 C    0  0  0  0  0  0  0  0  0  0  0  0
    9.2430   -4.6423    0.0000 C    0  0  0  0  0  0  0  0  0  0  0  0
   12.6935    0.0000    0.0000 C    0  0  0  0  0  0  0  0  0  0  0  0
    1.1640   -2.6329    0.0000 C    0  0  0  0  0  0  0  0  0  0  0  0
   11.5434   -2.0093    0.0000 C    0  0  0  0  0  0  0  0  0  0  0  0
    2.3142   -0.6652    0.0000 C    0  0  0  0  0  0  0  0  0  0  0  0
    6.9288   -5.9726    0.0000 C    0  0  0  0  0  0  0  0  0  0  0  0
    9.2430   -5.9726    0.0000 C    0  0  0  0  0  0  0  0  0  0  0  0
    1.1640    0.0000    0.0000 C    0  0  0  0  0  0  0  0  0  0  0  0
   12.6935   -2.6329    0.0000 C    0  0  0  0  0  0  0  0  0  0  0  0
   13.8576   -0.6652    0.0000 C    0  0  0  0  0  0  0  0  0  0  0  0
    0.0000   -2.0093    0.0000 C    0  0  0  0  0  0  0  0  0  0  0  0
   13.8576   -2.0093    0.0000 C    0  0  0  0  0  0  0  0  0  0  0  0
    8.0928   -6.6378    0.0000 C    0  0  0  0  0  0  0  0  0  0  0  0
    0.0000   -0.6652    0.0000 C    0  0  0  0  0  0  0  0  0  0  0  0
    9.7280   -3.3812    0.0000 Cl   0  0  0  0  0  0  0  0  0  0  0  0
  1  4  1  0  0  0  0
  1  6  1  0  0  0  0
  1  7  2  0  0  0  0
  2  9  1  0  0  0  0
  2 15  1  0  0  0  0
  2 16  1  0  0  0  0
  3 11  1  0  0  0  0
  3  5  1  0  0  0  0
  3 10  2  0  0  0  0
  4 13  1  0  0  0  0
  5 14  1  0  0  0  0
  6  8  1  0  0  0  0
  8  9  1  0  0  0  0
  8 12  1  0  0  0  0
 11 12  1  0  0  0  0
 13 18  1  0  0  0  0
 13 20  2  0  0  0  0
 14 17  2  0  0  0  0
 14 19  1  0  0  0  0
 15 21  1  0  0  0  0
 16 22  1  0  0  0  0
 17 25  1  0  0  0  0
 18 26  2  0  0  0  0
 19 24  2  0  0  0  0
 20 23  1  0  0  0  0
 21 28  1  0  0  0  0
 22 28  1  0  0  0  0
 23 29  2  0  0  0  0
 24 27  1  0  0  0  0
 25 27  2  0  0  0  0
 26 29  1  0  0  0  0
M  END
> <ID>
10873

> <Formula>
C22H28ClN3O4

> <FW>
433.9284 (397.4675+36.4609)

> <DSSTox_CID>
25324

> <DSSTox_RID>
80803

> <DSSTox_GSID>
45324

> <DSSTox_FileID_Sort>
5484

> <TS_ChemName>
Diperodon hydrochloride

> <TS_ChemName_Synonyms>


> <TS_CASRN>
537-12-2

> <CASRN_ChemName_Relationship>
primary

> <TS_Description>
single chemical compound

> <ChemNote>
parent [101-08-6}

> <STRUCTURE_Shown>
tested chemical

> <STRUCTURE_Formula>
C22H28ClN3O4

> <STRUCTURE_MW>
433.9284

> <STRUCTURE_ChemType>
defined organic

> <STRUCTURE_DefinedOrganicForm>
complex

> <STRUCTURE_IUPAC>
3-(piperidin-1-yl)propane-1,2-diyl bis(phenylcarbamate) hydrochloride (1:1)

> <STRUCTURE_SMILES>
Cl.O=C(Nc1ccccc1)OCC(OC(=O)Nc2ccccc2)CN3CCCCC3

> <STRUCTURE_SMILES_Desalt>
O=C(Nc1ccccc1)OCC(OC(=O)Nc2ccccc2)CN3CCCCC3

> <Substance_modify_yyyymmdd>
20110605

$$$$
