537-55-3
ChemmineR-0915142007XD

 16 16  0  0  1  0  0  0  0  0  1 V2000
    8.0594   -3.3285    0.0000 C   0  0  0  0  0  0  0  0  0  0  0  0
    6.9069   -3.9894    0.0000 C   0  0  0  0  0  0  0  0  0  0  0  0
    6.9069   -5.3192    0.0000 O   0  0  0  0  0  0  0  0  0  0  0  0
    5.7544   -3.3285    0.0000 N   0  0  0  0  0  0  0  0  0  0  0  0
    5.7544   -1.9987    0.0000 C   0  0  0  0  0  0  0  0  0  0  0  0
    4.6019   -1.3298    0.0000 C   0  0  0  0  0  0  0  0  0  0  0  0
    3.4575   -1.9987    0.0000 C   0  0  0  0  0  0  0  0  0  0  0  0
    3.4575   -3.3285    0.0000 C   0  0  0  0  0  0  0  0  0  0  0  0
    2.3050   -3.9894    0.0000 C   0  0  0  0  0  0  0  0  0  0  0  0
    1.1525   -3.3285    0.0000 C   0  0  0  0  0  0  0  0  0  0  0  0
    0.0000   -3.9894    0.0000 O   0  0  0  0  0  0  0  0  0  0  0  0
    1.1525   -1.9987    0.0000 C   0  0  0  0  0  0  0  0  0  0  0  0
    2.3050   -1.3298    0.0000 C   0  0  0  0  0  0  0  0  0  0  0  0
    6.9069   -1.3298    0.0000 C   0  0  0  0  0  0  0  0  0  0  0  0
    8.0594   -1.9987    0.0000 O   0  0  0  0  0  0  0  0  0  0  0  0
    6.9069    0.0000    0.0000 O   0  0  0  0  0  0  0  0  0  0  0  0
  1  2  1  0  0  0  0
  2  3  2  0  0  0  0
  2  4  1  0  0  0  0
  5  4  1  1  0  0  0
  5  6  1  0  0  0  0
  5 14  1  0  0  0  0
  6  7  1  0  0  0  0
  7  8  2  0  0  0  0
  7 13  1  0  0  0  0
  8  9  1  0  0  0  0
  9 10  2  0  0  0  0
 10 11  1  0  0  0  0
 10 12  1  0  0  0  0
 12 13  2  0  0  0  0
 14 15  1  0  0  0  0
 14 16  2  0  0  0  0
M  END
> <ID>
11373

> <Formula>
C11H13NO4

> <FW>
223.2252

> <DSSTox_CID>
26045

> <DSSTox_RID>
81305

> <DSSTox_GSID>
46045

> <DSSTox_FileID_Sort>
5986

> <TS_ChemName>
N-Acetyl-L-tyrosine

> <TS_ChemName_Synonyms>


> <TS_CASRN>
537-55-3

> <CASRN_ChemName_Relationship>
primary

> <TS_Description>
single chemical compound

> <ChemNote>
stereochem

> <STRUCTURE_Shown>
tested chemical

> <STRUCTURE_Formula>
C11H13NO4

> <STRUCTURE_MW>
223.2252

> <STRUCTURE_ChemType>
defined organic

> <STRUCTURE_DefinedOrganicForm>
parent

> <STRUCTURE_IUPAC>
N-acetyl-L-tyrosine

> <STRUCTURE_SMILES>
Oc1ccc(C[C@H](NC(C)=O)C(=O)O)cc1

> <STRUCTURE_SMILES_Desalt>
Oc1ccc(C[C@H](NC(C)=O)C(=O)O)cc1

> <Substance_modify_yyyymmdd>
20100107

$$$$
