53716-50-0
ChemmineR-0915142007XD

 22 24  0  0  0  0  0  0  0  0  1 V2000
    8.9721   -2.2949    0.0000 C   0  0  0  0  0  0  0  0  0  0  0  0
    8.1812   -3.3710    0.0000 N   0  0  0  0  0  0  0  0  0  0  0  0
    8.1812   -1.2187    0.0000 N   0  0  0  0  0  0  0  0  0  0  0  0
   10.2945   -2.2949    0.0000 N   0  0  0  0  0  0  0  0  0  0  0  0
    6.9235   -2.9561    0.0000 C   0  0  0  0  0  0  0  0  0  0  0  0
    3.4618   -3.6173    0.0000 S   0  0  0  0  0  0  0  0  0  0  0  0
    4.6157   -2.9561    0.0000 C   0  0  0  0  0  0  0  0  0  0  0  0
   10.9687   -1.1539    0.0000 C   0  0  0  0  0  0  0  0  0  0  0  0
    5.7696   -3.6173    0.0000 C   0  0  0  0  0  0  0  0  0  0  0  0
    6.9235   -1.6336    0.0000 C   0  0  0  0  0  0  0  0  0  0  0  0
    3.4618   -4.9528    0.0000 O   0  0  0  0  0  0  0  0  0  0  0  0
    2.3078   -2.9561    0.0000 C   0  0  0  0  0  0  0  0  0  0  0  0
   10.2945    0.0000    0.0000 O   0  0  0  0  0  0  0  0  0  0  0  0
    4.6157   -1.6336    0.0000 C   0  0  0  0  0  0  0  0  0  0  0  0
    5.7696   -0.9594    0.0000 C   0  0  0  0  0  0  0  0  0  0  0  0
   12.3042   -1.1539    0.0000 O   0  0  0  0  0  0  0  0  0  0  0  0
    1.1539   -3.6173    0.0000 C   0  0  0  0  0  0  0  0  0  0  0  0
    2.3078   -1.6336    0.0000 C   0  0  0  0  0  0  0  0  0  0  0  0
   12.9654    0.0000    0.0000 C   0  0  0  0  0  0  0  0  0  0  0  0
    0.0000   -2.9561    0.0000 C   0  0  0  0  0  0  0  0  0  0  0  0
    1.1539   -0.9594    0.0000 C   0  0  0  0  0  0  0  0  0  0  0  0
    0.0000   -1.6336    0.0000 C   0  0  0  0  0  0  0  0  0  0  0  0
  1  2  2  0  0  0  0
  1  3  1  0  0  0  0
  1  4  1  0  0  0  0
  2  5  1  0  0  0  0
  3 10  1  0  0  0  0
  4  8  1  0  0  0  0
  5  9  1  0  0  0  0
  5 10  2  0  0  0  0
  6  7  1  0  0  0  0
  6 11  2  0  0  0  0
  6 12  1  0  0  0  0
  7  9  2  0  0  0  0
  7 14  1  0  0  0  0
  8 13  2  0  0  0  0
  8 16  1  0  0  0  0
 10 15  1  0  0  0  0
 12 17  2  0  0  0  0
 12 18  1  0  0  0  0
 14 15  2  0  0  0  0
 16 19  1  0  0  0  0
 17 20  1  0  0  0  0
 18 21  2  0  0  0  0
 20 22  2  0  0  0  0
 21 22  1  0  0  0  0
M  END
> <ID>
9858

> <Formula>
C15H13N3O3S

> <FW>
315.347

> <DSSTox_CID>
24112

> <DSSTox_RID>
80103

> <DSSTox_GSID>
44112

> <DSSTox_FileID_Sort>
4785

> <TS_ChemName>
Oxfendazole

> <TS_ChemName_Synonyms>


> <TS_CASRN>
53716-50-0

> <CASRN_ChemName_Relationship>
primary

> <TS_Description>
single chemical compound

> <ChemNote>
tautomers

> <STRUCTURE_Shown>
tested chemical

> <STRUCTURE_Formula>
C15H13N3O3S

> <STRUCTURE_MW>
315.347

> <STRUCTURE_ChemType>
defined organic

> <STRUCTURE_DefinedOrganicForm>
parent

> <STRUCTURE_IUPAC>
methyl [5-(phenylsulfinyl)-1H-benzimidazol-2-yl]carbamate

> <STRUCTURE_SMILES>
O=C(OC)Nc1nc2cc(ccc2n1)S(=O)c3ccccc3

> <STRUCTURE_SMILES_Desalt>
O=C(OC)Nc1nc2cc(ccc2n1)S(=O)c3ccccc3

> <Substance_modify_yyyymmdd>
20090220

$$$$
