53746-45-5
ChemmineR-0915142007XD

 39 38  0  0  1  0  0  0  0  0  2 V2000
    5.1755   -9.7903    0.0000 O    0  0  0  0  0  0  0  0  0  0  0  0
    2.4152   -9.8334    0.0000 O    0  0  0  0  0  0  0  0  0  0  0  0
   10.7822   -4.6256    0.0000 Ca   0  2  0  0  0  0  0  0  0  0  0  0
    8.0543   -3.9894    0.0000 C    0  0  0  0  0  0  0  0  0  0  0  0
    8.0543   -2.6524    0.0000 C    0  0  0  0  0  0  0  0  0  0  0  0
    9.2080   -1.9839    0.0000 C    0  0  0  0  0  0  0  0  0  0  0  0
   10.3617   -2.6524    0.0000 O    0  5  0  0  0  0  0  0  0  0  0  0
    9.2080   -0.6685    0.0000 O    0  0  0  0  0  0  0  0  0  0  0  0
    6.9006   -1.9839    0.0000 C    0  0  0  0  0  0  0  0  0  0  0  0
    5.7469   -2.6524    0.0000 C    0  0  0  0  0  0  0  0  0  0  0  0
    4.5932   -1.9839    0.0000 C    0  0  0  0  0  0  0  0  0  0  0  0
    4.5932   -0.6685    0.0000 C    0  0  0  0  0  0  0  0  0  0  0  0
    5.7469    0.0000    0.0000 C    0  0  0  0  0  0  0  0  0  0  0  0
    6.9006   -0.6685    0.0000 C    0  0  0  0  0  0  0  0  0  0  0  0
    3.4611   -2.6524    0.0000 O    0  0  0  0  0  0  0  0  0  0  0  0
    2.3074   -1.9839    0.0000 C    0  0  0  0  0  0  0  0  0  0  0  0
    1.1537   -2.6524    0.0000 C    0  0  0  0  0  0  0  0  0  0  0  0
    0.0000   -1.9839    0.0000 C    0  0  0  0  0  0  0  0  0  0  0  0
    0.0000   -0.6685    0.0000 C    0  0  0  0  0  0  0  0  0  0  0  0
    1.1537    0.0000    0.0000 C    0  0  0  0  0  0  0  0  0  0  0  0
    2.3074   -0.6685    0.0000 C    0  0  0  0  0  0  0  0  0  0  0  0
    8.0543   -9.3051    0.0000 C    0  0  0  0  0  0  0  0  0  0  0  0
    8.0543   -7.9788    0.0000 C    0  0  0  0  0  0  0  0  0  0  0  0
    9.2080   -7.3211    0.0000 C    0  0  0  0  0  0  0  0  0  0  0  0
   10.3617   -7.9788    0.0000 O    0  5  0  0  0  0  0  0  0  0  0  0
    9.2080   -5.9733    0.0000 O    0  0  0  0  0  0  0  0  0  0  0  0
    6.9006   -7.3211    0.0000 C    0  0  0  0  0  0  0  0  0  0  0  0
    5.7469   -7.9788    0.0000 C    0  0  0  0  0  0  0  0  0  0  0  0
    4.5932   -7.3211    0.0000 C    0  0  0  0  0  0  0  0  0  0  0  0
    4.5932   -5.9733    0.0000 C    0  0  0  0  0  0  0  0  0  0  0  0
    5.7469   -5.3156    0.0000 C    0  0  0  0  0  0  0  0  0  0  0  0
    6.9006   -5.9733    0.0000 C    0  0  0  0  0  0  0  0  0  0  0  0
    3.4611   -7.9788    0.0000 O    0  0  0  0  0  0  0  0  0  0  0  0
    2.3074   -7.3211    0.0000 C    0  0  0  0  0  0  0  0  0  0  0  0
    1.1537   -7.9788    0.0000 C    0  0  0  0  0  0  0  0  0  0  0  0
    0.0000   -7.3211    0.0000 C    0  0  0  0  0  0  0  0  0  0  0  0
    0.0000   -5.9733    0.0000 C    0  0  0  0  0  0  0  0  0  0  0  0
    1.1537   -5.3156    0.0000 C    0  0  0  0  0  0  0  0  0  0  0  0
    2.3074   -5.9733    0.0000 C    0  0  0  0  0  0  0  0  0  0  0  0
  5  4  1  1  0  0  0
  5  6  1  0  0  0  0
  5  9  1  0  0  0  0
  6  7  1  0  0  0  0
  6  8  2  0  0  0  0
  9 10  2  0  0  0  0
  9 14  1  0  0  0  0
 10 11  1  0  0  0  0
 11 12  2  0  0  0  0
 11 15  1  0  0  0  0
 12 13  1  0  0  0  0
 13 14  2  0  0  0  0
 15 16  1  0  0  0  0
 16 17  2  0  0  0  0
 16 21  1  0  0  0  0
 17 18  1  0  0  0  0
 18 19  2  0  0  0  0
 19 20  1  0  0  0  0
 20 21  2  0  0  0  0
 23 22  1  1  0  0  0
 23 24  1  0  0  0  0
 23 27  1  0  0  0  0
 24 25  1  0  0  0  0
 24 26  2  0  0  0  0
 27 28  2  0  0  0  0
 27 32  1  0  0  0  0
 28 29  1  0  0  0  0
 29 30  2  0  0  0  0
 29 33  1  0  0  0  0
 30 31  1  0  0  0  0
 31 32  2  0  0  0  0
 33 34  1  0  0  0  0
 34 35  2  0  0  0  0
 34 39  1  0  0  0  0
 35 36  1  0  0  0  0
 36 37  2  0  0  0  0
 37 38  1  0  0  0  0
 38 39  2  0  0  0  0
M  END
> <ID>
11051

> <Formula>
C30H30CaO8

> <FW>
558.6324 (18.0153+18.0153+40.0769+241.2625+241.2625)

> <DSSTox_CID>
25587

> <DSSTox_RID>
80983

> <DSSTox_GSID>
45587

> <DSSTox_FileID_Sort>
5664

> <TS_ChemName>
Fenoprofen calcium

> <TS_ChemName_Synonyms>


> <TS_CASRN>
53746-45-5

> <CASRN_ChemName_Relationship>
primary

> <TS_Description>
single chemical compound

> <ChemNote>
stereochem; parent [31879-05-7]

> <STRUCTURE_Shown>
tested chemical

> <STRUCTURE_Formula>
C30H30CaO8

> <STRUCTURE_MW>
558.6324

> <STRUCTURE_ChemType>
defined organic

> <STRUCTURE_DefinedOrganicForm>
salt

> <STRUCTURE_IUPAC>
calcium (2S)-2-(3-phenoxyphenyl)propanoate hydrate (1:2:2)

> <STRUCTURE_SMILES>
[Ca+2].O.O.[O-]C(=O)[C@@H](C)c2cc(Oc1ccccc1)ccc2.[O-]C(=O)[C@@H](C)c2cc(Oc1ccccc1)ccc2

> <STRUCTURE_SMILES_Desalt>
O=C(O)[C@@H](C)c2cc(Oc1ccccc1)ccc2

> <Substance_modify_yyyymmdd>
20100107

$$$$
