53757-34-9
ChemmineR-0915142007XD

 24 24  0  0  1  0  0  0  0  0  1 V2000
    3.8662   -3.2205    0.0000 C    0  0  0  0  0  0  0  0  0  0  0  0
    3.8662   -5.3072    0.0000 C    0  0  0  0  0  0  0  0  0  0  0  0
    3.8505   -1.9370    0.0000 C    0  0  0  0  0  0  0  0  0  0  0  0
    2.5670   -3.2205    0.0000 C    0  0  0  0  0  0  0  0  0  0  0  0
    1.9213   -4.3308    0.0000 C    0  0  0  0  0  0  0  0  0  0  0  0
    1.9213   -2.1024    0.0000 C    0  0  0  0  0  0  0  0  0  0  0  0
    0.6378   -4.3308    0.0000 C    0  0  0  0  0  0  0  0  0  0  0  0
    0.6378   -2.1024    0.0000 C    0  0  0  0  0  0  0  0  0  0  0  0
    0.0000   -3.2205    0.0000 C    0  0  0  0  0  0  0  0  0  0  0  0
    5.1340   -3.2205    0.0000 C    0  0  0  0  0  0  0  0  0  0  0  0
    5.7718   -2.1024    0.0000 C    0  0  0  0  0  0  0  0  0  0  0  0
    5.7718   -4.3308    0.0000 C    0  0  0  0  0  0  0  0  0  0  0  0
    7.0552   -2.1024    0.0000 C    0  0  0  0  0  0  0  0  0  0  0  0
    7.0552   -4.3308    0.0000 C    0  0  0  0  0  0  0  0  0  0  0  0
    7.7009   -3.2205    0.0000 C    0  0  0  0  0  0  0  0  0  0  0  0
    5.1969   -1.1418    0.0000 O    0  0  0  0  0  0  0  0  0  0  0  0
    2.7402   -1.2835    0.0000 C    0  0  0  0  0  0  0  0  0  0  0  0
    2.7402    0.0000    0.0000 C    0  0  0  0  0  0  0  0  0  0  0  0
    2.7560   -5.9371    0.0000 C    0  0  0  0  0  0  0  0  0  0  0  0
    2.7560   -7.2206    0.0000 N    0  0  0  0  0  0  0  0  0  0  0  0
    1.6378   -5.3072    0.0000 C    0  0  0  0  0  0  0  0  0  0  0  0
    1.6378   -7.8742    0.0000 C    0  0  0  0  0  0  0  0  0  0  0  0
    3.8662   -7.8742    0.0000 C    0  0  0  0  0  0  0  0  0  0  0  0
    5.5670   -5.7245    0.0000 Cl   0  0  0  0  0  0  0  0  0  0  0  0
  1  2  1  0  0  0  0
  1  3  1  0  0  0  0
  1  4  1  0  0  0  0
  1 10  1  0  0  0  0
  2 19  1  0  0  0  0
  3 16  1  6  0  0  0
  3 17  1  0  0  0  0
  4  5  1  0  0  0  0
  4  6  2  0  0  0  0
  5  7  2  0  0  0  0
  6  8  1  0  0  0  0
  7  9  1  0  0  0  0
  8  9  2  0  0  0  0
 10 11  1  0  0  0  0
 10 12  2  0  0  0  0
 11 13  2  0  0  0  0
 12 14  1  0  0  0  0
 13 15  1  0  0  0  0
 14 15  2  0  0  0  0
 17 18  1  0  0  0  0
 19 20  1  1  0  0  0
 19 21  1  0  0  0  0
 20 22  1  0  0  0  0
 20 23  1  0  0  0  0
M  END
> <ID>
13905

> <Formula>
C21H30ClNO

> <FW>
347.9220 (311.4611+36.4609)

> <DSSTox_CID>
28842

> <DSSTox_RID>
83111

> <DSSTox_GSID>
48916

> <DSSTox_FileID_Sort>
7788

> <TS_ChemName>
(-)-alpha-Methadol hydrochloride

> <TS_ChemName_Synonyms>
(-)-?-Methadol hydrochloride

> <TS_CASRN>
53757-34-9

> <CASRN_ChemName_Relationship>
primary

> <TS_Description>
single chemical compound

> <ChemNote>
absolute stereochem; parent [14019-10-4]

> <STRUCTURE_Shown>
tested chemical

> <STRUCTURE_Formula>
C21H30ClNO

> <STRUCTURE_MW>
347.922

> <STRUCTURE_ChemType>
defined organic

> <STRUCTURE_DefinedOrganicForm>
complex

> <STRUCTURE_IUPAC>
(3S,6S)-6-(dimethylamino)-4,4-diphenylheptan-3-ol hydrochloride (1:1)

> <STRUCTURE_SMILES>
Cl.O[C@@H](CC)C(C[C@H](C)N(C)C)(c1ccccc1)c2ccccc2

> <STRUCTURE_SMILES_Desalt>
O[C@@H](CC)C(C[C@H](C)N(C)C)(c1ccccc1)c2ccccc2

> <Substance_modify_yyyymmdd>
20111211

$$$$
