53772-82-0
ChemmineR-0915142007XD

 30 33  0  0  0  0  0  0  0  0  1 V2000
    3.4543   -6.0736    0.0000 C   0  0  0  0  0  0  0  0  0  0  0  0
    4.5981   -6.7142    0.0000 C   0  0  0  0  0  0  0  0  0  0  0  0
    3.4543   -8.7273    0.0000 S   0  0  0  0  0  0  0  0  0  0  0  0
    8.0524   -6.0279    0.0000 C   0  0  0  0  0  0  0  0  0  0  0  0
    4.5981   -8.0524    0.0000 C   0  0  0  0  0  0  0  0  0  0  0  0
    2.2991   -6.7142    0.0000 C   0  0  0  0  0  0  0  0  0  0  0  0
    2.2991   -8.0524    0.0000 C   0  0  0  0  0  0  0  0  0  0  0  0
    5.7534   -6.0736    0.0000 C   0  0  0  0  0  0  0  0  0  0  0  0
    6.8972   -6.7142    0.0000 C   0  0  0  0  0  0  0  0  0  0  0  0
    5.7305   -2.0703    0.0000 N   0  0  0  0  0  0  0  0  0  0  0  0
    8.0410   -0.7092    0.0000 N   0  0  0  0  0  0  0  0  0  0  0  0
    3.4543   -4.7125    0.0000 C   0  0  0  0  0  0  0  0  0  0  0  0
    5.7534   -8.7273    0.0000 C   0  0  0  0  0  0  0  0  0  0  0  0
    6.8972   -8.0524    0.0000 C   0  0  0  0  0  0  0  0  0  0  0  0
    9.1962   -5.3530    0.0000 F   0  0  0  0  0  0  0  0  0  0  0  0
    8.7387   -7.1946    0.0000 F   0  0  0  0  0  0  0  0  0  0  0  0
    7.3776   -4.8955    0.0000 F   0  0  0  0  0  0  0  0  0  0  0  0
    6.8857   -2.7223    0.0000 C   0  0  0  0  0  0  0  0  0  0  0  0
    6.8857   -0.0572    0.0000 C   0  0  0  0  0  0  0  0  0  0  0  0
    5.7305   -0.7092    0.0000 C   0  0  0  0  0  0  0  0  0  0  0  0
    8.0410   -2.0703    0.0000 C   0  0  0  0  0  0  0  0  0  0  0  0
    4.5867   -4.0605    0.0000 C   0  0  0  0  0  0  0  0  0  0  0  0
    4.5867   -2.7223    0.0000 C   0  0  0  0  0  0  0  0  0  0  0  0
    1.1552   -6.0736    0.0000 C   0  0  0  0  0  0  0  0  0  0  0  0
    9.1848   -0.0229    0.0000 C   0  0  0  0  0  0  0  0  0  0  0  0
    1.1552   -8.7273    0.0000 C   0  0  0  0  0  0  0  0  0  0  0  0
   11.4381    0.0000    0.0000 O   0  0  0  0  0  0  0  0  0  0  0  0
   10.3171   -0.6748    0.0000 C   0  0  0  0  0  0  0  0  0  0  0  0
    0.0000   -6.7142    0.0000 C   0  0  0  0  0  0  0  0  0  0  0  0
    0.0000   -8.0524    0.0000 C   0  0  0  0  0  0  0  0  0  0  0  0
  1  2  1  0  0  0  0
  1  6  1  0  0  0  0
  1 12  2  0  0  0  0
  2  5  2  0  0  0  0
  2  8  1  0  0  0  0
  3  7  1  0  0  0  0
  3  5  1  0  0  0  0
  4  9  1  0  0  0  0
  4 15  1  0  0  0  0
  4 16  1  0  0  0  0
  4 17  1  0  0  0  0
  5 13  1  0  0  0  0
  6  7  2  0  0  0  0
  6 24  1  0  0  0  0
  7 26  1  0  0  0  0
  8  9  2  0  0  0  0
  9 14  1  0  0  0  0
 10 23  1  0  0  0  0
 10 18  1  0  0  0  0
 10 20  1  0  0  0  0
 11 19  1  0  0  0  0
 11 25  1  0  0  0  0
 11 21  1  0  0  0  0
 12 22  1  0  0  0  0
 13 14  2  0  0  0  0
 18 21  1  0  0  0  0
 19 20  1  0  0  0  0
 22 23  1  0  0  0  0
 24 29  2  0  0  0  0
 25 28  1  0  0  0  0
 26 30  2  0  0  0  0
 27 28  1  0  0  0  0
 29 30  1  0  0  0  0
M  END
> <ID>
11598

> <Formula>
C23H25F3N2OS

> <FW>
434.5176

> <DSSTox_CID>
26310

> <DSSTox_RID>
81531

> <DSSTox_GSID>
46310

> <DSSTox_FileID_Sort>
6212

> <TS_ChemName>
cis-Flupentixol

> <TS_ChemName_Synonyms>


> <TS_CASRN>
53772-82-0

> <CASRN_ChemName_Relationship>
primary

> <TS_Description>
single chemical compound

> <ChemNote>
stereochem

> <STRUCTURE_Shown>
tested chemical

> <STRUCTURE_Formula>
C23H25F3N2OS

> <STRUCTURE_MW>
434.5176

> <STRUCTURE_ChemType>
defined organic

> <STRUCTURE_DefinedOrganicForm>
parent

> <STRUCTURE_IUPAC>
2-(4-{(3Z)-3-[2-(trifluoromethyl)-9H-thioxanthen-9-ylidene]propyl}piperazin-1-yl)ethanol

> <STRUCTURE_SMILES>
FC(F)(F)c2cc3C(=C\CCN1CCN(CCO)CC1)/c4ccccc4Sc3cc2

> <STRUCTURE_SMILES_Desalt>
FC(F)(F)c2cc3C(=C\CCN1CCN(CCO)CC1)/c4ccccc4Sc3cc2

> <Substance_modify_yyyymmdd>
20110815

$$$$
