53786-28-0
ChemmineR-0915142007XD

 17 19  0  0  0  0  0  0  0  0  1 V2000
    0.0000   -6.2001    0.0000 Cl   0  0  0  0  0  0  0  0  0  0  0  0
    1.1497   -5.5363    0.0000 C    0  0  0  0  0  0  0  0  0  0  0  0
    2.3062   -6.2001    0.0000 C    0  0  0  0  0  0  0  0  0  0  0  0
    3.4559   -5.5363    0.0000 C    0  0  0  0  0  0  0  0  0  0  0  0
    3.4559   -4.2087    0.0000 C    0  0  0  0  0  0  0  0  0  0  0  0
    2.3062   -3.5380    0.0000 C    0  0  0  0  0  0  0  0  0  0  0  0
    1.1497   -4.2087    0.0000 C    0  0  0  0  0  0  0  0  0  0  0  0
    4.7219   -3.7912    0.0000 N    0  0  0  0  0  0  0  0  0  0  0  0
    5.1325   -2.5320    0.0000 C    0  0  0  0  0  0  0  0  0  0  0  0
    6.4328   -2.2515    0.0000 C    0  0  0  0  0  0  0  0  0  0  0  0
    6.8434   -0.9854    0.0000 C    0  0  0  0  0  0  0  0  0  0  0  0
    5.9537    0.0000    0.0000 N    0  0  0  0  0  0  0  0  0  0  0  0
    4.6535   -0.2737    0.0000 C    0  0  0  0  0  0  0  0  0  0  0  0
    4.2429   -1.5398    0.0000 C    0  0  0  0  0  0  0  0  0  0  0  0
    5.5021   -4.8725    0.0000 C    0  0  0  0  0  0  0  0  0  0  0  0
    6.8297   -4.8725    0.0000 O    0  0  0  0  0  0  0  0  0  0  0  0
    4.7219   -5.9469    0.0000 N    0  0  0  0  0  0  0  0  0  0  0  0
  1  2  1  0  0  0  0
  2  3  2  0  0  0  0
  2  7  1  0  0  0  0
  3  4  1  0  0  0  0
  4  5  2  0  0  0  0
  4 17  1  0  0  0  0
  5  6  1  0  0  0  0
  5  8  1  0  0  0  0
  6  7  2  0  0  0  0
  8  9  1  0  0  0  0
  8 15  1  0  0  0  0
  9 10  1  0  0  0  0
  9 14  1  0  0  0  0
 10 11  1  0  0  0  0
 11 12  1  0  0  0  0
 12 13  1  0  0  0  0
 13 14  1  0  0  0  0
 15 16  2  0  0  0  0
 15 17  1  0  0  0  0
M  END
> <ID>
16163

> <Formula>
C12H14ClN3O

> <FW>
251.7121

> <DSSTox_CID>
31553

> <DSSTox_RID>
97438

> <DSSTox_GSID>
57764

> <DSSTox_FileID_Sort>
8505

> <TS_ChemName>
5-Chloro-1-(4-piperidyl)-1H-benzimidazol-2(3H)-one

> <TS_ChemName_Synonyms>


> <TS_CASRN>
53786-28-0

> <CASRN_ChemName_Relationship>
primary

> <TS_Description>
single chemical compound

> <ChemNote>


> <STRUCTURE_Shown>
tested chemical

> <STRUCTURE_Formula>
C12H14ClN3O

> <STRUCTURE_MW>
251.7121

> <STRUCTURE_ChemType>
defined organic

> <STRUCTURE_DefinedOrganicForm>
parent

> <STRUCTURE_IUPAC>
5-chloro-1-(piperidin-4-yl)-1,3-dihydro-2H-benzimidazol-2-one

> <STRUCTURE_SMILES>
Clc1cc2NC(=O)N(c2cc1)C3CCNCC3

> <STRUCTURE_SMILES_Desalt>
Clc1cc2NC(=O)N(c2cc1)C3CCNCC3

> <Substance_modify_yyyymmdd>
20131121

$$$$
