53786-45-1
ChemmineR-0915142007XD

 20 21  0  0  0  0  0  0  0  0  1 V2000
    7.3153  -10.3616    0.0000 C    0  0  0  0  0  0  0  0  0  0  0  0
    7.9784   -9.2114    0.0000 C    0  0  0  0  0  0  0  0  0  0  0  0
    7.3153   -8.0613    0.0000 O    0  0  0  0  0  0  0  0  0  0  0  0
    7.9784   -6.9112    0.0000 C    0  0  0  0  0  0  0  0  0  0  0  0
    9.3047   -6.9112    0.0000 O    0  0  0  0  0  0  0  0  0  0  0  0
    7.3153   -5.7610    0.0000 N    0  0  0  0  0  0  0  0  0  0  0  0
    7.9784   -4.6005    0.0000 C    0  0  0  0  0  0  0  0  0  0  0  0
    7.3153   -3.4504    0.0000 C    0  0  0  0  0  0  0  0  0  0  0  0
    5.9786   -3.4504    0.0000 C    0  0  0  0  0  0  0  0  0  0  0  0
    5.3155   -4.6005    0.0000 C    0  0  0  0  0  0  0  0  0  0  0  0
    5.9786   -5.7610    0.0000 C    0  0  0  0  0  0  0  0  0  0  0  0
    5.3155   -2.3003    0.0000 N    0  0  0  0  0  0  0  0  0  0  0  0
    3.9892   -2.3003    0.0000 C    0  0  0  0  0  0  0  0  0  0  0  0
    3.3261   -1.1501    0.0000 C    0  0  0  0  0  0  0  0  0  0  0  0
    3.9892    0.0000    0.0000 N    0  0  0  0  0  0  0  0  0  0  0  0
    1.9894   -1.1501    0.0000 C    0  0  0  0  0  0  0  0  0  0  0  0
    1.3263   -2.3003    0.0000 C    0  0  0  0  0  0  0  0  0  0  0  0
    0.0000   -2.3003    0.0000 Cl   0  0  0  0  0  0  0  0  0  0  0  0
    1.9894   -3.4504    0.0000 C    0  0  0  0  0  0  0  0  0  0  0  0
    3.3261   -3.4504    0.0000 C    0  0  0  0  0  0  0  0  0  0  0  0
  1  2  1  0  0  0  0
  2  3  1  0  0  0  0
  3  4  1  0  0  0  0
  4  5  2  0  0  0  0
  4  6  1  0  0  0  0
  6  7  1  0  0  0  0
  6 11  1  0  0  0  0
  7  8  1  0  0  0  0
  8  9  1  0  0  0  0
  9 10  1  0  0  0  0
  9 12  1  0  0  0  0
 10 11  1  0  0  0  0
 12 13  1  0  0  0  0
 13 14  2  0  0  0  0
 13 20  1  0  0  0  0
 14 15  1  0  0  0  0
 14 16  1  0  0  0  0
 16 17  2  0  0  0  0
 17 18  1  0  0  0  0
 17 19  1  0  0  0  0
 19 20  2  0  0  0  0
M  END
> <ID>
16164

> <Formula>
C14H20ClN3O2

> <FW>
297.7805

> <DSSTox_CID>
31554

> <DSSTox_RID>
97439

> <DSSTox_GSID>
57765

> <DSSTox_FileID_Sort>
8506

> <TS_ChemName>
Ethyl 4-(2-amino-4-chloroanilino)piperidine-1-carboxylate

> <TS_ChemName_Synonyms>


> <TS_CASRN>
53786-45-1

> <CASRN_ChemName_Relationship>
primary

> <TS_Description>
single chemical compound

> <ChemNote>


> <STRUCTURE_Shown>
tested chemical

> <STRUCTURE_Formula>
C14H20ClN3O2

> <STRUCTURE_MW>
297.7805

> <STRUCTURE_ChemType>
defined organic

> <STRUCTURE_DefinedOrganicForm>
parent

> <STRUCTURE_IUPAC>
ethyl 4-[(2-amino-4-chlorophenyl)amino]piperidine-1-carboxylate

> <STRUCTURE_SMILES>
Clc2ccc(NC1CCN(CC1)C(=O)OCC)c(N)c2

> <STRUCTURE_SMILES_Desalt>
Clc2ccc(NC1CCN(CC1)C(=O)OCC)c(N)c2

> <Substance_modify_yyyymmdd>
20131018

$$$$
