53797-35-6
ChemmineR-0915142007XD

 36 37  0  0  1  0  0  0  0  0  1 V2000
    3.4415   -7.0995    0.0000 C   0  0  0  0  0  0  0  0  0  0  0  0
    4.4883   -6.3294    0.0000 O   0  0  0  0  0  0  0  0  0  0  0  0
    3.8385   -8.3509    0.0000 C   0  0  0  0  0  0  0  0  0  0  0  0
    5.5352   -7.0995    0.0000 C   0  0  0  0  0  0  0  0  0  0  0  0
    5.1381   -8.3509    0.0000 C   0  0  0  0  0  0  0  0  0  0  0  0
    6.7987   -6.7024    0.0000 O   0  0  0  0  0  0  0  0  0  0  0  0
    5.8962   -9.4099    0.0000 O   0  0  0  0  0  0  0  0  0  0  0  0
    3.0805   -9.4099    0.0000 O   0  0  0  0  0  0  0  0  0  0  0  0
    2.2021   -6.7024    0.0000 C   0  0  0  0  0  0  0  0  0  0  0  0
    1.2274   -7.5688    0.0000 O   0  0  0  0  0  0  0  0  0  0  0  0
    6.7987   -4.5605    0.0000 C   0  0  0  0  0  0  0  0  0  0  0  0
    5.6796   -3.9228    0.0000 C   0  0  0  0  0  0  0  0  0  0  0  0
    7.9298   -3.9228    0.0000 C   0  0  0  0  0  0  0  0  0  0  0  0
    5.6796   -2.6112    0.0000 C   0  0  0  0  0  0  0  0  0  0  0  0
    7.9298   -2.6112    0.0000 C   0  0  0  0  0  0  0  0  0  0  0  0
    6.7987   -1.9494    0.0000 C   0  0  0  0  0  0  0  0  0  0  0  0
    9.0609   -4.5605    0.0000 O   0  0  0  0  0  0  0  0  0  0  0  0
    9.0609   -1.9494    0.0000 N   0  0  0  0  0  0  0  0  0  0  0  0
    4.5244   -1.9494    0.0000 N   0  0  0  0  0  0  0  0  0  0  0  0
    4.5244   -4.5605    0.0000 O   0  0  0  0  0  0  0  0  0  0  0  0
    3.4174   -3.9228    0.0000 C   0  0  0  0  0  0  0  0  0  0  0  0
    2.2622   -4.5605    0.0000 C   0  0  0  0  0  0  0  0  0  0  0  0
    3.4174   -2.6112    0.0000 O   0  0  0  0  0  0  0  0  0  0  0  0
    1.1431   -3.9228    0.0000 C   0  0  0  0  0  0  0  0  0  0  0  0
    2.2622   -1.9494    0.0000 C   0  0  0  0  0  0  0  0  0  0  0  0
    1.1431   -2.6112    0.0000 C   0  0  0  0  0  0  0  0  0  0  0  0
    2.2622   -0.6498    0.0000 C   0  0  0  0  0  0  0  0  0  0  0  0
    3.4174    0.0000    0.0000 N   0  0  0  0  0  0  0  0  0  0  0  0
    0.0000   -1.9494    0.0000 O   0  0  0  0  0  0  0  0  0  0  0  0
    0.0000   -4.5605    0.0000 O   0  0  0  0  0  0  0  0  0  0  0  0
    2.2622   -5.8721    0.0000 N   0  0  0  0  0  0  0  0  0  0  0  0
   10.7335   -7.0995    0.0000 S   0  0  0  0  0  0  0  0  0  0  0  0
   12.0331   -7.0995    0.0000 O   0  0  0  0  0  0  0  0  0  0  0  0
    9.4219   -7.0995    0.0000 O   0  0  0  0  0  0  0  0  0  0  0  0
   10.7335   -8.3991    0.0000 O   0  0  0  0  0  0  0  0  0  0  0  0
   10.7335   -5.7879    0.0000 O   0  0  0  0  0  0  0  0  0  0  0  0
  1  2  1  0  0  0  0
  1  3  1  0  0  0  0
  1  9  1  1  0  0  0
  2  4  1  0  0  0  0
  3  5  1  0  0  0  0
  3  8  1  6  0  0  0
  4  5  1  0  0  0  0
  4  6  1  1  0  0  0
  5  7  1  6  0  0  0
 11  6  1  1  0  0  0
  9 10  1  0  0  0  0
 11 12  1  0  0  0  0
 11 13  1  0  0  0  0
 12 14  1  0  0  0  0
 12 20  1  6  0  0  0
 13 15  1  0  0  0  0
 13 17  1  0  0  0  0
 14 16  1  0  0  0  0
 14 19  1  1  0  0  0
 15 16  1  0  0  0  0
 15 18  1  1  0  0  0
 21 20  1  6  0  0  0
 21 22  1  0  0  0  0
 21 23  1  0  0  0  0
 22 24  1  0  0  0  0
 22 31  1  6  0  0  0
 23 25  1  0  0  0  0
 24 26  1  0  0  0  0
 24 30  1  1  0  0  0
 25 26  1  0  0  0  0
 25 27  1  1  0  0  0
 26 29  1  6  0  0  0
 27 28  1  0  0  0  0
 32 33  2  0  0  0  0
 32 34  2  0  0  0  0
 32 35  1  0  0  0  0
 32 36  1  0  0  0  0
M  END
> <ID>
10974

> <Formula>
C17H36N4O14S

> <FW>
552.5511 (454.4727+98.0785)

> <DSSTox_CID>
25480

> <DSSTox_RID>
80906

> <DSSTox_GSID>
45480

> <DSSTox_FileID_Sort>
5587

> <TS_ChemName>
Ribostamycin sulfate

> <TS_ChemName_Synonyms>


> <TS_CASRN>
53797-35-6

> <CASRN_ChemName_Relationship>
primary

> <TS_Description>
single chemical compound

> <ChemNote>
parent

> <STRUCTURE_Shown>
tested chemical

> <STRUCTURE_Formula>
C17H36N4O14S

> <STRUCTURE_MW>
552.5511

> <STRUCTURE_ChemType>
defined organic

> <STRUCTURE_DefinedOrganicForm>
complex

> <STRUCTURE_IUPAC>
(1R,2R,4R,6S)-4,6-diamino-3-hydroxy-2-(beta-D-ribofuranosyloxy)cyclohexyl 2,6-diamino-2,6-dideoxy-alpha-D-glucopyranoside sulfate (1:1)

> <STRUCTURE_SMILES>
O=S(=O)(O)O.N[C@@H]3[C@@H](O)[C@H](O)[C@@H](CN)O[C@@H]3O[C@@H]2[C@@H](N)C[C@@H](N)C(O)[C@H]2O[C@@H]1O[C@H](CO)[C@@H](O)[C@H]1O

> <STRUCTURE_SMILES_Desalt>
N[C@@H]3[C@@H](O)[C@H](O)[C@@H](CN)O[C@@H]3O[C@@H]2[C@@H](N)C[C@@H](N)C(O)[C@H]2O[C@@H]1O[C@H](CO)[C@@H](O)[C@H]1O

> <Substance_modify_yyyymmdd>
20100107

$$$$
