538-75-0
ChemmineR-0915142007XD

 15 16  0  0  0  0  0  0  0  0  1 V2000
    4.5999   -2.0055    0.0000 C   0  0  0  0  0  0  0  0  0  0  0  0
    5.7406   -1.3248    0.0000 N   0  0  0  0  0  0  0  0  0  0  0  0
    3.4591   -2.6587    0.0000 N   0  0  0  0  0  0  0  0  0  0  0  0
    6.8998   -2.0055    0.0000 C   0  0  0  0  0  0  0  0  0  0  0  0
    2.2999   -2.0055    0.0000 C   0  0  0  0  0  0  0  0  0  0  0  0
    8.0406   -1.3248    0.0000 C   0  0  0  0  0  0  0  0  0  0  0  0
    1.1592   -2.6587    0.0000 C   0  0  0  0  0  0  0  0  0  0  0  0
    6.8998   -3.3303    0.0000 C   0  0  0  0  0  0  0  0  0  0  0  0
    2.2999   -0.6532    0.0000 C   0  0  0  0  0  0  0  0  0  0  0  0
    8.0406   -3.9835    0.0000 C   0  0  0  0  0  0  0  0  0  0  0  0
    9.1997   -2.0055    0.0000 C   0  0  0  0  0  0  0  0  0  0  0  0
    1.1592    0.0000    0.0000 C   0  0  0  0  0  0  0  0  0  0  0  0
    0.0000   -2.0055    0.0000 C   0  0  0  0  0  0  0  0  0  0  0  0
    0.0000   -0.6532    0.0000 C   0  0  0  0  0  0  0  0  0  0  0  0
    9.1997   -3.3303    0.0000 C   0  0  0  0  0  0  0  0  0  0  0  0
  1  2  2  0  0  0  0
  1  3  2  0  0  0  0
  2  4  1  0  0  0  0
  3  5  1  0  0  0  0
  4  6  1  0  0  0  0
  4  8  1  0  0  0  0
  5  7  1  0  0  0  0
  5  9  1  0  0  0  0
  6 11  1  0  0  0  0
  7 13  1  0  0  0  0
  8 10  1  0  0  0  0
  9 12  1  0  0  0  0
 10 15  1  0  0  0  0
 11 15  1  0  0  0  0
 12 14  1  0  0  0  0
 13 14  1  0  0  0  0
M  END
> <ID>
3375

> <Formula>
C13H22N2

> <FW>
206.3272

> <DSSTox_CID>
3817

> <DSSTox_RID>
77197

> <DSSTox_GSID>
23817

> <DSSTox_FileID_Sort>
1880

> <TS_ChemName>
Dicyclohexylcarbodiimide

> <TS_ChemName_Synonyms>
Dicyclohexylcarboxydilmide (DCCD) (Cyclohexanamine, N,N'-methanetetraylbis-) (1,3-Dicyclohexylcarbodiimide)

> <TS_CASRN>
538-75-0

> <CASRN_ChemName_Relationship>
primary

> <TS_Description>
single chemical compound

> <ChemNote>


> <STRUCTURE_Shown>
tested chemical

> <STRUCTURE_Formula>
C13H22N2

> <STRUCTURE_MW>
206.3272

> <STRUCTURE_ChemType>
defined organic

> <STRUCTURE_DefinedOrganicForm>
parent

> <STRUCTURE_IUPAC>
N,N'-dicyclohexylcarbodiimide

> <STRUCTURE_SMILES>
N(=C=N\C1CCCCC1)\C2CCCCC2

> <STRUCTURE_SMILES_Desalt>
N(=C=N\C1CCCCC1)\C2CCCCC2

> <Substance_modify_yyyymmdd>
20080429

$$$$
