538-23-8
ChemmineR-0915142007XD

 33 32  0  0  0  0  0  0  0  0  1 V2000
    5.7724   -7.3216    0.0000 O   0  0  0  0  0  0  0  0  0  0  0  0
    6.9158   -7.9855    0.0000 C   0  0  0  0  0  0  0  0  0  0  0  0
    8.0777   -7.3216    0.0000 O   0  0  0  0  0  0  0  0  0  0  0  0
    8.0777   -5.9753    0.0000 C   0  0  0  0  0  0  0  0  0  0  0  0
    9.2211   -5.3114    0.0000 C   0  0  0  0  0  0  0  0  0  0  0  0
   10.3645   -5.9753    0.0000 O   0  0  0  0  0  0  0  0  0  0  0  0
   11.5264   -5.3114    0.0000 C   0  0  0  0  0  0  0  0  0  0  0  0
   12.6698   -5.9753    0.0000 O   0  0  0  0  0  0  0  0  0  0  0  0
   11.5264   -3.9835    0.0000 C   0  0  0  0  0  0  0  0  0  0  0  0
   12.6698   -3.3196    0.0000 C   0  0  0  0  0  0  0  0  0  0  0  0
   13.8317   -3.9835    0.0000 C   0  0  0  0  0  0  0  0  0  0  0  0
   14.9936   -3.3196    0.0000 C   0  0  0  0  0  0  0  0  0  0  0  0
   16.1370   -3.9835    0.0000 C   0  0  0  0  0  0  0  0  0  0  0  0
   17.2804   -3.3196    0.0000 C   0  0  0  0  0  0  0  0  0  0  0  0
   18.4423   -3.9835    0.0000 C   0  0  0  0  0  0  0  0  0  0  0  0
    6.9158   -5.3114    0.0000 C   0  0  0  0  0  0  0  0  0  0  0  0
    5.7724   -5.9753    0.0000 O   0  0  0  0  0  0  0  0  0  0  0  0
    4.6106   -5.3114    0.0000 C   0  0  0  0  0  0  0  0  0  0  0  0
    4.6106   -3.9835    0.0000 O   0  0  0  0  0  0  0  0  0  0  0  0
    3.4487   -5.9753    0.0000 C   0  0  0  0  0  0  0  0  0  0  0  0
    2.3053   -5.3114    0.0000 C   0  0  0  0  0  0  0  0  0  0  0  0
    2.3053   -3.9835    0.0000 C   0  0  0  0  0  0  0  0  0  0  0  0
    1.1434   -3.3196    0.0000 C   0  0  0  0  0  0  0  0  0  0  0  0
    1.1434   -1.9918    0.0000 C   0  0  0  0  0  0  0  0  0  0  0  0
    0.0000   -1.3278    0.0000 C   0  0  0  0  0  0  0  0  0  0  0  0
    0.0000    0.0000    0.0000 C   0  0  0  0  0  0  0  0  0  0  0  0
    6.9158   -9.3133    0.0000 C   0  0  0  0  0  0  0  0  0  0  0  0
    5.7724   -9.9773    0.0000 C   0  0  0  0  0  0  0  0  0  0  0  0
    4.6106   -9.3133    0.0000 C   0  0  0  0  0  0  0  0  0  0  0  0
    3.4487   -9.9773    0.0000 C   0  0  0  0  0  0  0  0  0  0  0  0
    2.3053   -9.3133    0.0000 C   0  0  0  0  0  0  0  0  0  0  0  0
    1.1434   -9.9773    0.0000 C   0  0  0  0  0  0  0  0  0  0  0  0
    0.0000   -9.3133    0.0000 C   0  0  0  0  0  0  0  0  0  0  0  0
  1  2  2  0  0  0  0
  2  3  1  0  0  0  0
  2 27  1  0  0  0  0
  3  4  1  0  0  0  0
  4  5  1  0  0  0  0
  4 16  1  0  0  0  0
  5  6  1  0  0  0  0
  6  7  1  0  0  0  0
  7  8  2  0  0  0  0
  7  9  1  0  0  0  0
  9 10  1  0  0  0  0
 10 11  1  0  0  0  0
 11 12  1  0  0  0  0
 12 13  1  0  0  0  0
 13 14  1  0  0  0  0
 14 15  1  0  0  0  0
 16 17  1  0  0  0  0
 17 18  1  0  0  0  0
 18 19  2  0  0  0  0
 18 20  1  0  0  0  0
 20 21  1  0  0  0  0
 21 22  1  0  0  0  0
 22 23  1  0  0  0  0
 23 24  1  0  0  0  0
 24 25  1  0  0  0  0
 25 26  1  0  0  0  0
 27 28  1  0  0  0  0
 28 29  1  0  0  0  0
 29 30  1  0  0  0  0
 30 31  1  0  0  0  0
 31 32  1  0  0  0  0
 32 33  1  0  0  0  0
M  END
> <ID>
1321

> <Formula>
C27H50O6

> <FW>
470.6823

> <DSSTox_CID>
1375

> <DSSTox_RID>
76119

> <DSSTox_GSID>
21375

> <DSSTox_FileID_Sort>
803

> <TS_ChemName>
Tricaprylin

> <TS_ChemName_Synonyms>
Tricaprylin (Octanoic acid, 1,2,3-propanetriyl ester)

> <TS_CASRN>
538-23-8

> <CASRN_ChemName_Relationship>
primary

> <TS_Description>
single chemical compound

> <ChemNote>


> <STRUCTURE_Shown>
tested chemical

> <STRUCTURE_Formula>
C27H50O6

> <STRUCTURE_MW>
470.6823

> <STRUCTURE_ChemType>
defined organic

> <STRUCTURE_DefinedOrganicForm>
parent

> <STRUCTURE_IUPAC>
propane-1,2,3-triyl trioctanoate

> <STRUCTURE_SMILES>
O=C(CCCCCCC)OC(COC(=O)CCCCCCC)COC(=O)CCCCCCC

> <STRUCTURE_SMILES_Desalt>
O=C(CCCCCCC)OC(COC(=O)CCCCCCC)COC(=O)CCCCCCC

> <Substance_modify_yyyymmdd>
20080429

$$$$
