538-71-6
ChemmineR-0915142007XD

 25 24  0  0  0  0  0  0  0  0  2 V2000
   11.9730   -1.3283    0.0000 N    0  3  0  0  0  0  0  0  0  0  0  0
   10.6447   -1.3283    0.0000 C    0  0  0  0  0  0  0  0  0  0  0  0
    9.9625   -2.4951    0.0000 C    0  0  0  0  0  0  0  0  0  0  0  0
    8.6342   -2.4951    0.0000 C    0  0  0  0  0  0  0  0  0  0  0  0
    7.9880   -3.6440    0.0000 C    0  0  0  0  0  0  0  0  0  0  0  0
    6.6596   -3.6440    0.0000 C    0  0  0  0  0  0  0  0  0  0  0  0
    5.9775   -4.7928    0.0000 C    0  0  0  0  0  0  0  0  0  0  0  0
    4.6492   -4.7928    0.0000 C    0  0  0  0  0  0  0  0  0  0  0  0
    3.9850   -5.9416    0.0000 C    0  0  0  0  0  0  0  0  0  0  0  0
    2.6567   -5.9416    0.0000 C    0  0  0  0  0  0  0  0  0  0  0  0
    1.9925   -7.1084    0.0000 C    0  0  0  0  0  0  0  0  0  0  0  0
    0.6642   -7.1084    0.0000 C    0  0  0  0  0  0  0  0  0  0  0  0
    0.0000   -8.2572    0.0000 C    0  0  0  0  0  0  0  0  0  0  0  0
   11.9730    0.0000    0.0000 C    0  0  0  0  0  0  0  0  0  0  0  0
   11.9730   -2.6567    0.0000 C    0  0  0  0  0  0  0  0  0  0  0  0
   13.3013   -1.3283    0.0000 C    0  0  0  0  0  0  0  0  0  0  0  0
   13.9655   -2.4951    0.0000 C    0  0  0  0  0  0  0  0  0  0  0  0
   15.2939   -2.4951    0.0000 O    0  0  0  0  0  0  0  0  0  0  0  0
   15.9580   -3.6440    0.0000 C    0  0  0  0  0  0  0  0  0  0  0  0
   17.2864   -3.6440    0.0000 C    0  0  0  0  0  0  0  0  0  0  0  0
   15.2939   -4.7928    0.0000 C    0  0  0  0  0  0  0  0  0  0  0  0
   17.9505   -4.7928    0.0000 C    0  0  0  0  0  0  0  0  0  0  0  0
   15.9580   -5.9416    0.0000 C    0  0  0  0  0  0  0  0  0  0  0  0
   17.2864   -5.9416    0.0000 C    0  0  0  0  0  0  0  0  0  0  0  0
    9.6215    0.0000    0.0000 Br   0  5  0  0  0  0  0  0  0  0  0  0
  1  2  1  0  0  0  0
  1 14  1  0  0  0  0
  1 15  1  0  0  0  0
  1 16  1  0  0  0  0
  2  3  1  0  0  0  0
  3  4  1  0  0  0  0
  4  5  1  0  0  0  0
  5  6  1  0  0  0  0
  6  7  1  0  0  0  0
  7  8  1  0  0  0  0
  8  9  1  0  0  0  0
  9 10  1  0  0  0  0
 10 11  1  0  0  0  0
 11 12  1  0  0  0  0
 12 13  1  0  0  0  0
 16 17  1  0  0  0  0
 17 18  1  0  0  0  0
 18 19  1  0  0  0  0
 19 20  2  0  0  0  0
 19 21  1  0  0  0  0
 20 22  1  0  0  0  0
 21 23  2  0  0  0  0
 22 24  2  0  0  0  0
 23 24  1  0  0  0  0
M  END
> <ID>
6627

> <Formula>
C22H40BrNO

> <FW>
414.4631 (334.5586+79.9045)

> <DSSTox_CID>
13468

> <DSSTox_RID>
79076

> <DSSTox_GSID>
33468

> <DSSTox_FileID_Sort>
3758

> <TS_ChemName>
Domiphen bromide

> <TS_ChemName_Synonyms>


> <TS_CASRN>
538-71-6

> <CASRN_ChemName_Relationship>
primary

> <TS_Description>
single chemical compound

> <ChemNote>
ammonium; parent [13900-14-6]

> <STRUCTURE_Shown>
tested chemical

> <STRUCTURE_Formula>
C22H40BrNO

> <STRUCTURE_MW>
414.4631

> <STRUCTURE_ChemType>
defined organic

> <STRUCTURE_DefinedOrganicForm>
salt

> <STRUCTURE_IUPAC>
N,N-dimethyl-N-(2-phenoxyethyl)dodecan-1-aminium bromide

> <STRUCTURE_SMILES>
[Br-].CCCCCCCCCCCC[N+](C)(C)CCOc1ccccc1

> <STRUCTURE_SMILES_Desalt>
CCCCCCCCCCCC[N+](C)(C)CCOc1ccccc1

> <Substance_modify_yyyymmdd>
20080429

$$$$
