538-74-9
ChemmineR-0915142007XD

 15 16  0  0  0  0  0  0  0  0  1 V2000
    3.4530   -2.6611    0.0000 C   0  0  0  0  0  0  0  0  0  0  0  0
    4.6040   -1.9981    0.0000 S   0  0  0  0  0  0  0  0  0  0  0  0
    5.7550   -2.6611    0.0000 C   0  0  0  0  0  0  0  0  0  0  0  0
    6.9060   -1.9981    0.0000 C   0  0  0  0  0  0  0  0  0  0  0  0
    6.9060   -0.6630    0.0000 C   0  0  0  0  0  0  0  0  0  0  0  0
    8.0570    0.0000    0.0000 C   0  0  0  0  0  0  0  0  0  0  0  0
    9.2080   -0.6630    0.0000 C   0  0  0  0  0  0  0  0  0  0  0  0
    9.2080   -1.9981    0.0000 C   0  0  0  0  0  0  0  0  0  0  0  0
    8.0570   -2.6611    0.0000 C   0  0  0  0  0  0  0  0  0  0  0  0
    2.3020   -1.9981    0.0000 C   0  0  0  0  0  0  0  0  0  0  0  0
    1.1510   -2.6611    0.0000 C   0  0  0  0  0  0  0  0  0  0  0  0
    0.0000   -1.9981    0.0000 C   0  0  0  0  0  0  0  0  0  0  0  0
    0.0000   -0.6630    0.0000 C   0  0  0  0  0  0  0  0  0  0  0  0
    1.1510    0.0000    0.0000 C   0  0  0  0  0  0  0  0  0  0  0  0
    2.3020   -0.6630    0.0000 C   0  0  0  0  0  0  0  0  0  0  0  0
  1  2  1  0  0  0  0
  1 10  1  0  0  0  0
  2  3  1  0  0  0  0
  3  4  1  0  0  0  0
  4  5  2  0  0  0  0
  4  9  1  0  0  0  0
  5  6  1  0  0  0  0
  6  7  2  0  0  0  0
  7  8  1  0  0  0  0
  8  9  2  0  0  0  0
 10 11  2  0  0  0  0
 10 15  1  0  0  0  0
 11 12  1  0  0  0  0
 12 13  2  0  0  0  0
 13 14  1  0  0  0  0
 14 15  2  0  0  0  0
M  END
> <ID>
3756

> <Formula>
C14H14S

> <FW>
214.326

> <DSSTox_CID>
4599

> <DSSTox_RID>
77463

> <DSSTox_GSID>
24599

> <DSSTox_FileID_Sort>
2146

> <TS_ChemName>
Benzyl sulfide

> <TS_ChemName_Synonyms>


> <TS_CASRN>
538-74-9

> <CASRN_ChemName_Relationship>
primary

> <TS_Description>
single chemical compound

> <ChemNote>


> <STRUCTURE_Shown>
tested chemical

> <STRUCTURE_Formula>
C14H14S

> <STRUCTURE_MW>
214.326

> <STRUCTURE_ChemType>
defined organic

> <STRUCTURE_DefinedOrganicForm>
parent

> <STRUCTURE_IUPAC>
dibenzyl sulfide

> <STRUCTURE_SMILES>
C(SCc1ccccc1)c2ccccc2

> <STRUCTURE_SMILES_Desalt>
C(SCc1ccccc1)c2ccccc2

> <Substance_modify_yyyymmdd>
20080429

$$$$
