538-41-0
ChemmineR-0915142007XD

 16 17  0  0  0  0  0  0  0  0  1 V2000
    0.0000   -1.1519    0.0000 N   0  0  0  0  0  0  0  0  0  0  0  0
    1.3326   -1.1519    0.0000 C   0  0  0  0  0  0  0  0  0  0  0  0
    1.9877    0.0000    0.0000 C   0  0  0  0  0  0  0  0  0  0  0  0
    3.3203    0.0000    0.0000 C   0  0  0  0  0  0  0  0  0  0  0  0
    3.9866   -1.1519    0.0000 C   0  0  0  0  0  0  0  0  0  0  0  0
    3.3203   -2.3039    0.0000 C   0  0  0  0  0  0  0  0  0  0  0  0
    1.9877   -2.3039    0.0000 C   0  0  0  0  0  0  0  0  0  0  0  0
    5.3193   -1.1519    0.0000 N   0  0  0  0  0  0  0  0  0  0  0  0
    5.9743   -2.3039    0.0000 N   0  0  0  0  0  0  0  0  0  0  0  0
    7.3069   -2.3039    0.0000 C   0  0  0  0  0  0  0  0  0  0  0  0
    7.9733   -1.1519    0.0000 C   0  0  0  0  0  0  0  0  0  0  0  0
    9.3059   -1.1519    0.0000 C   0  0  0  0  0  0  0  0  0  0  0  0
    9.9609   -2.3039    0.0000 C   0  0  0  0  0  0  0  0  0  0  0  0
    9.3059   -3.4558    0.0000 C   0  0  0  0  0  0  0  0  0  0  0  0
    7.9733   -3.4558    0.0000 C   0  0  0  0  0  0  0  0  0  0  0  0
   11.2936   -2.3039    0.0000 N   0  0  0  0  0  0  0  0  0  0  0  0
  1  2  1  0  0  0  0
  2  3  2  0  0  0  0
  2  7  1  0  0  0  0
  3  4  1  0  0  0  0
  4  5  2  0  0  0  0
  5  6  1  0  0  0  0
  5  8  1  0  0  0  0
  6  7  2  0  0  0  0
  8  9  2  0  0  0  0
  9 10  1  0  0  0  0
 10 11  2  0  0  0  0
 10 15  1  0  0  0  0
 11 12  1  0  0  0  0
 12 13  2  0  0  0  0
 13 14  1  0  0  0  0
 13 16  1  0  0  0  0
 14 15  2  0  0  0  0
M  END
> <ID>
384

> <Formula>
C12H12N4

> <FW>
212.2505

> <DSSTox_CID>
399

> <DSSTox_RID>
75562

> <DSSTox_GSID>
20399

> <DSSTox_FileID_Sort>
246

> <TS_ChemName>
4,4'-Diaminoazobenzene

> <TS_ChemName_Synonyms>


> <TS_CASRN>
538-41-0

> <CASRN_ChemName_Relationship>
primary

> <TS_Description>
single chemical compound

> <ChemNote>


> <STRUCTURE_Shown>
tested chemical

> <STRUCTURE_Formula>
C12H12N4

> <STRUCTURE_MW>
212.2505

> <STRUCTURE_ChemType>
defined organic

> <STRUCTURE_DefinedOrganicForm>
parent

> <STRUCTURE_IUPAC>
4,4'-(E)-diazene-1,2-diyldianiline

> <STRUCTURE_SMILES>
Nc2ccc(/N=N/c1ccc(N)cc1)cc2

> <STRUCTURE_SMILES_Desalt>
Nc2ccc(/N=N/c1ccc(N)cc1)cc2

> <Substance_modify_yyyymmdd>
20080429

$$$$
