53808-88-1
ChemmineR-0915142007XD

 22 24  0  0  0  0  0  0  0  0  1 V2000
    0.2378   -5.7580    0.0000 O    0  0  0  0  0  0  0  0  0  0  0  0
    0.7857   -6.9675    0.0000 C    0  0  0  0  0  0  0  0  0  0  0  0
    0.0000   -8.0426    0.0000 O    0  0  0  0  0  0  0  0  0  0  0  0
    2.1089   -7.1122    0.0000 C    0  0  0  0  0  0  0  0  0  0  0  0
    2.8842   -6.0371    0.0000 C    0  0  0  0  0  0  0  0  0  0  0  0
    2.4707   -4.7656    0.0000 C    0  0  0  0  0  0  0  0  0  0  0  0
    3.5458   -3.9903    0.0000 N    0  0  0  0  0  0  0  0  0  0  0  0
    4.6209   -4.7656    0.0000 N    0  0  0  0  0  0  0  0  0  0  0  0
    4.2177   -6.0371    0.0000 C    0  0  0  0  0  0  0  0  0  0  0  0
    4.9930   -7.1122    0.0000 C    0  0  0  0  0  0  0  0  0  0  0  0
    6.3162   -6.9675    0.0000 C    0  0  0  0  0  0  0  0  0  0  0  0
    7.1019   -8.0426    0.0000 C    0  0  0  0  0  0  0  0  0  0  0  0
    6.5643   -9.2624    0.0000 C    0  0  0  0  0  0  0  0  0  0  0  0
    7.3396  -10.3375    0.0000 Cl   0  0  0  0  0  0  0  0  0  0  0  0
    5.2411   -9.3968    0.0000 C    0  0  0  0  0  0  0  0  0  0  0  0
    4.4555   -8.3217    0.0000 C    0  0  0  0  0  0  0  0  0  0  0  0
    3.5458   -2.6567    0.0000 C    0  0  0  0  0  0  0  0  0  0  0  0
    2.3983   -1.9951    0.0000 C    0  0  0  0  0  0  0  0  0  0  0  0
    2.3983   -0.6616    0.0000 C    0  0  0  0  0  0  0  0  0  0  0  0
    3.5458    0.0000    0.0000 C    0  0  0  0  0  0  0  0  0  0  0  0
    4.7036   -0.6616    0.0000 C    0  0  0  0  0  0  0  0  0  0  0  0
    4.7036   -1.9951    0.0000 C    0  0  0  0  0  0  0  0  0  0  0  0
  1  2  1  0  0  0  0
  2  3  2  0  0  0  0
  2  4  1  0  0  0  0
  4  5  1  0  0  0  0
  5  6  2  0  0  0  0
  5  9  1  0  0  0  0
  6  7  1  0  0  0  0
  7  8  1  0  0  0  0
  7 17  1  0  0  0  0
  8  9  2  0  0  0  0
  9 10  1  0  0  0  0
 10 11  2  0  0  0  0
 10 16  1  0  0  0  0
 11 12  1  0  0  0  0
 12 13  2  0  0  0  0
 13 14  1  0  0  0  0
 13 15  1  0  0  0  0
 15 16  2  0  0  0  0
 17 18  2  0  0  0  0
 17 22  1  0  0  0  0
 18 19  1  0  0  0  0
 19 20  2  0  0  0  0
 20 21  1  0  0  0  0
 21 22  2  0  0  0  0
M  END
> <ID>
11450

> <Formula>
C17H13ClN2O2

> <FW>
312.7503

> <DSSTox_CID>
26151

> <DSSTox_RID>
81382

> <DSSTox_GSID>
46151

> <DSSTox_FileID_Sort>
6063

> <TS_ChemName>
Lonazolac

> <TS_ChemName_Synonyms>


> <TS_CASRN>
53808-88-1

> <CASRN_ChemName_Relationship>
primary

> <TS_Description>
single chemical compound

> <ChemNote>


> <STRUCTURE_Shown>
tested chemical

> <STRUCTURE_Formula>
C17H13ClN2O2

> <STRUCTURE_MW>
312.7503

> <STRUCTURE_ChemType>
defined organic

> <STRUCTURE_DefinedOrganicForm>
parent

> <STRUCTURE_IUPAC>
[3-(4-chlorophenyl)-1-phenyl-1H-pyrazol-4-yl]acetic acid

> <STRUCTURE_SMILES>
O=C(O)Cc1cn(nc1c2ccc(Cl)cc2)c3ccccc3

> <STRUCTURE_SMILES_Desalt>
O=C(O)Cc1cn(nc1c2ccc(Cl)cc2)c3ccccc3

> <Substance_modify_yyyymmdd>
20110818

$$$$
