53882-12-5
ChemmineR-0915142007XD

 21 21  0  0  0  0  0  0  0  0  1 V2000
    8.0488   -3.3299    0.0000 O    0  0  0  0  0  0  0  0  0  0  0  0
    8.0488   -2.0053    0.0000 C    0  0  0  0  0  0  0  0  0  0  0  0
    9.1987   -1.3338    0.0000 O    0  0  0  0  0  0  0  0  0  0  0  0
    6.8990   -1.3338    0.0000 C    0  0  0  0  0  0  0  0  0  0  0  0
    6.8990    0.0000    0.0000 O    0  0  0  0  0  0  0  0  0  0  0  0
    5.7400   -2.0053    0.0000 N    0  0  0  0  0  0  0  0  0  0  0  0
    5.7400   -3.3299    0.0000 C    0  0  0  0  0  0  0  0  0  0  0  0
    6.8990   -3.9830    0.0000 C    0  0  0  0  0  0  0  0  0  0  0  0
    6.8990   -5.3168    0.0000 C    0  0  0  0  0  0  0  0  0  0  0  0
    5.7400   -5.9883    0.0000 C    0  0  0  0  0  0  0  0  0  0  0  0
    4.5901   -5.3168    0.0000 C    0  0  0  0  0  0  0  0  0  0  0  0
    4.5901   -3.9830    0.0000 C    0  0  0  0  0  0  0  0  0  0  0  0
    3.4403   -3.3299    0.0000 Cl   0  0  0  0  0  0  0  0  0  0  0  0
    3.4403   -5.9883    0.0000 N    0  0  0  0  0  0  0  0  0  0  0  0
    2.2905   -5.3168    0.0000 C    0  0  0  0  0  0  0  0  0  0  0  0
    2.2905   -3.9830    0.0000 O    0  0  0  0  0  0  0  0  0  0  0  0
    1.1498   -5.9883    0.0000 C    0  0  0  0  0  0  0  0  0  0  0  0
    0.0000   -5.3168    0.0000 O    0  0  0  0  0  0  0  0  0  0  0  0
    1.1498   -7.3129    0.0000 O    0  0  0  0  0  0  0  0  0  0  0  0
    8.0488   -5.9883    0.0000 C    0  0  0  0  0  0  0  0  0  0  0  0
    9.1987   -6.6414    0.0000 N    0  0  0  0  0  0  0  0  0  0  0  0
  1  2  1  0  0  0  0
  2  3  2  0  0  0  0
  2  4  1  0  0  0  0
  4  5  2  0  0  0  0
  4  6  1  0  0  0  0
  6  7  1  0  0  0  0
  7  8  2  0  0  0  0
  7 12  1  0  0  0  0
  8  9  1  0  0  0  0
  9 10  2  0  0  0  0
  9 20  1  0  0  0  0
 10 11  1  0  0  0  0
 11 12  2  0  0  0  0
 11 14  1  0  0  0  0
 12 13  1  0  0  0  0
 14 15  1  0  0  0  0
 15 16  2  0  0  0  0
 15 17  1  0  0  0  0
 17 18  1  0  0  0  0
 17 19  2  0  0  0  0
 20 21  3  0  0  0  0
M  END
> <ID>
16166

> <Formula>
C11H6ClN3O6

> <FW>
311.6348

> <DSSTox_CID>
31556

> <DSSTox_RID>
97441

> <DSSTox_GSID>
57767

> <DSSTox_FileID_Sort>
8508

> <TS_ChemName>
Lodoxamide

> <TS_ChemName_Synonyms>


> <TS_CASRN>
53882-12-5

> <CASRN_ChemName_Relationship>
primary

> <TS_Description>
single chemical compound

> <ChemNote>


> <STRUCTURE_Shown>
tested chemical

> <STRUCTURE_Formula>
C11H6ClN3O6

> <STRUCTURE_MW>
311.6348

> <STRUCTURE_ChemType>
defined organic

> <STRUCTURE_DefinedOrganicForm>
parent

> <STRUCTURE_IUPAC>
2,2'-[(2-chloro-5-cyano-1,3-phenylene)diimino]bis(oxoacetic acid)

> <STRUCTURE_SMILES>
Clc1c(cc(cc1NC(=O)C(=O)O)C#N)NC(=O)C(=O)O

> <STRUCTURE_SMILES_Desalt>
Clc1c(cc(cc1NC(=O)C(=O)O)C#N)NC(=O)C(=O)O

> <Substance_modify_yyyymmdd>
20131018

$$$$
