53894-23-8
ChemmineR-0915142007XD

 42 42  0  0  0  0  0  0  0  0  1 V2000
   13.8404  -11.3309    0.0000 C   0  0  0  0  0  0  0  0  0  0  0  0
   12.6744  -11.9900    0.0000 C   0  0  0  0  0  0  0  0  0  0  0  0
   11.5083  -11.3309    0.0000 C   0  0  0  0  0  0  0  0  0  0  0  0
   11.5083   -9.9874    0.0000 C   0  0  0  0  0  0  0  0  0  0  0  0
   12.6744   -9.3283    0.0000 C   0  0  0  0  0  0  0  0  0  0  0  0
   13.8404   -9.9874    0.0000 C   0  0  0  0  0  0  0  0  0  0  0  0
   14.9811  -11.9900    0.0000 C   0  0  0  0  0  0  0  0  0  0  0  0
   14.9811  -13.3081    0.0000 O   0  0  0  0  0  0  0  0  0  0  0  0
   16.1472  -11.3309    0.0000 O   0  0  0  0  0  0  0  0  0  0  0  0
   14.9811   -9.3283    0.0000 C   0  0  0  0  0  0  0  0  0  0  0  0
   16.1472   -9.9874    0.0000 O   0  0  0  0  0  0  0  0  0  0  0  0
   14.9811   -7.9849    0.0000 O   0  0  0  0  0  0  0  0  0  0  0  0
   10.3676   -9.3283    0.0000 C   0  0  0  0  0  0  0  0  0  0  0  0
   10.3676   -7.9849    0.0000 O   0  0  0  0  0  0  0  0  0  0  0  0
    9.2016   -9.9874    0.0000 O   0  0  0  0  0  0  0  0  0  0  0  0
   17.2625  -11.9900    0.0000 C   0  0  0  0  0  0  0  0  0  0  0  0
   18.4285  -11.3309    0.0000 C   0  0  0  0  0  0  0  0  0  0  0  0
   19.5692  -11.9900    0.0000 C   0  0  0  0  0  0  0  0  0  0  0  0
   20.7353  -11.3309    0.0000 C   0  0  0  0  0  0  0  0  0  0  0  0
   21.8760  -11.9900    0.0000 C   0  0  0  0  0  0  0  0  0  0  0  0
   23.0420  -11.3309    0.0000 C   0  0  0  0  0  0  0  0  0  0  0  0
   24.1827  -11.9900    0.0000 C   0  0  0  0  0  0  0  0  0  0  0  0
   25.3487  -11.3309    0.0000 C   0  0  0  0  0  0  0  0  0  0  0  0
   16.1472   -7.3258    0.0000 C   0  0  0  0  0  0  0  0  0  0  0  0
   16.1472   -6.0077    0.0000 C   0  0  0  0  0  0  0  0  0  0  0  0
   17.2625   -5.3232    0.0000 C   0  0  0  0  0  0  0  0  0  0  0  0
   17.2625   -4.0051    0.0000 C   0  0  0  0  0  0  0  0  0  0  0  0
   18.4285   -3.3460    0.0000 C   0  0  0  0  0  0  0  0  0  0  0  0
   18.4285   -2.0026    0.0000 C   0  0  0  0  0  0  0  0  0  0  0  0
   19.5692   -1.3435    0.0000 C   0  0  0  0  0  0  0  0  0  0  0  0
   19.5692    0.0000    0.0000 C   0  0  0  0  0  0  0  0  0  0  0  0
    8.0609   -9.3283    0.0000 C   0  0  0  0  0  0  0  0  0  0  0  0
    6.8949   -9.9874    0.0000 C   0  0  0  0  0  0  0  0  0  0  0  0
    5.7795   -9.3283    0.0000 C   0  0  0  0  0  0  0  0  0  0  0  0
    4.6135   -9.9874    0.0000 C   0  0  0  0  0  0  0  0  0  0  0  0
    3.4728   -9.3283    0.0000 C   0  0  0  0  0  0  0  0  0  0  0  0
    2.3067   -9.9874    0.0000 C   0  0  0  0  0  0  0  0  0  0  0  0
    1.1660   -9.3283    0.0000 C   0  0  0  0  0  0  0  0  0  0  0  0
    0.0000   -9.9874    0.0000 C   0  0  0  0  0  0  0  0  0  0  0  0
    1.1660   -7.9849    0.0000 C   0  0  0  0  0  0  0  0  0  0  0  0
   20.7353   -2.0026    0.0000 C   0  0  0  0  0  0  0  0  0  0  0  0
   24.1827  -13.3081    0.0000 C   0  0  0  0  0  0  0  0  0  0  0  0
  1  2  2  0  0  0  0
  1  6  1  0  0  0  0
  1  7  1  0  0  0  0
  2  3  1  0  0  0  0
  3  4  2  0  0  0  0
  4  5  1  0  0  0  0
  4 13  1  0  0  0  0
  5  6  2  0  0  0  0
  6 10  1  0  0  0  0
  7  8  2  0  0  0  0
  7  9  1  0  0  0  0
  9 16  1  0  0  0  0
 10 11  2  0  0  0  0
 10 12  1  0  0  0  0
 12 24  1  0  0  0  0
 13 14  2  0  0  0  0
 13 15  1  0  0  0  0
 15 32  1  0  0  0  0
 16 17  1  0  0  0  0
 17 18  1  0  0  0  0
 18 19  1  0  0  0  0
 19 20  1  0  0  0  0
 20 21  1  0  0  0  0
 21 22  1  0  0  0  0
 22 23  1  0  0  0  0
 22 42  1  0  0  0  0
 24 25  1  0  0  0  0
 25 26  1  0  0  0  0
 26 27  1  0  0  0  0
 27 28  1  0  0  0  0
 28 29  1  0  0  0  0
 29 30  1  0  0  0  0
 30 31  1  0  0  0  0
 30 41  1  0  0  0  0
 32 33  1  0  0  0  0
 33 34  1  0  0  0  0
 34 35  1  0  0  0  0
 35 36  1  0  0  0  0
 36 37  1  0  0  0  0
 37 38  1  0  0  0  0
 38 39  1  0  0  0  0
 38 40  1  0  0  0  0
M  END
> <ID>
5605

> <Formula>
C36H60O6

> <FW>
588.858

> <DSSTox_CID>
8033

> <DSSTox_RID>
78645

> <DSSTox_GSID>
28033

> <DSSTox_FileID_Sort>
3327

> <TS_ChemName>
Triisononyl trimellitate

> <TS_ChemName_Synonyms>
1,2,4-Benzenetricarboxylic acid, triisononyl ester

> <TS_CASRN>
53894-23-8

> <CASRN_ChemName_Relationship>
primary

> <TS_Description>
mixture or formulation

> <ChemNote>
mixture of isononyl isomers; structure shown 7-methyloctyl

> <STRUCTURE_Shown>
representative isomer in mixture

> <STRUCTURE_Formula>
C36H60O6

> <STRUCTURE_MW>
588.858

> <STRUCTURE_ChemType>
defined organic

> <STRUCTURE_DefinedOrganicForm>
parent

> <STRUCTURE_IUPAC>
tris(7-methyloctyl) benzene-1,2,4-tricarboxylate

> <STRUCTURE_SMILES>
CC(C)CCCCCCOC(=O)c1cc(C(=O)OCCCCCCC(C)C)c(cc1)C(=O)OCCCCCCC(C)C

> <STRUCTURE_SMILES_Desalt>
CC(C)CCCCCCOC(=O)c1cc(C(=O)OCCCCCCC(C)C)c(cc1)C(=O)OCCCCCCC(C)C

> <Substance_modify_yyyymmdd>
20080429

$$$$
