539-21-9
ChemmineR-0915142007XD

 16 16  0  0  0  0  0  0  0  0  1 V2000
    1.1575   -3.9701    0.0000 C   0  0  0  0  0  0  0  0  0  0  0  0
   10.4055   -1.3195    0.0000 C   0  0  0  0  0  0  0  0  0  0  0  0
    8.0906   -1.3195    0.0000 N   0  0  0  0  0  0  0  0  0  0  0  0
    3.4608   -3.9701    0.0000 N   0  0  0  0  0  0  0  0  0  0  0  0
    2.3033   -3.2987    0.0000 N   0  0  0  0  0  0  0  0  0  0  0  0
    9.2480   -1.9908    0.0000 N   0  0  0  0  0  0  0  0  0  0  0  0
    4.6530   -3.2987    0.0000 C   0  0  0  0  0  0  0  0  0  0  0  0
    6.9447   -1.9908    0.0000 C   0  0  0  0  0  0  0  0  0  0  0  0
    6.9447   -3.2987    0.0000 C   0  0  0  0  0  0  0  0  0  0  0  0
    5.7873   -3.9701    0.0000 C   0  0  0  0  0  0  0  0  0  0  0  0
    5.7873   -1.3311    0.0000 C   0  0  0  0  0  0  0  0  0  0  0  0
    4.6530   -1.9908    0.0000 C   0  0  0  0  0  0  0  0  0  0  0  0
    1.1575   -5.2896    0.0000 N   0  0  0  0  0  0  0  0  0  0  0  0
   11.5745   -1.9908    0.0000 S   0  0  0  0  0  0  0  0  0  0  0  0
    0.0000   -3.2987    0.0000 N   0  0  0  0  0  0  0  0  0  0  0  0
   10.4055    0.0000    0.0000 N   0  0  0  0  0  0  0  0  0  0  0  0
  1  5  1  0  0  0  0
  1 13  2  0  0  0  0
  1 15  1  0  0  0  0
  2  6  1  0  0  0  0
  2 14  2  0  0  0  0
  2 16  1  0  0  0  0
  3  8  2  0  0  0  0
  3  6  1  0  0  0  0
  4  5  1  0  0  0  0
  4  7  2  0  0  0  0
  7 10  1  0  0  0  0
  7 12  1  0  0  0  0
  8 11  1  0  0  0  0
  8  9  1  0  0  0  0
  9 10  2  0  0  0  0
 11 12  2  0  0  0  0
M  END
> <ID>
11654

> <Formula>
C8H11N7S

> <FW>
237.2848

> <DSSTox_CID>
26407

> <DSSTox_RID>
81587

> <DSSTox_GSID>
46407

> <DSSTox_FileID_Sort>
6268

> <TS_ChemName>
Ambazone

> <TS_ChemName_Synonyms>


> <TS_CASRN>
539-21-9

> <CASRN_ChemName_Relationship>
primary

> <TS_Description>
single chemical compound

> <ChemNote>


> <STRUCTURE_Shown>
tested chemical

> <STRUCTURE_Formula>
C8H11N7S

> <STRUCTURE_MW>
237.2848

> <STRUCTURE_ChemType>
defined organic

> <STRUCTURE_DefinedOrganicForm>
parent

> <STRUCTURE_IUPAC>
(2E)-2-[(4E)-4-(2-carbamimidoylhydrazinylidene)cyclohexa-2,5-dien-1-ylidene]hydrazinecarbothioamide

> <STRUCTURE_SMILES>
N=C(N)N\N=C1\C=C/C(=N\NC(N)=S)C=C1

> <STRUCTURE_SMILES_Desalt>
N=C(N)N\N=C1\C=C/C(=N\NC(N)=S)C=C1

> <Substance_modify_yyyymmdd>
20110813

$$$$
