539-88-8
ChemmineR-0915142007XD

 10  9  0  0  0  0  0  0  0  0  1 V2000
    0.0000   -1.9936    0.0000 C   0  0  0  0  0  0  0  0  0  0  0  0
    1.1542   -1.3318    0.0000 C   0  0  0  0  0  0  0  0  0  0  0  0
    2.3084   -1.9936    0.0000 C   0  0  0  0  0  0  0  0  0  0  0  0
    1.1542    0.0000    0.0000 O   0  0  0  0  0  0  0  0  0  0  0  0
    3.4626   -1.3318    0.0000 C   0  0  0  0  0  0  0  0  0  0  0  0
    4.6087   -1.9936    0.0000 C   0  0  0  0  0  0  0  0  0  0  0  0
    5.7629   -1.3318    0.0000 O   0  0  0  0  0  0  0  0  0  0  0  0
    4.6087   -3.3254    0.0000 O   0  0  0  0  0  0  0  0  0  0  0  0
    6.9171   -1.9936    0.0000 C   0  0  0  0  0  0  0  0  0  0  0  0
    8.0713   -1.3318    0.0000 C   0  0  0  0  0  0  0  0  0  0  0  0
  1  2  1  0  0  0  0
  2  3  1  0  0  0  0
  2  4  2  0  0  0  0
  3  5  1  0  0  0  0
  5  6  1  0  0  0  0
  6  7  1  0  0  0  0
  6  8  2  0  0  0  0
  7  9  1  0  0  0  0
  9 10  1  0  0  0  0
M  END
> <ID>
12212

> <Formula>
C7H12O3

> <FW>
144.1684

> <DSSTox_CID>
27058

> <DSSTox_RID>
82075

> <DSSTox_GSID>
47058

> <DSSTox_FileID_Sort>
6756

> <TS_ChemName>
Ethyl levulinate

> <TS_ChemName_Synonyms>


> <TS_CASRN>
539-88-8

> <CASRN_ChemName_Relationship>
primary

> <TS_Description>
single chemical compound

> <ChemNote>


> <STRUCTURE_Shown>
tested chemical

> <STRUCTURE_Formula>
C7H12O3

> <STRUCTURE_MW>
144.1684

> <STRUCTURE_ChemType>
defined organic

> <STRUCTURE_DefinedOrganicForm>
parent

> <STRUCTURE_IUPAC>
ethyl 4-oxopentanoate

> <STRUCTURE_SMILES>
O=C(C)CCC(=O)OCC

> <STRUCTURE_SMILES_Desalt>
O=C(C)CCC(=O)OCC

> <Substance_modify_yyyymmdd>
20100429

$$$$
