5392-28-9
ChemmineR-0915142007XD

 15 14  0  0  0  0  0  0  0  0  1 V2000
    1.1508   -2.0048    0.0000 N   0  0  0  0  0  0  0  0  0  0  0  0
    3.4523   -2.0048    0.0000 N   0  0  0  0  0  0  0  0  0  0  0  0
    2.3015   -1.3486    0.0000 C   0  0  0  0  0  0  0  0  0  0  0  0
    2.3015   -4.0007    0.0000 C   0  0  0  0  0  0  0  0  0  0  0  0
    1.1508   -3.3354    0.0000 C   0  0  0  0  0  0  0  0  0  0  0  0
    3.4523   -3.3354    0.0000 C   0  0  0  0  0  0  0  0  0  0  0  0
    2.3015    0.0000    0.0000 N   0  0  0  0  0  0  0  0  0  0  0  0
    4.6031   -4.0007    0.0000 N   0  0  0  0  0  0  0  0  0  0  0  0
    2.3015   -5.3313    0.0000 N   0  0  0  0  0  0  0  0  0  0  0  0
    0.0000   -4.0007    0.0000 N   0  0  0  0  0  0  0  0  0  0  0  0
    7.6598   -3.0118    0.0000 S   0  0  0  0  0  0  0  0  0  0  0  0
    8.9903   -3.0118    0.0000 O   0  0  0  0  0  0  0  0  0  0  0  0
    7.6598   -4.3423    0.0000 O   0  0  0  0  0  0  0  0  0  0  0  0
    7.6598   -1.6812    0.0000 O   0  0  0  0  0  0  0  0  0  0  0  0
    6.3382   -3.0118    0.0000 O   0  0  0  0  0  0  0  0  0  0  0  0
  1  3  2  0  0  0  0
  1  5  1  0  0  0  0
  2  3  1  0  0  0  0
  2  6  2  0  0  0  0
  3  7  1  0  0  0  0
  4  5  2  0  0  0  0
  4  6  1  0  0  0  0
  4  9  1  0  0  0  0
  5 10  1  0  0  0  0
  6  8  1  0  0  0  0
 11 12  2  0  0  0  0
 11 13  2  0  0  0  0
 11 14  1  0  0  0  0
 11 15  1  0  0  0  0
M  END
> <ID>
7237

> <Formula>
C4H10N6O4S

> <FW>
238.2250 (140.1465+98.0785)

> <DSSTox_CID>
17023

> <DSSTox_RID>
79296

> <DSSTox_GSID>
37023

> <DSSTox_FileID_Sort>
3978

> <TS_ChemName>
tetra-Aminopyrimidine sulfate

> <TS_ChemName_Synonyms>


> <TS_CASRN>
5392-28-9

> <CASRN_ChemName_Relationship>
primary

> <TS_Description>
single chemical compound

> <ChemNote>
parent [1004-74-6]

> <STRUCTURE_Shown>
tested chemical

> <STRUCTURE_Formula>
C4H10N6O4S

> <STRUCTURE_MW>
238.225

> <STRUCTURE_ChemType>
defined organic

> <STRUCTURE_DefinedOrganicForm>
complex

> <STRUCTURE_IUPAC>
pyrimidine-2,4,5,6-tetramine sulfate (1:1)

> <STRUCTURE_SMILES>
Nc1c(N)nc(N)nc1N.O=S(=O)(O)O

> <STRUCTURE_SMILES_Desalt>
Nc1c(N)nc(N)nc1N

> <Substance_modify_yyyymmdd>
20080429

$$$$
