5394-36-5
ChemmineR-0915142007XD

 10 10  0  0  0  0  0  0  0  0  1 V2000
    3.1552   -2.0533    0.0000 N   0  0  0  0  0  0  0  0  0  0  0  0
    2.5387    0.0000    0.0000 N   0  0  0  0  0  0  0  0  0  0  0  0
    3.6260   -0.8058    0.0000 C   0  0  0  0  0  0  0  0  0  0  0  0
    1.7815   -2.0533    0.0000 C   0  0  0  0  0  0  0  0  0  0  0  0
    1.4417   -0.7572    0.0000 C   0  0  0  0  0  0  0  0  0  0  0  0
    4.8541   -0.4029    0.0000 O   0  0  0  0  0  0  0  0  0  0  0  0
    0.2573   -0.2233    0.0000 O   0  0  0  0  0  0  0  0  0  0  0  0
    0.4854   -2.3591    0.0000 C   0  0  0  0  0  0  0  0  0  0  0  0
    0.0000   -3.5580    0.0000 C   0  0  0  0  0  0  0  0  0  0  0  0
    2.0387   -3.3784    0.0000 C   0  0  0  0  0  0  0  0  0  0  0  0
  1  3  1  0  0  0  0
  1  4  1  0  0  0  0
  2  3  1  0  0  0  0
  2  5  1  0  0  0  0
  3  6  2  0  0  0  0
  4  5  1  0  0  0  0
  4  8  1  0  0  0  0
  4 10  1  0  0  0  0
  5  7  2  0  0  0  0
  8  9  1  0  0  0  0
M  END
> <ID>
8334

> <Formula>
C6H10N2O2

> <FW>
142.1558

> <DSSTox_CID>
21368

> <DSSTox_RID>
79703

> <DSSTox_GSID>
41368

> <DSSTox_FileID_Sort>
4385

> <TS_ChemName>
5-Ethyl-5-methylhydantoin

> <TS_ChemName_Synonyms>
2,4-Imidazolidinedione, 5-ethyl-5-methyl-

> <TS_CASRN>
5394-36-5

> <CASRN_ChemName_Relationship>
primary

> <TS_Description>
single chemical compound

> <ChemNote>


> <STRUCTURE_Shown>
tested chemical

> <STRUCTURE_Formula>
C6H10N2O2

> <STRUCTURE_MW>
142.1558

> <STRUCTURE_ChemType>
defined organic

> <STRUCTURE_DefinedOrganicForm>
parent

> <STRUCTURE_IUPAC>
5-ethyl-5-methylimidazolidine-2,4-dione

> <STRUCTURE_SMILES>
O=C1NC(=O)NC1(C)CC

> <STRUCTURE_SMILES_Desalt>
O=C1NC(=O)NC1(C)CC

> <Substance_modify_yyyymmdd>
20080825

$$$$
