5397-31-9
ChemmineR-0915142007XD

 13 12  0  0  0  0  0  0  0  0  1 V2000
    1.9897   -4.5998    0.0000 O   0  0  0  0  0  0  0  0  0  0  0  0
    2.6584   -5.7517    0.0000 C   0  0  0  0  0  0  0  0  0  0  0  0
    1.9897   -6.9037    0.0000 C   0  0  0  0  0  0  0  0  0  0  0  0
    2.6584   -8.0557    0.0000 C   0  0  0  0  0  0  0  0  0  0  0  0
    3.9876   -8.0557    0.0000 C   0  0  0  0  0  0  0  0  0  0  0  0
    4.6481   -6.9037    0.0000 C   0  0  0  0  0  0  0  0  0  0  0  0
    5.9773   -6.9037    0.0000 C   0  0  0  0  0  0  0  0  0  0  0  0
    0.6606   -6.9037    0.0000 C   0  0  0  0  0  0  0  0  0  0  0  0
    0.0000   -8.0557    0.0000 C   0  0  0  0  0  0  0  0  0  0  0  0
    2.6584   -3.4559    0.0000 C   0  0  0  0  0  0  0  0  0  0  0  0
    1.9897   -2.3039    0.0000 C   0  0  0  0  0  0  0  0  0  0  0  0
    2.6584   -1.1520    0.0000 C   0  0  0  0  0  0  0  0  0  0  0  0
    1.9897    0.0000    0.0000 N   0  0  0  0  0  0  0  0  0  0  0  0
  1  2  1  0  0  0  0
  1 10  1  0  0  0  0
  2  3  1  0  0  0  0
  3  4  1  0  0  0  0
  3  8  1  0  0  0  0
  4  5  1  0  0  0  0
  5  6  1  0  0  0  0
  6  7  1  0  0  0  0
  8  9  1  0  0  0  0
 10 11  1  0  0  0  0
 11 12  1  0  0  0  0
 12 13  1  0  0  0  0
M  END
> <ID>
4132

> <Formula>
C11H25NO

> <FW>
187.3223

> <DSSTox_CID>
5304

> <DSSTox_RID>
77739

> <DSSTox_GSID>
25304

> <DSSTox_FileID_Sort>
2422

> <TS_ChemName>
3-((2-Ethylhexyl)oxy)propylamine

> <TS_ChemName_Synonyms>


> <TS_CASRN>
5397-31-9

> <CASRN_ChemName_Relationship>
primary

> <TS_Description>
single chemical compound

> <ChemNote>


> <STRUCTURE_Shown>
tested chemical

> <STRUCTURE_Formula>
C11H25NO

> <STRUCTURE_MW>
187.3223

> <STRUCTURE_ChemType>
defined organic

> <STRUCTURE_DefinedOrganicForm>
parent

> <STRUCTURE_IUPAC>
3-[(2-ethylhexyl)oxy]propan-1-amine

> <STRUCTURE_SMILES>
CCCCC(COCCCN)CC

> <STRUCTURE_SMILES_Desalt>
CCCCC(COCCCN)CC

> <Substance_modify_yyyymmdd>
20080429

$$$$
