53994-73-3
ChemmineR-0915142007XD

 26 28  0  0  1  0  0  0  0  0  1 V2000
    7.0972   -2.6629    0.0000 C    0  0  0  0  0  0  0  0  0  0  0  0
    8.4168   -3.9706    0.0000 N    0  0  0  0  0  0  0  0  0  0  0  0
    8.4168   -2.6629    0.0000 C    0  0  0  0  0  0  0  0  0  0  0  0
    7.0972   -3.9706    0.0000 C    0  0  0  0  0  0  0  0  0  0  0  0
    9.5818   -4.6483    0.0000 C    0  0  0  0  0  0  0  0  0  0  0  0
   10.7231   -3.9706    0.0000 C    0  0  0  0  0  0  0  0  0  0  0  0
    9.5818   -1.9853    0.0000 S    0  0  0  0  0  0  0  0  0  0  0  0
   10.7231   -2.6392    0.0000 C    0  0  0  0  0  0  0  0  0  0  0  0
    7.0972   -1.3315    0.0000 H    0  0  0  0  0  0  0  0  0  0  0  0
    8.4168   -1.3315    0.0000 H    0  0  0  0  0  0  0  0  0  0  0  0
    6.1581   -4.9217    0.0000 O    0  0  0  0  0  0  0  0  0  0  0  0
   11.8881   -4.6483    0.0000 Cl   0  0  0  0  0  0  0  0  0  0  0  0
    9.5818   -5.9797    0.0000 C    0  0  0  0  0  0  0  0  0  0  0  0
   10.7231   -6.6336    0.0000 O    0  0  0  0  0  0  0  0  0  0  0  0
    8.4287   -6.6336    0.0000 O    0  0  0  0  0  0  0  0  0  0  0  0
    5.7657   -2.6629    0.0000 N    0  0  0  0  0  0  0  0  0  0  0  0
    2.3063   -0.6538    0.0000 C    0  0  0  0  0  0  0  0  0  0  0  0
    2.3063   -1.9853    0.0000 C    0  0  0  0  0  0  0  0  0  0  0  0
    1.1531    0.0000    0.0000 C    0  0  0  0  0  0  0  0  0  0  0  0
    1.1531   -2.6629    0.0000 C    0  0  0  0  0  0  0  0  0  0  0  0
    0.0000   -0.6538    0.0000 C    0  0  0  0  0  0  0  0  0  0  0  0
    0.0000   -1.9853    0.0000 C    0  0  0  0  0  0  0  0  0  0  0  0
    4.6245   -0.6538    0.0000 O    0  0  0  0  0  0  0  0  0  0  0  0
    4.6245   -1.9853    0.0000 C    0  0  0  0  0  0  0  0  0  0  0  0
    3.4594   -2.6629    0.0000 C    0  0  0  0  0  0  0  0  0  0  0  0
    3.4594   -3.9944    0.0000 N    0  0  0  0  0  0  0  0  0  0  0  0
  1  3  1  0  0  0  0
  1  4  1  0  0  0  0
  1  9  1  6  0  0  0
  1 16  1  1  0  0  0
  2  4  1  0  0  0  0
  2  5  1  0  0  0  0
  2  3  1  0  0  0  0
  3  7  1  0  0  0  0
  3 10  1  6  0  0  0
  4 11  2  0  0  0  0
  5  6  2  0  0  0  0
  5 13  1  0  0  0  0
  6  8  1  0  0  0  0
  6 12  1  0  0  0  0
  7  8  1  0  0  0  0
 13 14  2  0  0  0  0
 13 15  1  0  0  0  0
 16 24  1  0  0  0  0
 17 19  2  0  0  0  0
 17 18  1  0  0  0  0
 18 20  2  0  0  0  0
 18 25  1  0  0  0  0
 19 21  1  0  0  0  0
 20 22  1  0  0  0  0
 21 22  2  0  0  0  0
 23 24  2  0  0  0  0
 24 25  1  0  0  0  0
 25 26  1  6  0  0  0
M  END
> <ID>
2487

> <Formula>
C15H14ClN3O4S

> <FW>
367.8074

> <DSSTox_CID>
2748

> <DSSTox_RID>
76713

> <DSSTox_GSID>
22748

> <DSSTox_FileID_Sort>
1397

> <TS_ChemName>
Cefaclor

> <TS_ChemName_Synonyms>


> <TS_CASRN>
53994-73-3

> <CASRN_ChemName_Relationship>
primary

> <TS_Description>
single chemical compound

> <ChemNote>
stereochem

> <STRUCTURE_Shown>
tested chemical

> <STRUCTURE_Formula>
C15H14ClN3O4S

> <STRUCTURE_MW>
367.8074

> <STRUCTURE_ChemType>
defined organic

> <STRUCTURE_DefinedOrganicForm>
parent

> <STRUCTURE_IUPAC>
(6R,7R)-7-{[(2R)-2-amino-2-phenylacetyl]amino}-3-chloro-8-oxo-5-thia-1-azabicyclo[4.2.0]oct-2-ene-2-carboxylic acid

> <STRUCTURE_SMILES>
ClC=3CS[C@H]2N(C(=O)[C@H]2NC(=O)[C@H](N)c1ccccc1)C=3C(=O)O

> <STRUCTURE_SMILES_Desalt>
ClC=3CS[C@H]2N(C(=O)[C@H]2NC(=O)[C@H](N)c1ccccc1)C=3C(=O)O

> <Substance_modify_yyyymmdd>
20080429

$$$$
