54-11-5
ChemmineR-0915142007XD

 12 13  0  0  1  0  0  0  0  0  1 V2000
    4.5959   -1.7760    0.0000 N   0  0  0  0  0  0  0  0  0  0  0  0
    3.5065   -2.5363    0.0000 C   0  0  0  0  0  0  0  0  0  0  0  0
    2.2923   -1.9916    0.0000 C   0  0  0  0  0  0  0  0  0  0  0  0
    1.1518    0.0000    0.0000 N   0  0  0  0  0  0  0  0  0  0  0  0
    2.2923   -0.6752    0.0000 C   0  0  0  0  0  0  0  0  0  0  0  0
    5.6740   -2.5249    0.0000 C   0  0  0  0  0  0  0  0  0  0  0  0
    4.5959   -0.4199    0.0000 C   0  0  0  0  0  0  0  0  0  0  0  0
    3.9377   -3.8016    0.0000 C   0  0  0  0  0  0  0  0  0  0  0  0
    5.2825   -3.8016    0.0000 C   0  0  0  0  0  0  0  0  0  0  0  0
    1.1518   -2.6498    0.0000 C   0  0  0  0  0  0  0  0  0  0  0  0
    0.0000   -0.6582    0.0000 C   0  0  0  0  0  0  0  0  0  0  0  0
    0.0000   -1.9916    0.0000 C   0  0  0  0  0  0  0  0  0  0  0  0
  1  2  1  0  0  0  0
  1  6  1  0  0  0  0
  1  7  1  0  0  0  0
  2  3  1  1  0  0  0
  2  8  1  0  0  0  0
  3  5  2  0  0  0  0
  3 10  1  0  0  0  0
  4  5  1  0  0  0  0
  4 11  2  0  0  0  0
  6  9  1  0  0  0  0
  8  9  1  0  0  0  0
 10 12  2  0  0  0  0
 11 12  1  0  0  0  0
M  END
> <ID>
895

> <Formula>
C10H14N2

> <FW>
162.2316

> <DSSTox_CID>
930

> <DSSTox_RID>
75874

> <DSSTox_GSID>
20930

> <DSSTox_FileID_Sort>
558

> <TS_ChemName>
Nicotine

> <TS_ChemName_Synonyms>
Nicotine (Nicotine alkaloid)

> <TS_CASRN>
54-11-5

> <CASRN_ChemName_Relationship>
primary

> <TS_Description>
single chemical compound

> <ChemNote>
stereochem

> <STRUCTURE_Shown>
tested chemical

> <STRUCTURE_Formula>
C10H14N2

> <STRUCTURE_MW>
162.2316

> <STRUCTURE_ChemType>
defined organic

> <STRUCTURE_DefinedOrganicForm>
parent

> <STRUCTURE_IUPAC>
3-[(2S)-1-methylpyrrolidin-2-yl]pyridine

> <STRUCTURE_SMILES>
CN2CCC[C@H]2c1cnccc1

> <STRUCTURE_SMILES_Desalt>
CN2CCC[C@H]2c1cnccc1

> <Substance_modify_yyyymmdd>
20080429

$$$$
