54-28-4
ChemmineR-0915142007XD

 30 31  0  0  1  0  0  0  0  0  1 V2000
    6.8842   -1.3231    0.0000 C   0  0  0  0  0  0  0  0  0  0  0  0
    5.7472   -2.0053    0.0000 C   0  0  0  0  0  0  0  0  0  0  0  0
    5.7472   -3.3284    0.0000 C   0  0  0  0  0  0  0  0  0  0  0  0
    4.5895   -3.9899    0.0000 C   0  0  0  0  0  0  0  0  0  0  0  0
    3.4524   -3.3284    0.0000 C   0  0  0  0  0  0  0  0  0  0  0  0
    3.4524   -2.0053    0.0000 C   0  0  0  0  0  0  0  0  0  0  0  0
    4.5895   -1.3231    0.0000 O   0  0  0  0  0  0  0  0  0  0  0  0
    2.3154   -1.3231    0.0000 C   0  0  0  0  0  0  0  0  0  0  0  0
    1.1577   -2.0053    0.0000 C   0  0  0  0  0  0  0  0  0  0  0  0
    1.1577   -3.3284    0.0000 C   0  0  0  0  0  0  0  0  0  0  0  0
    2.3154   -3.9899    0.0000 C   0  0  0  0  0  0  0  0  0  0  0  0
    0.0000   -3.9899    0.0000 O   0  0  0  0  0  0  0  0  0  0  0  0
    0.0000   -1.3231    0.0000 C   0  0  0  0  0  0  0  0  0  0  0  0
    2.3154    0.0000    0.0000 C   0  0  0  0  0  0  0  0  0  0  0  0
    5.7472   -0.6822    0.0000 C   0  0  0  0  0  0  0  0  0  0  0  0
    8.0212   -2.0053    0.0000 C   0  0  0  0  0  0  0  0  0  0  0  0
    9.1582   -1.3231    0.0000 C   0  0  0  0  0  0  0  0  0  0  0  0
   10.3159   -2.0053    0.0000 C   0  0  0  0  0  0  0  0  0  0  0  0
   10.3159   -3.3284    0.0000 C   0  0  0  0  0  0  0  0  0  0  0  0
   11.4736   -1.3438    0.0000 C   0  0  0  0  0  0  0  0  0  0  0  0
   12.6107   -2.0053    0.0000 C   0  0  0  0  0  0  0  0  0  0  0  0
   13.7684   -1.3231    0.0000 C   0  0  0  0  0  0  0  0  0  0  0  0
   14.9261   -2.0053    0.0000 C   0  0  0  0  0  0  0  0  0  0  0  0
   14.9261   -3.3284    0.0000 C   0  0  0  0  0  0  0  0  0  0  0  0
   16.0838   -1.3231    0.0000 C   0  0  0  0  0  0  0  0  0  0  0  0
   17.2208   -2.0053    0.0000 C   0  0  0  0  0  0  0  0  0  0  0  0
   18.3785   -1.3231    0.0000 C   0  0  0  0  0  0  0  0  0  0  0  0
   19.5155   -2.0053    0.0000 C   0  0  0  0  0  0  0  0  0  0  0  0
   19.5155   -3.3284    0.0000 C   0  0  0  0  0  0  0  0  0  0  0  0
   20.6732   -1.3438    0.0000 C   0  0  0  0  0  0  0  0  0  0  0  0
  1  2  1  0  0  0  0
  1 16  1  0  0  0  0
  2  3  1  0  0  0  0
  2  7  1  0  0  0  0
  2 15  1  1  0  0  0
  3  4  1  0  0  0  0
  4  5  1  0  0  0  0
  5  6  1  0  0  0  0
  5 11  2  0  0  0  0
  6  7  1  0  0  0  0
  6  8  2  0  0  0  0
  8  9  1  0  0  0  0
  8 14  1  0  0  0  0
  9 10  2  0  0  0  0
  9 13  1  0  0  0  0
 10 11  1  0  0  0  0
 10 12  1  0  0  0  0
 16 17  1  0  0  0  0
 17 18  1  0  0  0  0
 18 19  1  1  0  0  0
 18 20  1  0  0  0  0
 20 21  1  0  0  0  0
 21 22  1  0  0  0  0
 22 23  1  0  0  0  0
 23 24  1  1  0  0  0
 23 25  1  0  0  0  0
 25 26  1  0  0  0  0
 26 27  1  0  0  0  0
 27 28  1  0  0  0  0
 28 29  1  0  0  0  0
 28 30  1  0  0  0  0
M  END
> <ID>
14015

> <Formula>
C28H48O2

> <FW>
416.6795

> <DSSTox_CID>
28957

> <DSSTox_RID>
83222

> <DSSTox_GSID>
49031

> <DSSTox_FileID_Sort>
7898

> <TS_ChemName>
2H-1-Benzopyran-6-ol, 3,4-dihydro-2,7,8-trimethyl-2-[(4R,8R)-4,8,12-trimethyltridecyl]-, (2R)-

> <TS_ChemName_Synonyms>
(+)-?-Tocopherol

> <TS_CASRN>
54-28-4

> <CASRN_ChemName_Relationship>
primary

> <TS_Description>
single chemical compound

> <ChemNote>
stereochem

> <STRUCTURE_Shown>
tested chemical

> <STRUCTURE_Formula>
C28H48O2

> <STRUCTURE_MW>
416.6795

> <STRUCTURE_ChemType>
defined organic

> <STRUCTURE_DefinedOrganicForm>
parent

> <STRUCTURE_IUPAC>
(2R)-2,7,8-trimethyl-2-[(4R,8R)-4,8,12-trimethyltridecyl]-3,4-dihydro-2H-chromen-6-ol

> <STRUCTURE_SMILES>
CC(C)CCC[C@@H](C)CCC[C@@H](C)CCC[C@]1(C)CCc2cc(O)c(C)c(C)c2O1

> <STRUCTURE_SMILES_Desalt>
CC(C)CCC[C@@H](C)CCC[C@@H](C)CCC[C@]1(C)CCc2cc(O)c(C)c(C)c2O1

> <Substance_modify_yyyymmdd>
20111204

$$$$
