54-31-9
ChemmineR-0915142007XD

 21 22  0  0  0  0  0  0  0  0  1 V2000
    3.4551   -6.0438    0.0000 C    0  0  0  0  0  0  0  0  0  0  0  0
    2.2999   -5.3699    0.0000 C    0  0  0  0  0  0  0  0  0  0  0  0
    1.1553   -6.0438    0.0000 C    0  0  0  0  0  0  0  0  0  0  0  0
    1.1553   -7.3703    0.0000 C    0  0  0  0  0  0  0  0  0  0  0  0
    2.2999   -8.0335    0.0000 C    0  0  0  0  0  0  0  0  0  0  0  0
    3.4551   -7.3703    0.0000 C    0  0  0  0  0  0  0  0  0  0  0  0
    2.2999   -9.3706    0.0000 S    0  0  0  0  0  0  0  0  0  0  0  0
    2.2999  -10.6971    0.0000 N    0  0  0  0  0  0  0  0  0  0  0  0
    0.9734   -9.3706    0.0000 O    0  0  0  0  0  0  0  0  0  0  0  0
    3.6370   -9.3706    0.0000 O    0  0  0  0  0  0  0  0  0  0  0  0
    0.0000   -8.0335    0.0000 Cl   0  0  0  0  0  0  0  0  0  0  0  0
    2.2999   -4.0435    0.0000 N    0  0  0  0  0  0  0  0  0  0  0  0
    1.1553   -3.3803    0.0000 C    0  0  0  0  0  0  0  0  0  0  0  0
    1.1553   -2.0431    0.0000 C    0  0  0  0  0  0  0  0  0  0  0  0
    2.2250   -1.2623    0.0000 C    0  0  0  0  0  0  0  0  0  0  0  0
    1.8185    0.0000    0.0000 C    0  0  0  0  0  0  0  0  0  0  0  0
    0.4921    0.0000    0.0000 C    0  0  0  0  0  0  0  0  0  0  0  0
    0.0749   -1.2623    0.0000 O    0  0  0  0  0  0  0  0  0  0  0  0
    4.6104   -5.3699    0.0000 C    0  0  0  0  0  0  0  0  0  0  0  0
    5.7657   -6.0438    0.0000 O    0  0  0  0  0  0  0  0  0  0  0  0
    4.6104   -4.0435    0.0000 O    0  0  0  0  0  0  0  0  0  0  0  0
  1  2  1  0  0  0  0
  1  6  2  0  0  0  0
  1 19  1  0  0  0  0
  2  3  2  0  0  0  0
  2 12  1  0  0  0  0
  3  4  1  0  0  0  0
  4  5  2  0  0  0  0
  4 11  1  0  0  0  0
  5  6  1  0  0  0  0
  5  7  1  0  0  0  0
  7  8  1  0  0  0  0
  7  9  2  0  0  0  0
  7 10  2  0  0  0  0
 12 13  1  0  0  0  0
 13 14  1  0  0  0  0
 14 15  2  0  0  0  0
 14 18  1  0  0  0  0
 15 16  1  0  0  0  0
 16 17  2  0  0  0  0
 17 18  1  0  0  0  0
 19 20  1  0  0  0  0
 19 21  2  0  0  0  0
M  END
> <ID>
623

> <Formula>
C12H11ClN2O5S

> <FW>
330.7441

> <DSSTox_CID>
648

> <DSSTox_RID>
75710

> <DSSTox_GSID>
20648

> <DSSTox_FileID_Sort>
394

> <TS_ChemName>
Furosemide

> <TS_ChemName_Synonyms>


> <TS_CASRN>
54-31-9

> <CASRN_ChemName_Relationship>
primary

> <TS_Description>
single chemical compound

> <ChemNote>


> <STRUCTURE_Shown>
tested chemical

> <STRUCTURE_Formula>
C12H11ClN2O5S

> <STRUCTURE_MW>
330.7441

> <STRUCTURE_ChemType>
defined organic

> <STRUCTURE_DefinedOrganicForm>
parent

> <STRUCTURE_IUPAC>
4-chloro-2-[(furan-2-ylmethyl)amino]-5-sulfamoylbenzoic acid

> <STRUCTURE_SMILES>
NS(=O)(=O)c2cc(c(NCc1ccco1)cc2Cl)C(=O)O

> <STRUCTURE_SMILES_Desalt>
NS(=O)(=O)c2cc(c(NCc1ccco1)cc2Cl)C(=O)O

> <Substance_modify_yyyymmdd>
20080429

$$$$
