54-30-8
ChemmineR-0915142007XD

 23 23  0  0  0  0  0  0  0  0  1 V2000
    5.7299   -1.3361    0.0000 C   0  0  0  0  0  0  0  0  0  0  0  0
    6.8731   -2.0110    0.0000 C   0  0  0  0  0  0  0  0  0  0  0  0
    5.7299    0.0000    0.0000 O   0  0  0  0  0  0  0  0  0  0  0  0
    6.8731   -3.3470    0.0000 C   0  0  0  0  0  0  0  0  0  0  0  0
    8.0163   -1.3361    0.0000 N   0  0  0  0  0  0  0  0  0  0  0  0
    4.5729   -2.0110    0.0000 O   0  0  0  0  0  0  0  0  0  0  0  0
   11.4598   -2.0385    0.0000 N   0  0  0  0  0  0  0  0  0  0  0  0
    9.1733   -2.0385    0.0000 C   0  0  0  0  0  0  0  0  0  0  0  0
    3.4297   -1.3361    0.0000 C   0  0  0  0  0  0  0  0  0  0  0  0
   10.3028   -1.3774    0.0000 C   0  0  0  0  0  0  0  0  0  0  0  0
    5.7299   -3.9944    0.0000 C   0  0  0  0  0  0  0  0  0  0  0  0
    8.0163   -3.9944    0.0000 C   0  0  0  0  0  0  0  0  0  0  0  0
   11.4598   -3.3746    0.0000 C   0  0  0  0  0  0  0  0  0  0  0  0
   12.5892   -1.3774    0.0000 C   0  0  0  0  0  0  0  0  0  0  0  0
    2.2864   -2.0110    0.0000 C   0  0  0  0  0  0  0  0  0  0  0  0
    1.1295   -1.3361    0.0000 C   0  0  0  0  0  0  0  0  0  0  0  0
   10.3028   -4.0219    0.0000 C   0  0  0  0  0  0  0  0  0  0  0  0
   13.7738   -2.0385    0.0000 C   0  0  0  0  0  0  0  0  0  0  0  0
    0.0000   -2.0110    0.0000 C   0  0  0  0  0  0  0  0  0  0  0  0
    1.1295    0.0000    0.0000 C   0  0  0  0  0  0  0  0  0  0  0  0
    5.7299   -5.3305    0.0000 C   0  0  0  0  0  0  0  0  0  0  0  0
    8.0163   -5.3305    0.0000 C   0  0  0  0  0  0  0  0  0  0  0  0
    6.8731   -6.0054    0.0000 C   0  0  0  0  0  0  0  0  0  0  0  0
  1  2  1  0  0  0  0
  1  3  2  0  0  0  0
  1  6  1  0  0  0  0
  2  4  1  0  0  0  0
  2  5  1  0  0  0  0
  4 11  2  0  0  0  0
  4 12  1  0  0  0  0
  5  8  1  0  0  0  0
  6  9  1  0  0  0  0
  7 10  1  0  0  0  0
  7 13  1  0  0  0  0
  7 14  1  0  0  0  0
  8 10  1  0  0  0  0
  9 15  1  0  0  0  0
 11 21  1  0  0  0  0
 12 22  2  0  0  0  0
 13 17  1  0  0  0  0
 14 18  1  0  0  0  0
 15 16  1  0  0  0  0
 16 19  1  0  0  0  0
 16 20  1  0  0  0  0
 21 23  2  0  0  0  0
 22 23  1  0  0  0  0
M  END
> <ID>
11660

> <Formula>
C19H32N2O2

> <FW>
320.4696

> <DSSTox_CID>
26415

> <DSSTox_RID>
81594

> <DSSTox_GSID>
46415

> <DSSTox_FileID_Sort>
6275

> <TS_ChemName>
Camylofin

> <TS_ChemName_Synonyms>


> <TS_CASRN>
54-30-8

> <CASRN_ChemName_Relationship>
primary

> <TS_Description>
single chemical compound

> <ChemNote>


> <STRUCTURE_Shown>
tested chemical

> <STRUCTURE_Formula>
C19H32N2O2

> <STRUCTURE_MW>
320.4696

> <STRUCTURE_ChemType>
defined organic

> <STRUCTURE_DefinedOrganicForm>
parent

> <STRUCTURE_IUPAC>
3-methylbutyl {[2-(diethylamino)ethyl]amino}(phenyl)acetate

> <STRUCTURE_SMILES>
CC(C)CCOC(=O)C(NCCN(CC)CC)c1ccccc1

> <STRUCTURE_SMILES_Desalt>
CC(C)CCOC(=O)C(NCCN(CC)CC)c1ccccc1

> <Substance_modify_yyyymmdd>
20110813

$$$$
