54-64-8
ChemmineR-0915142007XD

 14 13  0  0  0  0  0  0  0  0  2 V2000
    4.6032   -2.7854    0.0000 Hg   0  0  0  0  0  0  0  0  0  0  0  0
    2.3085   -2.7854    0.0000 C    0  0  0  0  0  0  0  0  0  0  0  0
    2.3085   -4.1124    0.0000 C    0  0  0  0  0  0  0  0  0  0  0  0
    1.1542   -2.1288    0.0000 C    0  0  0  0  0  0  0  0  0  0  0  0
    1.1542   -4.7898    0.0000 C    0  0  0  0  0  0  0  0  0  0  0  0
    0.0000   -2.7854    0.0000 C    0  0  0  0  0  0  0  0  0  0  0  0
    0.0000   -4.1124    0.0000 C    0  0  0  0  0  0  0  0  0  0  0  0
    1.1542   -0.8018    0.0000 C    0  0  0  0  0  0  0  0  0  0  0  0
    3.4627   -2.1288    0.0000 S    0  0  0  0  0  0  0  0  0  0  0  0
    5.7574   -2.1288    0.0000 C    0  0  0  0  0  0  0  0  0  0  0  0
    6.9117   -2.7854    0.0000 C    0  0  0  0  0  0  0  0  0  0  0  0
    0.0000   -0.1244    0.0000 O    0  0  0  0  0  0  0  0  0  0  0  0
    2.3085   -0.1244    0.0000 O    0  5  0  0  0  0  0  0  0  0  0  0
    4.1124    0.0000    0.0000 Na   0  3  0  0  0  0  0  0  0  0  0  0
  1  9  1  0  0  0  0
  1 10  1  0  0  0  0
  2  3  1  0  0  0  0
  2  4  2  0  0  0  0
  2  9  1  0  0  0  0
  3  5  2  0  0  0  0
  4  6  1  0  0  0  0
  4  8  1  0  0  0  0
  5  7  1  0  0  0  0
  6  7  2  0  0  0  0
  8 12  2  0  0  0  0
  8 13  1  0  0  0  0
 10 11  1  0  0  0  0
M  END
> <ID>
4252

> <Formula>
C9H9HgNaO2S

> <FW>
404.8113 (381.8221+22.9892)

> <DSSTox_CID>
5540

> <DSSTox_RID>
77823

> <DSSTox_GSID>
25540

> <DSSTox_FileID_Sort>
2506

> <TS_ChemName>
Thimerosal

> <TS_ChemName_Synonyms>
Merthiolate; ((o-Carboxyphenyl)thio)ethylmercury sodium salt

> <TS_CASRN>
54-64-8

> <CASRN_ChemName_Relationship>
primary

> <TS_Description>
single chemical compound

> <ChemNote>
parent [736071-66-2]

> <STRUCTURE_Shown>
tested chemical

> <STRUCTURE_Formula>
C9H9HgNaO2S

> <STRUCTURE_MW>
404.8113

> <STRUCTURE_ChemType>
organometallic

> <STRUCTURE_DefinedOrganicForm>


> <STRUCTURE_IUPAC>
sodium ethyl[2-(sulfanyl-kappaS)benzoato(2-)]mercurate(1-)

> <STRUCTURE_SMILES>
[Na+].[O-]C(=O)c1ccccc1S[Hg]CC

> <STRUCTURE_SMILES_Desalt>
O=C(O)c1ccccc1S[Hg]CC

> <Substance_modify_yyyymmdd>
20080429

$$$$
