54-86-4
ChemmineR-0915142007XD

 10  9  0  0  0  0  0  0  0  0  2 V2000
    3.9875   -1.1515    0.0000 C    0  0  0  0  0  0  0  0  0  0  0  0
    2.6548   -1.1515    0.0000 C    0  0  0  0  0  0  0  0  0  0  0  0
    4.6592    0.0000    0.0000 O    0  0  0  0  0  0  0  0  0  0  0  0
    0.6717   -2.3030    0.0000 N    0  0  0  0  0  0  0  0  0  0  0  0
    4.6592   -2.3030    0.0000 O    0  5  0  0  0  0  0  0  0  0  0  0
    1.9991   -2.3030    0.0000 C    0  0  0  0  0  0  0  0  0  0  0  0
    1.9991    0.0000    0.0000 C    0  0  0  0  0  0  0  0  0  0  0  0
    0.0000   -1.1515    0.0000 C    0  0  0  0  0  0  0  0  0  0  0  0
    0.6717    0.0000    0.0000 C    0  0  0  0  0  0  0  0  0  0  0  0
    5.3309   -0.8956    0.0000 Na   0  3  0  0  0  0  0  0  0  0  0  0
  1  2  1  0  0  0  0
  1  3  2  0  0  0  0
  1  5  1  0  0  0  0
  2  6  2  0  0  0  0
  2  7  1  0  0  0  0
  4  6  1  0  0  0  0
  4  8  2  0  0  0  0
  7  9  2  0  0  0  0
  8  9  1  0  0  0  0
M  END
> <ID>
10602

> <Formula>
C6H4NNaO2

> <FW>
145.0912 (122.1020+22.9892)

> <DSSTox_CID>
24955

> <DSSTox_RID>
80613

> <DSSTox_GSID>
44955

> <DSSTox_FileID_Sort>
5295

> <TS_ChemName>
Sodium nicotinate

> <TS_ChemName_Synonyms>
Sodium nicotinate (3-Pyridinecarboxylic acid, sodium salt) (Sodium pyridine-3-carboxylate)

> <TS_CASRN>
54-86-4

> <CASRN_ChemName_Relationship>
primary

> <TS_Description>
single chemical compound

> <ChemNote>
parent [59-67-6]

> <STRUCTURE_Shown>
tested chemical

> <STRUCTURE_Formula>
C6H4NNaO2

> <STRUCTURE_MW>
145.0912

> <STRUCTURE_ChemType>
defined organic

> <STRUCTURE_DefinedOrganicForm>
salt

> <STRUCTURE_IUPAC>
sodium pyridine-3-carboxylate

> <STRUCTURE_SMILES>
[Na+].[O-]C(=O)c1cccnc1

> <STRUCTURE_SMILES_Desalt>
O=C(O)c1cccnc1

> <Substance_modify_yyyymmdd>
20091116

$$$$
