540-59-0
ChemmineR-0915142007XD

  4  3  0  0  0  0  0  0  0  0  1 V2000
    1.1537    0.0000    0.0000 C    0  0  0  0  0  0  0  0  0  0  0  0
    2.3075   -0.6716    0.0000 C    0  0  0  0  0  0  0  0  0  0  0  0
    3.4440    0.0000    0.0000 Cl   0  0  0  0  0  0  0  0  0  0  0  0
    0.0000   -0.6716    0.0000 Cl   0  0  0  0  0  0  0  0  0  0  0  0
  1  2  2  3  0  0  0
  1  4  1  0  0  0  0
  2  3  1  0  0  0  0
M  END
> <ID>
3955

> <Formula>
C2H2Cl2

> <FW>
96.9433

> <DSSTox_CID>
4991

> <DSSTox_RID>
77614

> <DSSTox_GSID>
24991

> <DSSTox_FileID_Sort>
2297

> <TS_ChemName>
(Z,E)-1,2-Dichloroethylene

> <TS_ChemName_Synonyms>
1,2-Dichloroethylene

> <TS_CASRN>
540-59-0

> <CASRN_ChemName_Relationship>
primary

> <TS_Description>
single chemical compound

> <ChemNote>
mixture of Z,E isomers; structure shown without stereochem

> <STRUCTURE_Shown>
tested chemical

> <STRUCTURE_Formula>
C2H2Cl2

> <STRUCTURE_MW>
96.9433

> <STRUCTURE_ChemType>
defined organic

> <STRUCTURE_DefinedOrganicForm>
parent

> <STRUCTURE_IUPAC>
1,2-dichloroethene

> <STRUCTURE_SMILES>
ClC=CCl

> <STRUCTURE_SMILES_Desalt>
ClC=CCl

> <Substance_modify_yyyymmdd>
20080429

$$$$
