540-07-8
ChemmineR-0915142007XD

 13 12  0  0  0  0  0  0  0  0  1 V2000
    5.7285   -1.3404    0.0000 C   0  0  0  0  0  0  0  0  0  0  0  0
    5.7285    0.0000    0.0000 O   0  0  0  0  0  0  0  0  0  0  0  0
    6.9172   -2.0107    0.0000 O   0  0  0  0  0  0  0  0  0  0  0  0
    4.6030   -2.0107    0.0000 C   0  0  0  0  0  0  0  0  0  0  0  0
    3.4523   -1.3404    0.0000 C   0  0  0  0  0  0  0  0  0  0  0  0
    1.1508   -1.3404    0.0000 C   0  0  0  0  0  0  0  0  0  0  0  0
    2.3268   -2.0107    0.0000 C   0  0  0  0  0  0  0  0  0  0  0  0
    0.0000   -1.9727    0.0000 C   0  0  0  0  0  0  0  0  0  0  0  0
    8.0426   -1.3404    0.0000 C   0  0  0  0  0  0  0  0  0  0  0  0
    9.1934   -2.0107    0.0000 C   0  0  0  0  0  0  0  0  0  0  0  0
   10.3188   -1.3404    0.0000 C   0  0  0  0  0  0  0  0  0  0  0  0
   11.4949   -2.0107    0.0000 C   0  0  0  0  0  0  0  0  0  0  0  0
   12.6456   -1.3404    0.0000 C   0  0  0  0  0  0  0  0  0  0  0  0
  1  2  2  0  0  0  0
  1  3  1  0  0  0  0
  1  4  1  0  0  0  0
  3  9  1  0  0  0  0
  4  5  1  0  0  0  0
  5  7  1  0  0  0  0
  6  7  1  0  0  0  0
  6  8  1  0  0  0  0
  9 10  1  0  0  0  0
 10 11  1  0  0  0  0
 11 12  1  0  0  0  0
 12 13  1  0  0  0  0
M  END
> <ID>
12703

> <Formula>
C11H22O2

> <FW>
186.2912

> <DSSTox_CID>
27581

> <DSSTox_RID>
82431

> <DSSTox_GSID>
47581

> <DSSTox_FileID_Sort>
7112

> <TS_ChemName>
Pentyl hexanoate

> <TS_ChemName_Synonyms>


> <TS_CASRN>
540-07-8

> <CASRN_ChemName_Relationship>
primary

> <TS_Description>
single chemical compound

> <ChemNote>


> <STRUCTURE_Shown>
tested chemical

> <STRUCTURE_Formula>
C11H22O2

> <STRUCTURE_MW>
186.2912

> <STRUCTURE_ChemType>
defined organic

> <STRUCTURE_DefinedOrganicForm>
parent

> <STRUCTURE_IUPAC>
pentyl hexanoate

> <STRUCTURE_SMILES>
O=C(CCCCC)OCCCCC

> <STRUCTURE_SMILES_Desalt>
O=C(CCCCC)OCCCCC

> <Substance_modify_yyyymmdd>
20100930

$$$$
