540-18-1
ChemmineR-0915142007XD

 11 10  0  0  0  0  0  0  0  0  1 V2000
    3.4963   -1.3527    0.0000 C   0  0  0  0  0  0  0  0  0  0  0  0
    3.4963    0.0000    0.0000 O   0  0  0  0  0  0  0  0  0  0  0  0
    4.6409   -2.0083    0.0000 O   0  0  0  0  0  0  0  0  0  0  0  0
    2.3517   -2.0083    0.0000 C   0  0  0  0  0  0  0  0  0  0  0  0
    1.1446   -1.3527    0.0000 C   0  0  0  0  0  0  0  0  0  0  0  0
    0.0000   -2.0083    0.0000 C   0  0  0  0  0  0  0  0  0  0  0  0
    5.7959   -1.3527    0.0000 C   0  0  0  0  0  0  0  0  0  0  0  0
    6.9405   -2.0083    0.0000 C   0  0  0  0  0  0  0  0  0  0  0  0
    8.0851   -1.3527    0.0000 C   0  0  0  0  0  0  0  0  0  0  0  0
    9.2610   -1.9771    0.0000 C   0  0  0  0  0  0  0  0  0  0  0  0
   10.4056   -1.3215    0.0000 C   0  0  0  0  0  0  0  0  0  0  0  0
  1  2  2  0  0  0  0
  1  3  1  0  0  0  0
  1  4  1  0  0  0  0
  3  7  1  0  0  0  0
  4  5  1  0  0  0  0
  5  6  1  0  0  0  0
  7  8  1  0  0  0  0
  8  9  1  0  0  0  0
  9 10  1  0  0  0  0
 10 11  1  0  0  0  0
M  END
> <ID>
8564

> <Formula>
C9H18O2

> <FW>
158.238

> <DSSTox_CID>
21604

> <DSSTox_RID>
79782

> <DSSTox_GSID>
41604

> <DSSTox_FileID_Sort>
4464

> <TS_ChemName>
Pentyl butyrate

> <TS_ChemName_Synonyms>
Pentyl butyrate (Amyl butyrate)

> <TS_CASRN>
540-18-1

> <CASRN_ChemName_Relationship>
primary

> <TS_Description>
single chemical compound

> <ChemNote>


> <STRUCTURE_Shown>
tested chemical

> <STRUCTURE_Formula>
C9H18O2

> <STRUCTURE_MW>
158.238

> <STRUCTURE_ChemType>
defined organic

> <STRUCTURE_DefinedOrganicForm>
parent

> <STRUCTURE_IUPAC>
pentyl butanoate

> <STRUCTURE_SMILES>
O=C(CCC)OCCCCC

> <STRUCTURE_SMILES_Desalt>
O=C(CCC)OCCCCC

> <Substance_modify_yyyymmdd>
20080825

$$$$
