5401-94-5
ChemmineR-0915142007XD

 12 13  0  0  0  0  0  0  0  0  2 V2000
    2.3103   -3.3223    0.0000 C   0  0  0  0  0  0  0  0  0  0  0  0
    3.4622   -3.9948    0.0000 C   0  0  0  0  0  0  0  0  0  0  0  0
    3.4622   -1.3316    0.0000 C   0  0  0  0  0  0  0  0  0  0  0  0
    5.8857   -1.5913    0.0000 C   0  0  0  0  0  0  0  0  0  0  0  0
    4.6073   -1.9907    0.0000 C   0  0  0  0  0  0  0  0  0  0  0  0
    2.3103   -1.9907    0.0000 C   0  0  0  0  0  0  0  0  0  0  0  0
    4.6073   -3.3223    0.0000 C   0  0  0  0  0  0  0  0  0  0  0  0
    6.6580   -2.6632    0.0000 N   0  0  0  0  0  0  0  0  0  0  0  0
    5.8857   -3.7351    0.0000 N   0  0  0  0  0  0  0  0  0  0  0  0
    1.1518   -1.3316    0.0000 N   0  3  0  0  0  0  0  0  0  0  0  0
    1.1518    0.0000    0.0000 O   0  5  0  0  0  0  0  0  0  0  0  0
    0.0000   -1.9907    0.0000 O   0  0  0  0  0  0  0  0  0  0  0  0
  1  2  1  0  0  0  0
  1  6  2  0  0  0  0
  2  7  2  0  0  0  0
  3  5  2  0  0  0  0
  3  6  1  0  0  0  0
  4  5  1  0  0  0  0
  4  8  2  0  0  0  0
  5  7  1  0  0  0  0
  6 10  1  0  0  0  0
  7  9  1  0  0  0  0
  8  9  1  0  0  0  0
 10 11  1  0  0  0  0
 10 12  2  0  0  0  0
M  END
> <ID>
14180

> <Formula>
C7H5N3O2

> <FW>
163.1335

> <DSSTox_CID>
29272

> <DSSTox_RID>
83391

> <DSSTox_GSID>
49316

> <DSSTox_FileID_Sort>
8066

> <TS_ChemName>
5-Nitroindazole

> <TS_ChemName_Synonyms>


> <TS_CASRN>
5401-94-5

> <CASRN_ChemName_Relationship>
primary

> <TS_Description>
single chemical compound

> <ChemNote>


> <STRUCTURE_Shown>
tested chemical

> <STRUCTURE_Formula>
C7H5N3O2

> <STRUCTURE_MW>
163.1335

> <STRUCTURE_ChemType>
defined organic

> <STRUCTURE_DefinedOrganicForm>
parent

> <STRUCTURE_IUPAC>
5-nitro-1H-indazole

> <STRUCTURE_SMILES>
[O-][N+](=O)c1cc2cnnc2cc1

> <STRUCTURE_SMILES_Desalt>
[O-][N+](=O)c1cc2cnnc2cc1

> <Substance_modify_yyyymmdd>
20111204

$$$$
