54029-45-7
ChemmineR-0915142007XD

 13 13  0  0  0  0  0  0  0  0  2 V2000
    3.4566   -5.3178    0.0000 S   0  0  0  0  0  0  0  0  0  0  0  0
    4.6132   -5.9759    0.0000 C   0  0  0  0  0  0  0  0  0  0  0  0
    5.7632   -6.6473    0.0000 N   0  0  0  0  0  0  0  0  0  0  0  0
    3.4566   -3.9884    0.0000 C   0  0  0  0  0  0  0  0  0  0  0  0
    2.3066   -3.3170    0.0000 C   0  0  0  0  0  0  0  0  0  0  0  0
    4.6132   -3.3170    0.0000 C   0  0  0  0  0  0  0  0  0  0  0  0
    2.3066   -1.9875    0.0000 C   0  0  0  0  0  0  0  0  0  0  0  0
    4.6132   -1.9875    0.0000 C   0  0  0  0  0  0  0  0  0  0  0  0
    3.4566   -1.3295    0.0000 C   0  0  0  0  0  0  0  0  0  0  0  0
    3.4566    0.0000    0.0000 N   0  0  0  0  0  0  0  0  0  0  0  0
    1.1500   -1.3295    0.0000 N   0  3  0  0  0  0  0  0  0  0  0  0
    0.0000   -1.9875    0.0000 O   0  5  0  0  0  0  0  0  0  0  0  0
    1.1500    0.0000    0.0000 O   0  0  0  0  0  0  0  0  0  0  0  0
  1  2  1  0  0  0  0
  1  4  1  0  0  0  0
  2  3  3  0  0  0  0
  4  5  2  0  0  0  0
  4  6  1  0  0  0  0
  5  7  1  0  0  0  0
  6  8  2  0  0  0  0
  7  9  2  0  0  0  0
  7 11  1  0  0  0  0
  8  9  1  0  0  0  0
  9 10  1  0  0  0  0
 11 12  1  0  0  0  0
 11 13  2  0  0  0  0
M  END
> <ID>
7241

> <Formula>
C7H5N3O2S

> <FW>
195.1985

> <DSSTox_CID>
17038

> <DSSTox_RID>
79298

> <DSSTox_GSID>
37038

> <DSSTox_FileID_Sort>
3980

> <TS_ChemName>
2-Nitro-4-thiocyanoaniline

> <TS_ChemName_Synonyms>


> <TS_CASRN>
54029-45-7

> <CASRN_ChemName_Relationship>
primary

> <TS_Description>
single chemical compound

> <ChemNote>


> <STRUCTURE_Shown>
tested chemical

> <STRUCTURE_Formula>
C7H5N3O2S

> <STRUCTURE_MW>
195.1985

> <STRUCTURE_ChemType>
defined organic

> <STRUCTURE_DefinedOrganicForm>
parent

> <STRUCTURE_IUPAC>
4-amino-3-nitrophenyl thiocyanate

> <STRUCTURE_SMILES>
N#CSc1cc(c(N)cc1)[N+]([O-])=O

> <STRUCTURE_SMILES_Desalt>
N#CSc1cc(c(N)cc1)[N+]([O-])=O

> <Substance_modify_yyyymmdd>
20080429

$$$$
