54048-10-1
ChemmineR-0915142007XD

 28 31  0  0  1  0  0  0  0  0  1 V2000
    6.9335   -2.4976    0.0000 C   0  0  0  0  0  0  0  0  0  0  0  0
    6.9335   -3.8395    0.0000 C   0  0  0  0  0  0  0  0  0  0  0  0
    3.4761   -5.8432    0.0000 C   0  0  0  0  0  0  0  0  0  0  0  0
    5.7873   -4.5012    0.0000 C   0  0  0  0  0  0  0  0  0  0  0  0
    4.6317   -3.8209    0.0000 C   0  0  0  0  0  0  0  0  0  0  0  0
    3.4761   -4.5012    0.0000 C   0  0  0  0  0  0  0  0  0  0  0  0
    2.3391   -6.4955    0.0000 C   0  0  0  0  0  0  0  0  0  0  0  0
    5.7873   -1.8266    0.0000 C   0  0  0  0  0  0  0  0  0  0  0  0
    4.6317   -2.4976    0.0000 C   0  0  0  0  0  0  0  0  0  0  0  0
    5.7873   -5.8246    0.0000 C   0  0  0  0  0  0  0  0  0  0  0  0
    8.1916   -4.2496    0.0000 C   0  0  0  0  0  0  0  0  0  0  0  0
    2.3391   -3.8209    0.0000 C   0  0  0  0  0  0  0  0  0  0  0  0
    8.1916   -2.1155    0.0000 C   0  0  0  0  0  0  0  0  0  0  0  0
    4.6317   -6.4955    0.0000 C   0  0  0  0  0  0  0  0  0  0  0  0
    1.1649   -5.8246    0.0000 C   0  0  0  0  0  0  0  0  0  0  0  0
    8.9651   -3.1686    0.0000 C   0  0  0  0  0  0  0  0  0  0  0  0
    0.0000   -6.4489    0.0000 O   0  0  0  0  0  0  0  0  0  0  0  0
    1.1649   -4.5012    0.0000 C   0  0  0  0  0  0  0  0  0  0  0  0
    6.9429   -1.1742    0.0000 C   0  0  0  0  0  0  0  0  0  0  0  0
    9.3193   -1.3513    0.0000 O   0  0  0  0  0  0  0  0  0  0  0  0
    4.6317   -5.1722    0.0000 H   0  0  0  0  0  0  0  0  0  0  0  0
    3.4761   -3.1686    0.0000 H   0  0  0  0  0  0  0  0  0  0  0  0
    6.9429   -5.1722    0.0000 H   0  0  0  0  0  0  0  0  0  0  0  0
    5.7873   -3.1686    0.0000 H   0  0  0  0  0  0  0  0  0  0  0  0
    3.4854   -1.8452    0.0000 C   0  0  0  0  0  0  0  0  0  0  0  0
    5.8152   -0.5032    0.0000 C   0  0  0  0  0  0  0  0  0  0  0  0
    8.0332   -0.8108    0.0000 C   0  0  0  0  0  0  0  0  0  0  0  0
    9.0770    0.0000    0.0000 C   0  0  0  0  0  0  0  0  0  0  0  0
  1  2  1  0  0  0  0
  1  8  1  0  0  0  0
  1 13  1  0  0  0  0
  1 19  1  1  0  0  0
  2  4  1  0  0  0  0
  2 11  1  0  0  0  0
  2 23  1  6  0  0  0
  3  6  1  0  0  0  0
  3  7  2  0  0  0  0
  3 14  1  0  0  0  0
  4 10  1  0  0  0  0
  4 24  1  1  0  0  0
  4  5  1  0  0  0  0
  5  9  1  0  0  0  0
  5  6  1  0  0  0  0
  5 21  1  6  0  0  0
  6 12  1  0  0  0  0
  6 22  1  1  0  0  0
  7 15  1  0  0  0  0
  8  9  1  0  0  0  0
  9 25  2  0  0  0  0
 10 14  1  0  0  0  0
 11 16  1  0  0  0  0
 12 18  1  0  0  0  0
 13 16  1  0  0  0  0
 13 20  1  1  0  0  0
 13 27  1  6  0  0  0
 15 18  1  0  0  0  0
 15 17  2  0  0  0  0
 19 26  1  0  0  0  0
 27 28  3  0  0  0  0
M  END
> <ID>
11964

> <Formula>
C22H28O2

> <FW>
324.4565

> <DSSTox_CID>
26782

> <DSSTox_RID>
81900

> <DSSTox_GSID>
46782

> <DSSTox_FileID_Sort>
6581

> <TS_ChemName>
Etonogestrel

> <TS_ChemName_Synonyms>


> <TS_CASRN>
54048-10-1

> <CASRN_ChemName_Relationship>
primary

> <TS_Description>
single chemical compound

> <ChemNote>
stereochem

> <STRUCTURE_Shown>
tested chemical

> <STRUCTURE_Formula>
C22H28O2

> <STRUCTURE_MW>
324.4565

> <STRUCTURE_ChemType>
defined organic

> <STRUCTURE_DefinedOrganicForm>
parent

> <STRUCTURE_IUPAC>
(8S,9S,10R,13S,14S,17R)-13-ethyl-17-ethynyl-17-hydroxy-11-methylidene-1,2,6,7,8,9,10,11,12,13,14,15,16,17-tetradecahydro-3H-cyclopenta[a]phenanthren-3-one

> <STRUCTURE_SMILES>
C=C3C[C@@]1(CC)[C@@H](CC[C@@]1(O)C#C)[C@@H]4CCC2=CC(=O)CC[C@@H]2[C@@H]34

> <STRUCTURE_SMILES_Desalt>
C=C3C[C@@]1(CC)[C@@H](CC[C@@]1(O)C#C)[C@@H]4CCC2=CC(=O)CC[C@@H]2[C@@H]34

> <Substance_modify_yyyymmdd>
20110522

$$$$
