54063-53-5
ChemmineR-0915142007XD

 25 26  0  0  0  0  0  0  0  0  1 V2000
    6.9076   -2.6890    0.0000 C   0  0  0  0  0  0  0  0  0  0  0  0
    5.7644   -1.9966    0.0000 C   0  0  0  0  0  0  0  0  0  0  0  0
    8.0669   -2.0127    0.0000 C   0  0  0  0  0  0  0  0  0  0  0  0
    8.0669   -0.6924    0.0000 O   0  0  0  0  0  0  0  0  0  0  0  0
    5.7644   -0.6763    0.0000 O   0  0  0  0  0  0  0  0  0  0  0  0
    4.6051   -2.6890    0.0000 C   0  0  0  0  0  0  0  0  0  0  0  0
    9.2262   -0.0483    0.0000 C   0  0  0  0  0  0  0  0  0  0  0  0
   10.3695   -0.6924    0.0000 C   0  0  0  0  0  0  0  0  0  0  0  0
    3.4780   -1.9966    0.0000 C   0  0  0  0  0  0  0  0  0  0  0  0
   12.6720   -0.6763    0.0000 N   0  0  0  0  0  0  0  0  0  0  0  0
    2.3025   -2.6890    0.0000 C   0  0  0  0  0  0  0  0  0  0  0  0
   10.3695   -2.0127    0.0000 O   0  0  0  0  0  0  0  0  0  0  0  0
    6.9076   -4.0254    0.0000 C   0  0  0  0  0  0  0  0  0  0  0  0
   11.5288   -0.0322    0.0000 C   0  0  0  0  0  0  0  0  0  0  0  0
    9.2262   -2.6890    0.0000 C   0  0  0  0  0  0  0  0  0  0  0  0
   13.7991   -0.0322    0.0000 C   0  0  0  0  0  0  0  0  0  0  0  0
    1.1593   -1.9966    0.0000 C   0  0  0  0  0  0  0  0  0  0  0  0
    2.3025   -4.0254    0.0000 C   0  0  0  0  0  0  0  0  0  0  0  0
   14.9745   -0.6602    0.0000 C   0  0  0  0  0  0  0  0  0  0  0  0
    8.0669   -4.6856    0.0000 C   0  0  0  0  0  0  0  0  0  0  0  0
   16.1016    0.0000    0.0000 C   0  0  0  0  0  0  0  0  0  0  0  0
    9.2262   -4.0254    0.0000 C   0  0  0  0  0  0  0  0  0  0  0  0
    1.1593   -4.6695    0.0000 C   0  0  0  0  0  0  0  0  0  0  0  0
    0.0000   -2.6890    0.0000 C   0  0  0  0  0  0  0  0  0  0  0  0
    0.0000   -4.0254    0.0000 C   0  0  0  0  0  0  0  0  0  0  0  0
  1  2  1  0  0  0  0
  1  3  2  0  0  0  0
  1 13  1  0  0  0  0
  2  5  2  0  0  0  0
  2  6  1  0  0  0  0
  3  4  1  0  0  0  0
  3 15  1  0  0  0  0
  4  7  1  0  0  0  0
  6  9  1  0  0  0  0
  7  8  1  0  0  0  0
  8 12  1  0  0  0  0
  8 14  1  0  0  0  0
  9 11  1  0  0  0  0
 10 14  1  0  0  0  0
 10 16  1  0  0  0  0
 11 17  1  0  0  0  0
 11 18  2  0  0  0  0
 13 20  2  0  0  0  0
 15 22  2  0  0  0  0
 16 19  1  0  0  0  0
 17 24  2  0  0  0  0
 18 23  1  0  0  0  0
 19 21  1  0  0  0  0
 20 22  1  0  0  0  0
 23 25  2  0  0  0  0
 24 25  1  0  0  0  0
M  END
> <ID>
10802

> <Formula>
C21H27NO3

> <FW>
341.444

> <DSSTox_CID>
25184

> <DSSTox_RID>
80732

> <DSSTox_GSID>
45184

> <DSSTox_FileID_Sort>
5413

> <TS_ChemName>
Propafenone

> <TS_ChemName_Synonyms>


> <TS_CASRN>
54063-53-5

> <CASRN_ChemName_Relationship>
primary

> <TS_Description>
single chemical compound

> <ChemNote>


> <STRUCTURE_Shown>
tested chemical

> <STRUCTURE_Formula>
C21H27NO3

> <STRUCTURE_MW>
341.444

> <STRUCTURE_ChemType>
defined organic

> <STRUCTURE_DefinedOrganicForm>
parent

> <STRUCTURE_IUPAC>
1-{2-[2-hydroxy-3-(propylamino)propoxy]phenyl}-3-phenylpropan-1-one

> <STRUCTURE_SMILES>
CCCNCC(O)COc2ccccc2C(=O)CCc1ccccc1

> <STRUCTURE_SMILES_Desalt>
CCCNCC(O)COc2ccccc2C(=O)CCc1ccccc1

> <Substance_modify_yyyymmdd>
20100107

$$$$
