5407-98-7
ChemmineR-0915142007XD

 12 13  0  0  0  0  0  0  0  0  1 V2000
    2.7751   -1.3345    0.0000 C   0  0  0  0  0  0  0  0  0  0  0  0
    2.7751    0.0000    0.0000 O   0  0  0  0  0  0  0  0  0  0  0  0
    1.6339   -2.0080    0.0000 C   0  0  0  0  0  0  0  0  0  0  0  0
    1.2659   -3.3239    0.0000 C   0  0  0  0  0  0  0  0  0  0  0  0
    0.0000   -2.9871    0.0000 C   0  0  0  0  0  0  0  0  0  0  0  0
    0.3368   -1.6713    0.0000 C   0  0  0  0  0  0  0  0  0  0  0  0
    5.0824   -3.9786    0.0000 C   0  0  0  0  0  0  0  0  0  0  0  0
    6.2361   -3.3051    0.0000 C   0  0  0  0  0  0  0  0  0  0  0  0
    6.2174   -1.9769    0.0000 C   0  0  0  0  0  0  0  0  0  0  0  0
    5.0824   -1.3345    0.0000 C   0  0  0  0  0  0  0  0  0  0  0  0
    3.9412   -1.9893    0.0000 C   0  0  0  0  0  0  0  0  0  0  0  0
    3.9599   -3.3239    0.0000 C   0  0  0  0  0  0  0  0  0  0  0  0
  1  2  2  0  0  0  0
  1  3  1  0  0  0  0
  1 11  1  0  0  0  0
  3  4  1  0  0  0  0
  3  6  1  0  0  0  0
  4  5  1  0  0  0  0
  5  6  1  0  0  0  0
  7 12  2  0  0  0  0
  7  8  1  0  0  0  0
  8  9  2  0  0  0  0
  9 10  1  0  0  0  0
 10 11  2  0  0  0  0
 11 12  1  0  0  0  0
M  END
> <ID>
13263

> <Formula>
C11H12O

> <FW>
160.2124

> <DSSTox_CID>
28176

> <DSSTox_RID>
82736

> <DSSTox_GSID>
48201

> <DSSTox_FileID_Sort>
7413

> <TS_ChemName>
Cyclobutyl phenyl ketone

> <TS_ChemName_Synonyms>


> <TS_CASRN>
5407-98-7

> <CASRN_ChemName_Relationship>
primary

> <TS_Description>
single chemical compound

> <ChemNote>


> <STRUCTURE_Shown>
tested chemical

> <STRUCTURE_Formula>
C11H12O

> <STRUCTURE_MW>
160.2124

> <STRUCTURE_ChemType>
defined organic

> <STRUCTURE_DefinedOrganicForm>
parent

> <STRUCTURE_IUPAC>
cyclobutyl(phenyl)methanone

> <STRUCTURE_SMILES>
O=C(c1ccccc1)C2CCC2

> <STRUCTURE_SMILES_Desalt>
O=C(c1ccccc1)C2CCC2

> <Substance_modify_yyyymmdd>
20110901

$$$$
