541-79-7
ChemmineR-0915142007XD

 12 11  0  0  0  0  0  0  0  0  1 V2000
    3.4523   -1.1588    0.0000 N    0  0  0  0  0  0  0  0  0  0  0  0
    1.1588   -1.1588    0.0000 C    0  0  0  0  0  0  0  0  0  0  0  0
    2.3096   -1.8106    0.0000 C    0  0  0  0  0  0  0  0  0  0  0  0
    4.5950   -1.8106    0.0000 C    0  0  0  0  0  0  0  0  0  0  0  0
    4.5950   -3.1465    0.0000 O    0  0  0  0  0  0  0  0  0  0  0  0
    1.8428    0.0000    0.0000 Cl   0  0  0  0  0  0  0  0  0  0  0  0
    0.4909   -2.3176    0.0000 Cl   0  0  0  0  0  0  0  0  0  0  0  0
    0.0000   -0.4909    0.0000 Cl   0  0  0  0  0  0  0  0  0  0  0  0
    5.7538   -1.1588    0.0000 O    0  0  0  0  0  0  0  0  0  0  0  0
    2.3096   -3.1465    0.0000 O    0  0  0  0  0  0  0  0  0  0  0  0
    6.8885   -1.8428    0.0000 C    0  0  0  0  0  0  0  0  0  0  0  0
    8.0473   -1.1910    0.0000 C    0  0  0  0  0  0  0  0  0  0  0  0
  1  3  1  0  0  0  0
  1  4  1  0  0  0  0
  2  3  1  0  0  0  0
  2  6  1  0  0  0  0
  2  7  1  0  0  0  0
  2  8  1  0  0  0  0
  3 10  1  0  0  0  0
  4  5  2  0  0  0  0
  4  9  1  0  0  0  0
  9 11  1  0  0  0  0
 11 12  1  0  0  0  0
M  END
> <ID>
11527

> <Formula>
C5H8Cl3NO3

> <FW>
236.4809

> <DSSTox_CID>
26233

> <DSSTox_RID>
81460

> <DSSTox_GSID>
46233

> <DSSTox_FileID_Sort>
6141

> <TS_ChemName>
Carbocloral

> <TS_ChemName_Synonyms>


> <TS_CASRN>
541-79-7

> <CASRN_ChemName_Relationship>
primary

> <TS_Description>
single chemical compound

> <ChemNote>


> <STRUCTURE_Shown>
tested chemical

> <STRUCTURE_Formula>
C5H8Cl3NO3

> <STRUCTURE_MW>
236.4809

> <STRUCTURE_ChemType>
defined organic

> <STRUCTURE_DefinedOrganicForm>
parent

> <STRUCTURE_IUPAC>
ethyl (2,2,2-trichloro-1-hydroxyethyl)carbamate

> <STRUCTURE_SMILES>
OC(NC(=O)OCC)C(Cl)(Cl)Cl

> <STRUCTURE_SMILES_Desalt>
OC(NC(=O)OCC)C(Cl)(Cl)Cl

> <Substance_modify_yyyymmdd>
20110817

$$$$
