541-73-1
ChemmineR-0915142007XD

  8  8  0  0  0  0  0  0  0  0  1 V2000
    4.6080   -2.6588    0.0000 Cl   0  0  0  0  0  0  0  0  0  0  0  0
    3.4560   -1.9953    0.0000 C    0  0  0  0  0  0  0  0  0  0  0  0
    2.3040   -2.6588    0.0000 C    0  0  0  0  0  0  0  0  0  0  0  0
    1.1520   -1.9953    0.0000 C    0  0  0  0  0  0  0  0  0  0  0  0
    0.0000   -2.6588    0.0000 Cl   0  0  0  0  0  0  0  0  0  0  0  0
    1.1520   -0.6635    0.0000 C    0  0  0  0  0  0  0  0  0  0  0  0
    2.3040    0.0000    0.0000 C    0  0  0  0  0  0  0  0  0  0  0  0
    3.4560   -0.6635    0.0000 C    0  0  0  0  0  0  0  0  0  0  0  0
  1  2  1  0  0  0  0
  2  3  2  0  0  0  0
  2  8  1  0  0  0  0
  3  4  1  0  0  0  0
  4  5  1  0  0  0  0
  4  6  2  0  0  0  0
  6  7  1  0  0  0  0
  7  8  2  0  0  0  0
M  END
> <ID>
1901

> <Formula>
C6H4Cl2

> <FW>
147.002

> <DSSTox_CID>
2056

> <DSSTox_RID>
76473

> <DSSTox_GSID>
22056

> <DSSTox_FileID_Sort>
1157

> <TS_ChemName>
1,3-Dichlorobenzene

> <TS_ChemName_Synonyms>
1,3-Dichlorobenzene (m-Dichlorobenzene)

> <TS_CASRN>
541-73-1

> <CASRN_ChemName_Relationship>
primary

> <TS_Description>
single chemical compound

> <ChemNote>


> <STRUCTURE_Shown>
tested chemical

> <STRUCTURE_Formula>
C6H4Cl2

> <STRUCTURE_MW>
147.002

> <STRUCTURE_ChemType>
defined organic

> <STRUCTURE_DefinedOrganicForm>
parent

> <STRUCTURE_IUPAC>
1,3-dichlorobenzene

> <STRUCTURE_SMILES>
Clc1cccc(Cl)c1

> <STRUCTURE_SMILES_Desalt>
Clc1cccc(Cl)c1

> <Substance_modify_yyyymmdd>
20080429

$$$$
