541-53-7
ChemmineR-0915142007XD

  7  6  0  0  0  0  0  0  0  0  1 V2000
    2.3331   -2.0018    0.0000 N   0  0  0  0  0  0  0  0  0  0  0  0
    1.1105   -1.3345    0.0000 C   0  0  0  0  0  0  0  0  0  0  0  0
    3.4576   -1.3345    0.0000 C   0  0  0  0  0  0  0  0  0  0  0  0
    1.1105   -0.0187    0.0000 S   0  0  0  0  0  0  0  0  0  0  0  0
    3.4576    0.0000    0.0000 S   0  0  0  0  0  0  0  0  0  0  0  0
    0.0000   -1.9691    0.0000 N   0  0  0  0  0  0  0  0  0  0  0  0
    4.6662   -1.9365    0.0000 N   0  0  0  0  0  0  0  0  0  0  0  0
  1  2  1  0  0  0  0
  1  3  1  0  0  0  0
  2  4  2  0  0  0  0
  2  6  1  0  0  0  0
  3  5  2  0  0  0  0
  3  7  1  0  0  0  0
M  END
> <ID>
6968

> <Formula>
C2H5N3S2

> <FW>
135.2112

> <DSSTox_CID>
14968

> <DSSTox_RID>
79230

> <DSSTox_GSID>
34968

> <DSSTox_FileID_Sort>
3912

> <TS_ChemName>
2,4-Dithiobiuret

> <TS_ChemName_Synonyms>
2,4-Dithiobiuret (Thioimidodicarbonic diamide) ((H2N)C(S))2NH)

> <TS_CASRN>
541-53-7

> <CASRN_ChemName_Relationship>
primary

> <TS_Description>
single chemical compound

> <ChemNote>


> <STRUCTURE_Shown>
tested chemical

> <STRUCTURE_Formula>
C2H5N3S2

> <STRUCTURE_MW>
135.2112

> <STRUCTURE_ChemType>
defined organic

> <STRUCTURE_DefinedOrganicForm>
parent

> <STRUCTURE_IUPAC>
dicarbonodithioimidic diamide

> <STRUCTURE_SMILES>
NC(=S)NC(N)=S

> <STRUCTURE_SMILES_Desalt>
NC(=S)NC(N)=S

> <Substance_modify_yyyymmdd>
20080429

$$$$
