541-05-9
ChemmineR-0915142007XD

 12 12  0  0  0  0  0  0  0  0  1 V2000
    2.4813   -1.3300    0.0000 O    0  0  0  0  0  0  0  0  0  0  0  0
    3.1363   -2.4813    0.0000 Si   0  0  0  0  0  0  0  0  0  0  0  0
    2.4813   -3.6326    0.0000 O    0  0  0  0  0  0  0  0  0  0  0  0
    1.1513   -3.6326    0.0000 Si   0  0  0  0  0  0  0  0  0  0  0  0
    0.4814   -2.4813    0.0000 O    0  0  0  0  0  0  0  0  0  0  0  0
    1.1513   -1.3300    0.0000 Si   0  0  0  0  0  0  0  0  0  0  0  0
    4.2926   -1.8113    0.0000 C    0  0  0  0  0  0  0  0  0  0  0  0
    4.2926   -3.1512    0.0000 C    0  0  0  0  0  0  0  0  0  0  0  0
    0.0000   -4.2926    0.0000 C    0  0  0  0  0  0  0  0  0  0  0  0
    1.1513   -4.9625    0.0000 C    0  0  0  0  0  0  0  0  0  0  0  0
    1.1513    0.0000    0.0000 C    0  0  0  0  0  0  0  0  0  0  0  0
    0.0000   -0.6699    0.0000 C    0  0  0  0  0  0  0  0  0  0  0  0
  1  2  1  0  0  0  0
  1  6  1  0  0  0  0
  2  3  1  0  0  0  0
  2  7  1  0  0  0  0
  2  8  1  0  0  0  0
  3  4  1  0  0  0  0
  4  5  1  0  0  0  0
  4  9  1  0  0  0  0
  4 10  1  0  0  0  0
  5  6  1  0  0  0  0
  6 11  1  0  0  0  0
  6 12  1  0  0  0  0
M  END
> <ID>
4979

> <Formula>
C6H18O3Si3

> <FW>
222.4618

> <DSSTox_CID>
7185

> <DSSTox_RID>
78339

> <DSSTox_GSID>
27185

> <DSSTox_FileID_Sort>
3022

> <TS_ChemName>
Hexamethylcyclotrisiloxane

> <TS_ChemName_Synonyms>
Cyclotrisiloxane, hexamethyl-

> <TS_CASRN>
541-05-9

> <CASRN_ChemName_Relationship>
primary

> <TS_Description>
single chemical compound

> <ChemNote>


> <STRUCTURE_Shown>
tested chemical

> <STRUCTURE_Formula>
C6H18O3Si3

> <STRUCTURE_MW>
222.4618

> <STRUCTURE_ChemType>
organometallic

> <STRUCTURE_DefinedOrganicForm>


> <STRUCTURE_IUPAC>
2,2,4,4,6,6-hexamethyl-1,3,5,2,4,6-trioxatrisilinane

> <STRUCTURE_SMILES>
C[Si]1(C)O[Si](C)(C)O[Si](C)(C)O1

> <STRUCTURE_SMILES_Desalt>
C[Si]1(C)O[Si](C)(C)O[Si](C)(C)O1

> <Substance_modify_yyyymmdd>
20080429

$$$$
