541-41-3
ChemmineR-0915142007XD

  6  5  0  0  0  0  0  0  0  0  1 V2000
    3.4491   -1.3244    0.0000 C    0  0  0  0  0  0  0  0  0  0  0  0
    3.4491    0.0000    0.0000 O    0  0  0  0  0  0  0  0  0  0  0  0
    2.2994   -1.9959    0.0000 O    0  0  0  0  0  0  0  0  0  0  0  0
    4.5988   -1.9959    0.0000 Cl   0  0  0  0  0  0  0  0  0  0  0  0
    1.1497   -1.3244    0.0000 C    0  0  0  0  0  0  0  0  0  0  0  0
    0.0000   -1.9959    0.0000 C    0  0  0  0  0  0  0  0  0  0  0  0
  1  2  2  0  0  0  0
  1  3  1  0  0  0  0
  1  4  1  0  0  0  0
  3  5  1  0  0  0  0
  5  6  1  0  0  0  0
M  END
> <ID>
4980

> <Formula>
C3H5ClO2

> <FW>
108.5236

> <DSSTox_CID>
7186

> <DSSTox_RID>
78340

> <DSSTox_GSID>
27186

> <DSSTox_FileID_Sort>
3023

> <TS_ChemName>
Ethyl chloroformate

> <TS_ChemName_Synonyms>
Carbonochloridic acid, ethyl ester

> <TS_CASRN>
541-41-3

> <CASRN_ChemName_Relationship>
primary

> <TS_Description>
single chemical compound

> <ChemNote>


> <STRUCTURE_Shown>
tested chemical

> <STRUCTURE_Formula>
C3H5ClO2

> <STRUCTURE_MW>
108.5236

> <STRUCTURE_ChemType>
defined organic

> <STRUCTURE_DefinedOrganicForm>
parent

> <STRUCTURE_IUPAC>
ethyl carbonochloridate

> <STRUCTURE_SMILES>
ClC(=O)OCC

> <STRUCTURE_SMILES_Desalt>
ClC(=O)OCC

> <Substance_modify_yyyymmdd>
20080429

$$$$
