541-02-6
ChemmineR-0915142007XD

 20 20  0  0  0  0  0  0  0  0  1 V2000
    3.9784   -1.3149    0.0000 O    0  0  0  0  0  0  0  0  0  0  0  0
    5.0585   -2.0865    0.0000 Si   0  0  0  0  0  0  0  0  0  0  0  0
    5.4744   -3.3544    0.0000 O    0  0  0  0  0  0  0  0  0  0  0  0
    5.0585   -4.6224    0.0000 Si   0  0  0  0  0  0  0  0  0  0  0  0
    3.9784   -5.4073    0.0000 O    0  0  0  0  0  0  0  0  0  0  0  0
    2.6500   -5.4073    0.0000 Si   0  0  0  0  0  0  0  0  0  0  0  0
    1.5699   -4.6224    0.0000 O    0  0  0  0  0  0  0  0  0  0  0  0
    1.1539   -3.3544    0.0000 Si   0  0  0  0  0  0  0  0  0  0  0  0
    1.5699   -2.0865    0.0000 O    0  0  0  0  0  0  0  0  0  0  0  0
    2.6500   -1.3149    0.0000 Si   0  0  0  0  0  0  0  0  0  0  0  0
    6.3265   -2.3078    0.0000 C    0  0  0  0  0  0  0  0  0  0  0  0
    5.6019   -0.8654    0.0000 C    0  0  0  0  0  0  0  0  0  0  0  0
    5.6019   -5.8434    0.0000 C    0  0  0  0  0  0  0  0  0  0  0  0
    6.3399   -4.3675    0.0000 C    0  0  0  0  0  0  0  0  0  0  0  0
    1.6504   -6.2929    0.0000 C    0  0  0  0  0  0  0  0  0  0  0  0
    2.9184   -6.7089    0.0000 C    0  0  0  0  0  0  0  0  0  0  0  0
    0.0000   -2.6970    0.0000 C    0  0  0  0  0  0  0  0  0  0  0  0
    0.0000   -4.0253    0.0000 C    0  0  0  0  0  0  0  0  0  0  0  0
    1.6504   -0.4159    0.0000 C    0  0  0  0  0  0  0  0  0  0  0  0
    2.9184    0.0000    0.0000 C    0  0  0  0  0  0  0  0  0  0  0  0
  1  2  1  0  0  0  0
  1 10  1  0  0  0  0
  2  3  1  0  0  0  0
  2 11  1  0  0  0  0
  2 12  1  0  0  0  0
  3  4  1  0  0  0  0
  4  5  1  0  0  0  0
  4 13  1  0  0  0  0
  4 14  1  0  0  0  0
  5  6  1  0  0  0  0
  6  7  1  0  0  0  0
  6 15  1  0  0  0  0
  6 16  1  0  0  0  0
  7  8  1  0  0  0  0
  8  9  1  0  0  0  0
  8 17  1  0  0  0  0
  8 18  1  0  0  0  0
  9 10  1  0  0  0  0
 10 19  1  0  0  0  0
 10 20  1  0  0  0  0
M  END
> <ID>
4978

> <Formula>
C10H30O5Si5

> <FW>
370.7697

> <DSSTox_CID>
7184

> <DSSTox_RID>
78338

> <DSSTox_GSID>
27184

> <DSSTox_FileID_Sort>
3021

> <TS_ChemName>
Decamethylcyclopentasiloxane

> <TS_ChemName_Synonyms>
D5

> <TS_CASRN>
541-02-6

> <CASRN_ChemName_Relationship>
primary

> <TS_Description>
single chemical compound

> <ChemNote>


> <STRUCTURE_Shown>
tested chemical

> <STRUCTURE_Formula>
C10H30O5Si5

> <STRUCTURE_MW>
370.7697

> <STRUCTURE_ChemType>
organometallic

> <STRUCTURE_DefinedOrganicForm>


> <STRUCTURE_IUPAC>
2,2,4,4,6,6,8,8,10,10-decamethyl-1,3,5,7,9,2,4,6,8,10-pentoxapentasilecane

> <STRUCTURE_SMILES>
C[Si]1(C)O[Si](C)(C)O[Si](C)(C)O[Si](C)(C)O[Si](C)(C)O1

> <STRUCTURE_SMILES_Desalt>
C[Si]1(C)O[Si](C)(C)O[Si](C)(C)O[Si](C)(C)O[Si](C)(C)O1

> <Substance_modify_yyyymmdd>
20080429

$$$$
