541-22-0
ChemmineR-0915142007XD

 20 17  0  0  0  0  0  0  0  0  2 V2000
    1.1350   -1.3142    0.0000 N    0  3  0  0  0  0  0  0  0  0  0  0
   13.7845   -2.0908    0.0000 N    0  3  0  0  0  0  0  0  0  0  0  0
   12.5898   -1.4785    0.0000 C    0  0  0  0  0  0  0  0  0  0  0  0
    2.2551   -2.0460    0.0000 C    0  0  0  0  0  0  0  0  0  0  0  0
    1.8519   -0.1941    0.0000 C    0  0  0  0  0  0  0  0  0  0  0  0
   14.4417   -0.9558    0.0000 C    0  0  0  0  0  0  0  0  0  0  0  0
    0.0000   -0.5974    0.0000 C    0  0  0  0  0  0  0  0  0  0  0  0
   14.9345   -2.7629    0.0000 C    0  0  0  0  0  0  0  0  0  0  0  0
    0.3883   -2.4493    0.0000 C    0  0  0  0  0  0  0  0  0  0  0  0
   13.1125   -3.2707    0.0000 C    0  0  0  0  0  0  0  0  0  0  0  0
    3.4349   -1.4486    0.0000 C    0  0  0  0  0  0  0  0  0  0  0  0
   11.4548   -2.1356    0.0000 C    0  0  0  0  0  0  0  0  0  0  0  0
   10.2749   -1.5233    0.0000 C    0  0  0  0  0  0  0  0  0  0  0  0
    7.9750   -1.5233    0.0000 C    0  0  0  0  0  0  0  0  0  0  0  0
    9.1399   -2.1954    0.0000 C    0  0  0  0  0  0  0  0  0  0  0  0
    6.8549   -2.1954    0.0000 C    0  0  0  0  0  0  0  0  0  0  0  0
    5.6900   -1.5233    0.0000 C    0  0  0  0  0  0  0  0  0  0  0  0
    4.5401   -2.1506    0.0000 C    0  0  0  0  0  0  0  0  0  0  0  0
    1.2545   -3.0914    0.0000 Br   0  5  0  0  0  0  0  0  0  0  0  0
   13.3216    0.0000    0.0000 Br   0  5  0  0  0  0  0  0  0  0  0  0
  1  4  1  0  0  0  0
  1  5  1  0  0  0  0
  1  7  1  0  0  0  0
  1  9  1  0  0  0  0
  2  3  1  0  0  0  0
  2  6  1  0  0  0  0
  2  8  1  0  0  0  0
  2 10  1  0  0  0  0
  3 12  1  0  0  0  0
  4 11  1  0  0  0  0
 11 18  1  0  0  0  0
 12 13  1  0  0  0  0
 13 15  1  0  0  0  0
 14 16  1  0  0  0  0
 14 15  1  0  0  0  0
 16 17  1  0  0  0  0
 17 18  1  0  0  0  0
M  END
> <ID>
2604

> <Formula>
C16H38Br2N2

> <FW>
418.2943 (258.4852+79.9045+79.9045)

> <DSSTox_CID>
2886

> <DSSTox_RID>
76774

> <DSSTox_GSID>
22886

> <DSSTox_FileID_Sort>
1458

> <TS_ChemName>
Decamethonium bromide

> <TS_ChemName_Synonyms>


> <TS_CASRN>
541-22-0

> <CASRN_ChemName_Relationship>
primary

> <TS_Description>
single chemical compound

> <ChemNote>
ammonium

> <STRUCTURE_Shown>
tested chemical

> <STRUCTURE_Formula>
C16H38Br2N2

> <STRUCTURE_MW>
418.2943

> <STRUCTURE_ChemType>
defined organic

> <STRUCTURE_DefinedOrganicForm>
salt

> <STRUCTURE_IUPAC>
N,N,N,N',N',N'-hexamethyldecane-1,10-diaminium dibromide

> <STRUCTURE_SMILES>
[Br-].[Br-].C[N+](C)(C)CCCCCCCCCC[N+](C)(C)C

> <STRUCTURE_SMILES_Desalt>
C[N+](C)(C)CCCCCCCCCC[N+](C)(C)C

> <Substance_modify_yyyymmdd>
20080429

$$$$
