541-59-3
ChemmineR-0915142007XD

  7  7  0  0  0  0  0  0  0  0  1 V2000
    2.3386    0.0000    0.0000 N   0  0  0  0  0  0  0  0  0  0  0  0
    1.2408   -0.7934    0.0000 C   0  0  0  0  0  0  0  0  0  0  0  0
    3.4180   -0.7749    0.0000 C   0  0  0  0  0  0  0  0  0  0  0  0
    2.9844   -2.0665    0.0000 C   0  0  0  0  0  0  0  0  0  0  0  0
    1.6790   -2.0665    0.0000 C   0  0  0  0  0  0  0  0  0  0  0  0
    0.0000   -0.3875    0.0000 O   0  0  0  0  0  0  0  0  0  0  0  0
    4.6126   -0.2445    0.0000 O   0  0  0  0  0  0  0  0  0  0  0  0
  1  2  1  0  0  0  0
  1  3  1  0  0  0  0
  2  5  1  0  0  0  0
  2  6  2  0  0  0  0
  3  4  1  0  0  0  0
  3  7  2  0  0  0  0
  4  5  2  0  0  0  0
M  END
> <ID>
14281

> <Formula>
C4H3NO2

> <FW>
97.0721

> <DSSTox_CID>
29377

> <DSSTox_RID>
83492

> <DSSTox_GSID>
49417

> <DSSTox_FileID_Sort>
8167

> <TS_ChemName>
Maleimide

> <TS_ChemName_Synonyms>


> <TS_CASRN>
541-59-3

> <CASRN_ChemName_Relationship>
primary

> <TS_Description>
single chemical compound

> <ChemNote>


> <STRUCTURE_Shown>
tested chemical

> <STRUCTURE_Formula>
C4H3NO2

> <STRUCTURE_MW>
97.0721

> <STRUCTURE_ChemType>
defined organic

> <STRUCTURE_DefinedOrganicForm>
parent

> <STRUCTURE_IUPAC>
1H-pyrrole-2,5-dione

> <STRUCTURE_SMILES>
O=C1C=CC(=O)N1

> <STRUCTURE_SMILES_Desalt>
O=C1C=CC(=O)N1

> <Substance_modify_yyyymmdd>
20111204

$$$$
