541-69-5
ChemmineR-0915142007XD

 10  8  0  0  0  0  0  0  0  0  1 V2000
    2.3050   -2.6600    0.0000 C    0  0  0  0  0  0  0  0  0  0  0  0
    1.1525   -1.9961    0.0000 C    0  0  0  0  0  0  0  0  0  0  0  0
    1.1525   -0.6684    0.0000 C    0  0  0  0  0  0  0  0  0  0  0  0
    2.3050    0.0000    0.0000 C    0  0  0  0  0  0  0  0  0  0  0  0
    3.4575   -0.6684    0.0000 C    0  0  0  0  0  0  0  0  0  0  0  0
    3.4575   -1.9961    0.0000 C    0  0  0  0  0  0  0  0  0  0  0  0
    4.6100   -2.6600    0.0000 N    0  0  0  0  0  0  0  0  0  0  0  0
    0.0000   -2.6600    0.0000 N    0  0  0  0  0  0  0  0  0  0  0  0
    1.5121   -3.5635    0.0000 Cl   0  0  0  0  0  0  0  0  0  0  0  0
    3.2270   -3.5635    0.0000 Cl   0  0  0  0  0  0  0  0  0  0  0  0
  1  2  2  0  0  0  0
  1  6  1  0  0  0  0
  2  3  1  0  0  0  0
  2  8  1  0  0  0  0
  3  4  2  0  0  0  0
  4  5  1  0  0  0  0
  5  6  2  0  0  0  0
  6  7  1  0  0  0  0
M  END
> <ID>
1095

> <Formula>
C6H10Cl2N2

> <FW>
181.0630 (108.1411+36.4609+36.4609)

> <DSSTox_CID>
1139

> <DSSTox_RID>
75970

> <DSSTox_GSID>
21139

> <DSSTox_FileID_Sort>
654

> <TS_ChemName>
1,3-Benzenediamine dihydrochloride

> <TS_ChemName_Synonyms>


> <TS_CASRN>
541-69-5

> <CASRN_ChemName_Relationship>
primary

> <TS_Description>
single chemical compound

> <ChemNote>
parent [108-45-2]

> <STRUCTURE_Shown>
tested chemical

> <STRUCTURE_Formula>
C6H10Cl2N2

> <STRUCTURE_MW>
181.063

> <STRUCTURE_ChemType>
defined organic

> <STRUCTURE_DefinedOrganicForm>
complex

> <STRUCTURE_IUPAC>
benzene-1,3-diamine dihydrochloride

> <STRUCTURE_SMILES>
Cl.Cl.Nc1cccc(N)c1

> <STRUCTURE_SMILES_Desalt>
Nc1cccc(N)c1

> <Substance_modify_yyyymmdd>
20080429

$$$$
