5412-37-3
ChemmineR-0915142007XD

 33 34  0  0  0  0  0  0  0  0  2 V2000
   18.3988   -0.6808    0.0000 C   0  0  0  0  0  0  0  0  0  0  0  0
   17.2396    0.0000    0.0000 C   0  0  0  0  0  0  0  0  0  0  0  0
   16.0989   -0.6808    0.0000 C   0  0  0  0  0  0  0  0  0  0  0  0
   14.9398    0.0000    0.0000 C   0  0  0  0  0  0  0  0  0  0  0  0
   13.7991   -0.6808    0.0000 C   0  0  0  0  0  0  0  0  0  0  0  0
   12.6583    0.0000    0.0000 C   0  0  0  0  0  0  0  0  0  0  0  0
   11.4992   -0.6808    0.0000 C   0  0  0  0  0  0  0  0  0  0  0  0
   10.3585    0.0000    0.0000 C   0  0  0  0  0  0  0  0  0  0  0  0
    9.1994   -0.6808    0.0000 C   0  0  0  0  0  0  0  0  0  0  0  0
    8.0403    0.0000    0.0000 C   0  0  0  0  0  0  0  0  0  0  0  0
    6.8995   -0.6808    0.0000 C   0  0  0  0  0  0  0  0  0  0  0  0
    5.7404    0.0000    0.0000 C   0  0  0  0  0  0  0  0  0  0  0  0
    4.5997   -0.6808    0.0000 N   0  3  0  0  0  0  0  0  0  0  0  0
    3.4590    0.0000    0.0000 C   0  0  0  0  0  0  0  0  0  0  0  0
    2.2998   -0.6808    0.0000 C   0  0  0  0  0  0  0  0  0  0  0  0
    2.2998   -2.0055    0.0000 C   0  0  0  0  0  0  0  0  0  0  0  0
    1.1591   -2.6678    0.0000 C   0  0  0  0  0  0  0  0  0  0  0  0
    0.0000   -2.0055    0.0000 C   0  0  0  0  0  0  0  0  0  0  0  0
    0.0000   -0.6808    0.0000 C   0  0  0  0  0  0  0  0  0  0  0  0
    1.1591    0.0000    0.0000 C   0  0  0  0  0  0  0  0  0  0  0  0
    3.4590   -2.6678    0.0000 C   0  0  0  0  0  0  0  0  0  0  0  0
    4.5997   -2.0055    0.0000 C   0  0  0  0  0  0  0  0  0  0  0  0
   10.1929   -2.6126    0.0000 C   0  0  0  0  0  0  0  0  0  0  0  0
   10.8553   -3.7533    0.0000 C   0  0  0  0  0  0  0  0  0  0  0  0
   12.1616   -3.7533    0.0000 C   0  0  0  0  0  0  0  0  0  0  0  0
   12.8239   -2.6126    0.0000 C   0  0  0  0  0  0  0  0  0  0  0  0
   12.1432   -1.4535    0.0000 C   0  0  0  0  0  0  0  0  0  0  0  0
   10.8553   -1.4719    0.0000 C   0  0  0  0  0  0  0  0  0  0  0  0
   14.1670   -2.6126    0.0000 C   0  0  0  0  0  0  0  0  0  0  0  0
    8.8498   -2.6126    0.0000 S   0  0  0  0  0  0  0  0  0  0  0  0
    7.5251   -2.5942    0.0000 O   0  5  0  0  0  0  0  0  0  0  0  0
    8.8498   -3.9373    0.0000 O   0  0  0  0  0  0  0  0  0  0  0  0
    8.8682   -1.2879    0.0000 O   0  0  0  0  0  0  0  0  0  0  0  0
  1  2  1  0  0  0  0
  2  3  1  0  0  0  0
  3  4  1  0  0  0  0
  4  5  1  0  0  0  0
  5  6  1  0  0  0  0
  6  7  1  0  0  0  0
  7  8  1  0  0  0  0
  8  9  1  0  0  0  0
  9 10  1  0  0  0  0
 10 11  1  0  0  0  0
 11 12  1  0  0  0  0
 12 13  1  0  0  0  0
 13 14  2  0  0  0  0
 13 22  1  0  0  0  0
 14 15  1  0  0  0  0
 15 16  2  0  0  0  0
 15 20  1  0  0  0  0
 16 17  1  0  0  0  0
 16 21  1  0  0  0  0
 17 18  2  0  0  0  0
 18 19  1  0  0  0  0
 19 20  2  0  0  0  0
 21 22  2  0  0  0  0
 23 28  2  0  0  0  0
 23 24  1  0  0  0  0
 23 30  1  0  0  0  0
 24 25  2  0  0  0  0
 25 26  1  0  0  0  0
 26 29  1  0  0  0  0
 26 27  2  0  0  0  0
 27 28  1  0  0  0  0
 30 31  1  0  0  0  0
 30 32  2  0  0  0  0
 30 33  2  0  0  0  0
M  END
> <ID>
12029

> <Formula>
C28H39NO3S

> <FW>
469.6792 (298.4849+171.1942)

> <DSSTox_CID>
26858

> <DSSTox_RID>
81966

> <DSSTox_GSID>
46858

> <DSSTox_FileID_Sort>
6647

> <TS_ChemName>
2-Dodecylisoquinolinium tosylate

> <TS_ChemName_Synonyms>


> <TS_CASRN>
5412-37-3

> <CASRN_ChemName_Relationship>
primary

> <TS_Description>
single chemical compound

> <ChemNote>
ammonium; parent [16826-19-0]

> <STRUCTURE_Shown>
tested chemical

> <STRUCTURE_Formula>
C28H39NO3S

> <STRUCTURE_MW>
469.6792

> <STRUCTURE_ChemType>
defined organic

> <STRUCTURE_DefinedOrganicForm>
complex

> <STRUCTURE_IUPAC>
2-dodecylisoquinolinium 4-methylbenzenesulfonate

> <STRUCTURE_SMILES>
[O-]S(=O)(=O)c1ccc(C)cc1.CCCCCCCCCCCC[n+]1cc2ccccc2cc1

> <STRUCTURE_SMILES_Desalt>
CCCCCCCCCCCC[n+]1cc2ccccc2cc1

> <Substance_modify_yyyymmdd>
20110729

$$$$
