54143-56-5
ChemmineR-0915142007XD

 32 32  0  0  0  0  0  0  0  0  1 V2000
    5.9884   -5.7629    0.0000 C   0  0  0  0  0  0  0  0  0  0  0  0
    4.6498   -5.7629    0.0000 C   0  0  0  0  0  0  0  0  0  0  0  0
    3.9875   -6.9042    0.0000 N   0  0  0  0  0  0  0  0  0  0  0  0
    2.6631   -6.9042    0.0000 C   0  0  0  0  0  0  0  0  0  0  0  0
    2.0008   -8.0596    0.0000 C   0  0  0  0  0  0  0  0  0  0  0  0
    2.6631   -9.2150    0.0000 C   0  0  0  0  0  0  0  0  0  0  0  0
    2.0008  -10.3704    0.0000 C   0  0  0  0  0  0  0  0  0  0  0  0
    0.6622  -10.3704    0.0000 C   0  0  0  0  0  0  0  0  0  0  0  0
    0.0000   -9.2150    0.0000 C   0  0  0  0  0  0  0  0  0  0  0  0
    0.6622   -8.0596    0.0000 N   0  0  0  0  0  0  0  0  0  0  0  0
    3.9875   -4.6075    0.0000 O   0  0  0  0  0  0  0  0  0  0  0  0
    6.6506   -4.6075    0.0000 C   0  0  0  0  0  0  0  0  0  0  0  0
    7.9751   -4.6075    0.0000 C   0  0  0  0  0  0  0  0  0  0  0  0
    8.6514   -5.7629    0.0000 C   0  0  0  0  0  0  0  0  0  0  0  0
    7.9751   -6.9042    0.0000 C   0  0  0  0  0  0  0  0  0  0  0  0
    6.6506   -6.9042    0.0000 C   0  0  0  0  0  0  0  0  0  0  0  0
    8.6514   -8.0596    0.0000 O   0  0  0  0  0  0  0  0  0  0  0  0
    9.9759   -8.0596    0.0000 C   0  0  0  0  0  0  0  0  0  0  0  0
   10.6381   -9.2150    0.0000 C   0  0  0  0  0  0  0  0  0  0  0  0
   11.7935   -8.5528    0.0000 F   0  0  0  0  0  0  0  0  0  0  0  0
   11.3004  -10.3704    0.0000 F   0  0  0  0  0  0  0  0  0  0  0  0
    9.4827   -9.8773    0.0000 F   0  0  0  0  0  0  0  0  0  0  0  0
    5.9884   -3.4521    0.0000 O   0  0  0  0  0  0  0  0  0  0  0  0
    6.6506   -2.2967    0.0000 C   0  0  0  0  0  0  0  0  0  0  0  0
    5.9884   -1.1554    0.0000 C   0  0  0  0  0  0  0  0  0  0  0  0
    4.8330   -1.8176    0.0000 F   0  0  0  0  0  0  0  0  0  0  0  0
    5.3261    0.0000    0.0000 F   0  0  0  0  0  0  0  0  0  0  0  0
    7.1438   -0.4932    0.0000 F   0  0  0  0  0  0  0  0  0  0  0  0
    6.7774  -11.7935    0.0000 C   0  0  0  0  0  0  0  0  0  0  0  0
    6.1152  -12.9349    0.0000 C   0  0  0  0  0  0  0  0  0  0  0  0
    6.7774  -14.0903    0.0000 O   0  0  0  0  0  0  0  0  0  0  0  0
    4.7907  -12.9349    0.0000 O   0  0  0  0  0  0  0  0  0  0  0  0
  1  2  1  0  0  0  0
  1 12  2  0  0  0  0
  1 16  1  0  0  0  0
  2  3  1  0  0  0  0
  2 11  2  0  0  0  0
  3  4  1  0  0  0  0
  4  5  1  0  0  0  0
  5  6  1  0  0  0  0
  5 10  1  0  0  0  0
  6  7  1  0  0  0  0
  7  8  1  0  0  0  0
  8  9  1  0  0  0  0
  9 10  1  0  0  0  0
 12 13  1  0  0  0  0
 12 23  1  0  0  0  0
 13 14  2  0  0  0  0
 14 15  1  0  0  0  0
 15 16  2  0  0  0  0
 15 17  1  0  0  0  0
 17 18  1  0  0  0  0
 18 19  1  0  0  0  0
 19 20  1  0  0  0  0
 19 21  1  0  0  0  0
 19 22  1  0  0  0  0
 23 24  1  0  0  0  0
 24 25  1  0  0  0  0
 25 26  1  0  0  0  0
 25 27  1  0  0  0  0
 25 28  1  0  0  0  0
 29 30  1  0  0  0  0
 30 31  2  0  0  0  0
 30 32  1  0  0  0  0
M  END
> <ID>
601

> <Formula>
C19H24F6N2O5

> <FW>
474.3947 (414.3427+60.0520)

> <DSSTox_CID>
626

> <DSSTox_RID>
75700

> <DSSTox_GSID>
20626

> <DSSTox_FileID_Sort>
384

> <TS_ChemName>
Flecainide acetate

> <TS_ChemName_Synonyms>


> <TS_CASRN>
54143-56-5

> <CASRN_ChemName_Relationship>
primary

> <TS_Description>
single chemical compound

> <ChemNote>
parent [54143-55-4]

> <STRUCTURE_Shown>
tested chemical

> <STRUCTURE_Formula>
C19H24F6N2O5

> <STRUCTURE_MW>
474.3947

> <STRUCTURE_ChemType>
defined organic

> <STRUCTURE_DefinedOrganicForm>
complex

> <STRUCTURE_IUPAC>
N-(piperidin-2-ylmethyl)-2,5-bis(2,2,2-trifluoroethoxy)benzamide acetate (1:1)

> <STRUCTURE_SMILES>
CC(=O)O.FC(F)(F)COc2cc(C(=O)NCC1CCCCN1)c(OCC(F)(F)F)cc2

> <STRUCTURE_SMILES_Desalt>
FC(F)(F)COc2cc(C(=O)NCC1CCCCN1)c(OCC(F)(F)F)cc2

> <Substance_modify_yyyymmdd>
20080429

$$$$
