54182-58-0
ChemmineR-0915142007XD

111108  0  0  1  0  0  0  0  0  1 V2000
    2.5425   -2.2002    0.0000 O    0  0  0  0  0  0  0  0  0  0  0  0
    2.5425    0.0000    0.0000 O    0  0  0  0  0  0  0  0  0  0  0  0
    0.0000   -2.2002    0.0000 O    0  0  0  0  0  0  0  0  0  0  0  0
    0.0000    0.0000    0.0000 O    0  0  0  0  0  0  0  0  0  0  0  0
    1.9069   -1.1001    0.0000 Al   0  0  0  0  0  0  0  0  0  0  0  0
    0.6356   -1.1001    0.0000 Al   0  0  0  0  0  0  0  0  0  0  0  0
   17.1375  -18.0420    0.0000 O    0  0  0  0  0  0  0  0  0  0  0  0
   17.3820  -15.8418    0.0000 O    0  0  0  0  0  0  0  0  0  0  0  0
   16.6241  -16.8686    0.0000 Al   0  0  0  0  0  0  0  0  0  0  0  0
   12.1992  -15.2062    0.0000 O    0  0  0  0  0  0  0  0  0  0  0  0
   10.2678  -16.2818    0.0000 O    0  0  0  0  0  0  0  0  0  0  0  0
   10.9279  -15.1817    0.0000 Al   0  0  0  0  0  0  0  0  0  0  0  0
   19.5333  -11.2946    0.0000 O    0  0  0  0  0  0  0  0  0  0  0  0
   21.0491  -12.9081    0.0000 O    0  0  0  0  0  0  0  0  0  0  0  0
   19.8267  -12.5414    0.0000 Al   0  0  0  0  0  0  0  0  0  0  0  0
   16.6241   -5.5740    0.0000 O    0  0  0  0  0  0  0  0  0  0  0  0
   16.4530   -3.3737    0.0000 O    0  0  0  0  0  0  0  0  0  0  0  0
   15.8907   -4.5227    0.0000 Al   0  0  0  0  0  0  0  0  0  0  0  0
    8.4343   -1.9313    0.0000 O    0  0  0  0  0  0  0  0  0  0  0  0
    6.3074   -2.5425    0.0000 O    0  0  0  0  0  0  0  0  0  0  0  0
    7.5542   -2.8359    0.0000 Al   0  0  0  0  0  0  0  0  0  0  0  0
    4.9139  -14.2283    0.0000 O    0  0  0  0  0  0  0  0  0  0  0  0
    5.0117  -12.0036    0.0000 O    0  0  0  0  0  0  0  0  0  0  0  0
    5.5984  -13.1282    0.0000 Al   0  0  0  0  0  0  0  0  0  0  0  0
    3.3004   -8.3854    0.0000 O    0  0  0  0  0  0  0  0  0  0  0  0
    4.6205   -6.6252    0.0000 O    0  0  0  0  0  0  0  0  0  0  0  0
    4.4494   -7.8720    0.0000 Al   0  0  0  0  0  0  0  0  0  0  0  0
   14.6194   -4.6205    0.0000 O    0  0  0  0  0  0  0  0  0  0  0  0
    7.9209   -4.0582    0.0000 O    0  0  0  0  0  0  0  0  0  0  0  0
    6.8697  -13.2015    0.0000 O    0  0  0  0  0  0  0  0  0  0  0  0
   13.1282   -9.0455    0.0000 O    0  0  0  0  0  0  0  0  0  0  0  0
   14.3016   -9.7300    0.0000 C    0  0  0  0  0  0  0  0  0  0  0  0
   15.5973  -10.0234    0.0000 C    0  0  0  0  0  0  0  0  0  0  0  0
   15.8907   -8.7032    0.0000 H    0  0  0  0  0  0  0  0  0  0  0  0
   15.7440  -11.3680    0.0000 C    0  0  0  0  0  0  0  0  0  0  0  0
   17.1131  -11.2457    0.0000 H    0  0  0  0  0  0  0  0  0  0  0  0
   16.3063  -12.5903    0.0000 O    0  0  0  0  0  0  0  0  0  0  0  0
   17.5775  -12.9815    0.0000 S    0  0  0  0  0  0  0  0  0  0  0  0
   18.8977  -13.3971    0.0000 O    0  0  0  0  0  0  0  0  0  0  0  0
   17.9687  -11.6613    0.0000 O    0  0  0  0  0  0  0  0  0  0  0  0
   17.2353  -14.2772    0.0000 O    0  0  0  0  0  0  0  0  0  0  0  0
   14.5216  -11.9058    0.0000 C    0  0  0  0  0  0  0  0  0  0  0  0
   13.5193  -12.8103    0.0000 H    0  0  0  0  0  0  0  0  0  0  0  0
   13.6171  -10.9279    0.0000 O    0  0  0  0  0  0  0  0  0  0  0  0
   15.0595  -13.1526    0.0000 C    0  0  0  0  0  0  0  0  0  0  0  0
   14.2527  -14.2527    0.0000 O    0  0  0  0  0  0  0  0  0  0  0  0
   14.8150  -15.4995    0.0000 S    0  0  0  0  0  0  0  0  0  0  0  0
   15.3529  -16.7463    0.0000 O    0  0  0  0  0  0  0  0  0  0  0  0
   13.5682  -16.0374    0.0000 O    0  0  0  0  0  0  0  0  0  0  0  0
   16.0374  -14.9372    0.0000 O    0  0  0  0  0  0  0  0  0  0  0  0
   16.9664   -9.8767    0.0000 O    0  0  0  0  0  0  0  0  0  0  0  0
   17.7242   -8.8010    0.0000 S    0  0  0  0  0  0  0  0  0  0  0  0
   18.5065   -7.6520    0.0000 O    0  0  0  0  0  0  0  0  0  0  0  0
   18.8488   -9.5344    0.0000 O    0  0  0  0  0  0  0  0  0  0  0  0
   16.5752   -8.0187    0.0000 O    0  0  0  0  0  0  0  0  0  0  0  0
   14.5950   -8.4098    0.0000 C    0  0  0  0  0  0  0  0  0  0  0  0
   13.5682   -7.5053    0.0000 O    0  0  0  0  0  0  0  0  0  0  0  0
   13.8860   -6.1851    0.0000 S    0  0  0  0  0  0  0  0  0  0  0  0
   12.5414   -5.8918    0.0000 O    0  0  0  0  0  0  0  0  0  0  0  0
   15.2062   -6.4541    0.0000 O    0  0  0  0  0  0  0  0  0  0  0  0
   11.8569   -9.5100    0.0000 C    0  0  0  0  0  0  0  0  0  0  0  0
   12.8837  -10.3901    0.0000 H    0  0  0  0  0  0  0  0  0  0  0  0
   10.9768  -10.5612    0.0000 C    0  0  0  0  0  0  0  0  0  0  0  0
   10.7568  -11.9058    0.0000 H    0  0  0  0  0  0  0  0  0  0  0  0
    9.6322  -10.3167    0.0000 C    0  0  0  0  0  0  0  0  0  0  0  0
    9.1677  -11.5880    0.0000 H    0  0  0  0  0  0  0  0  0  0  0  0
    9.1677   -9.0210    0.0000 C    0  0  0  0  0  0  0  0  0  0  0  0
    7.9209   -9.4855    0.0000 H    0  0  0  0  0  0  0  0  0  0  0  0
    8.1409   -8.1654    0.0000 O    0  0  0  0  0  0  0  0  0  0  0  0
    6.8208   -8.3854    0.0000 S    0  0  0  0  0  0  0  0  0  0  0  0
    5.4762   -8.6299    0.0000 O    0  0  0  0  0  0  0  0  0  0  0  0
    6.6007   -7.0408    0.0000 O    0  0  0  0  0  0  0  0  0  0  0  0
    7.0408   -9.7300    0.0000 O    0  0  0  0  0  0  0  0  0  0  0  0
   10.0478   -8.0187    0.0000 C    0  0  0  0  0  0  0  0  0  0  0  0
    9.0210   -7.1141    0.0000 H    0  0  0  0  0  0  0  0  0  0  0  0
   11.4169   -8.2387    0.0000 O    0  0  0  0  0  0  0  0  0  0  0  0
   10.3167   -6.6741    0.0000 C    0  0  0  0  0  0  0  0  0  0  0  0
    9.2655   -5.7940    0.0000 O    0  0  0  0  0  0  0  0  0  0  0  0
    9.5100   -4.4494    0.0000 S    0  0  0  0  0  0  0  0  0  0  0  0
    9.7300   -3.1292    0.0000 O    0  0  0  0  0  0  0  0  0  0  0  0
   10.8301   -4.6939    0.0000 O    0  0  0  0  0  0  0  0  0  0  0  0
    8.3854  -10.7812    0.0000 O    0  0  0  0  0  0  0  0  0  0  0  0
    7.7009  -11.9302    0.0000 S    0  0  0  0  0  0  0  0  0  0  0  0
    6.5274  -11.2702    0.0000 O    0  0  0  0  0  0  0  0  0  0  0  0
    8.8499  -12.6392    0.0000 O    0  0  0  0  0  0  0  0  0  0  0  0
   11.6613  -11.7102    0.0000 O    0  0  0  0  0  0  0  0  0  0  0  0
   10.9768  -12.8837    0.0000 S    0  0  0  0  0  0  0  0  0  0  0  0
   10.2923  -14.0571    0.0000 O    0  0  0  0  0  0  0  0  0  0  0  0
   12.1503  -13.5682    0.0000 O    0  0  0  0  0  0  0  0  0  0  0  0
    9.8278  -12.2236    0.0000 O    0  0  0  0  0  0  0  0  0  0  0  0
   20.3401   -8.8743    0.0000 O    0  0  0  0  0  0  0  0  0  0  0  0
   20.4868   -6.6741    0.0000 O    0  0  0  0  0  0  0  0  0  0  0  0
   19.7778   -7.7253    0.0000 Al   0  0  0  0  0  0  0  0  0  0  0  0
   24.4472  -17.8465    0.0000 O    0  0  0  0  0  0  0  0  0  0  0  0
   24.4472  -15.6462    0.0000 O    0  0  0  0  0  0  0  0  0  0  0  0
   21.9047  -15.6462    0.0000 O    0  0  0  0  0  0  0  0  0  0  0  0
   21.9047  -17.8465    0.0000 O    0  0  0  0  0  0  0  0  0  0  0  0
   23.8116  -16.7463    0.0000 Al   0  0  0  0  0  0  0  0  0  0  0  0
   22.5403  -16.7463    0.0000 Al   0  0  0  0  0  0  0  0  0  0  0  0
    6.9675  -15.7196    0.0000 O    0  0  0  0  0  0  0  0  0  0  0  0
    6.9675  -17.9198    0.0000 O    0  0  0  0  0  0  0  0  0  0  0  0
    4.4005  -15.7196    0.0000 O    0  0  0  0  0  0  0  0  0  0  0  0
    4.4005  -17.9198    0.0000 O    0  0  0  0  0  0  0  0  0  0  0  0
    6.3318  -16.8441    0.0000 Al   0  0  0  0  0  0  0  0  0  0  0  0
    5.0606  -16.8441    0.0000 Al   0  0  0  0  0  0  0  0  0  0  0  0
   22.7359   -2.2491    0.0000 O    0  0  0  0  0  0  0  0  0  0  0  0
   22.7359   -0.0244    0.0000 O    0  0  0  0  0  0  0  0  0  0  0  0
   20.1934   -2.2491    0.0000 O    0  0  0  0  0  0  0  0  0  0  0  0
   20.1934   -0.0244    0.0000 O    0  0  0  0  0  0  0  0  0  0  0  0
   22.1003   -1.1490    0.0000 Al   0  0  0  0  0  0  0  0  0  0  0  0
   20.8290   -1.1490    0.0000 Al   0  0  0  0  0  0  0  0  0  0  0  0
  1  5  1  0  0  0  0
  2  5  1  0  0  0  0
  3  6  1  0  0  0  0
  4  6  1  0  0  0  0
  5  6  1  0  0  0  0
  7  9  1  0  0  0  0
  8  9  1  0  0  0  0
  9 48  1  0  0  0  0
 10 12  1  0  0  0  0
 11 12  1  0  0  0  0
 12 88  1  0  0  0  0
 13 15  1  0  0  0  0
 14 15  1  0  0  0  0
 15 39  1  0  0  0  0
 16 18  1  0  0  0  0
 17 18  1  0  0  0  0
 18 28  1  0  0  0  0
 19 21  1  0  0  0  0
 20 21  1  0  0  0  0
 21 29  1  0  0  0  0
 22 24  1  0  0  0  0
 23 24  1  0  0  0  0
 24 30  1  0  0  0  0
 25 27  1  0  0  0  0
 26 27  1  0  0  0  0
 27 71  1  0  0  0  0
 28 58  1  0  0  0  0
 29 79  1  0  0  0  0
 30 83  1  0  0  0  0
 32 31  1  1  0  0  0
 61 31  1  6  0  0  0
 32 33  1  0  0  0  0
 32 44  1  0  0  0  0
 32 56  1  0  0  0  0
 33 34  1  0  0  0  0
 33 35  1  0  0  0  0
 33 51  1  1  0  0  0
 35 36  1  0  0  0  0
 35 37  1  6  0  0  0
 35 42  1  0  0  0  0
 37 38  1  0  0  0  0
 38 39  1  0  0  0  0
 38 40  2  0  0  0  0
 38 41  2  0  0  0  0
 42 43  1  0  0  0  0
 42 44  1  0  0  0  0
 42 45  1  1  0  0  0
 45 46  1  0  0  0  0
 46 47  1  0  0  0  0
 47 48  1  0  0  0  0
 47 49  2  0  0  0  0
 47 50  2  0  0  0  0
 51 52  1  0  0  0  0
 52 53  1  0  0  0  0
 52 54  2  0  0  0  0
 52 55  2  0  0  0  0
 53 93  1  0  0  0  0
 56 57  1  0  0  0  0
 57 58  1  0  0  0  0
 58 59  2  0  0  0  0
 58 60  2  0  0  0  0
 61 62  1  0  0  0  0
 61 63  1  0  0  0  0
 61 76  1  0  0  0  0
 63 64  1  1  0  0  0
 63 65  1  0  0  0  0
 63 86  1  0  0  0  0
 65 66  1  6  0  0  0
 65 67  1  0  0  0  0
 65 82  1  0  0  0  0
 67 68  1  1  0  0  0
 67 69  1  0  0  0  0
 67 74  1  0  0  0  0
 69 70  1  0  0  0  0
 70 71  1  0  0  0  0
 70 72  2  0  0  0  0
 70 73  2  0  0  0  0
 74 75  1  6  0  0  0
 74 76  1  0  0  0  0
 74 77  1  0  0  0  0
 77 78  1  0  0  0  0
 78 79  1  0  0  0  0
 79 80  2  0  0  0  0
 79 81  2  0  0  0  0
 82 83  1  0  0  0  0
 83 84  2  0  0  0  0
 83 85  2  0  0  0  0
 86 87  1  0  0  0  0
 87 88  1  0  0  0  0
 87 89  2  0  0  0  0
 87 90  2  0  0  0  0
 91 93  1  0  0  0  0
 92 93  1  0  0  0  0
 94 98  1  0  0  0  0
 95 98  1  0  0  0  0
 96 99  1  0  0  0  0
 97 99  1  0  0  0  0
 98 99  1  0  0  0  0
100104  1  0  0  0  0
101104  1  0  0  0  0
102105  1  0  0  0  0
103105  1  0  0  0  0
104105  1  0  0  0  0
106110  1  0  0  0  0
107110  1  0  0  0  0
108111  1  0  0  0  0
109111  1  0  0  0  0
110111  1  0  0  0  0
M  END
> <ID>
13954

> <Formula>
C12H46Al16O67S8

> <FW>
1950.6781 (121.9924+1462.7083+121.9924+121.9924+121.9924)

> <DSSTox_CID>
28892

> <DSSTox_RID>
83160

> <DSSTox_GSID>
48966

> <DSSTox_FileID_Sort>
7837

> <TS_ChemName>
Sucrose octasulfate-aluminum complex

> <TS_ChemName_Synonyms>


> <TS_CASRN>
54182-58-0

> <CASRN_ChemName_Relationship>
primary

> <TS_Description>
single chemical compound

> <ChemNote>


> <STRUCTURE_Shown>
tested chemical

> <STRUCTURE_Formula>
C12H46Al16O67S8

> <STRUCTURE_MW>
1950.6781

> <STRUCTURE_ChemType>
organometallic

> <STRUCTURE_DefinedOrganicForm>


> <STRUCTURE_IUPAC>
[(2R,3R,4S,5R,6R)-2-[(2R,3R,4S,5S)-3,4-bis(gamma1-alumanyloxysulfonyloxy)-2,5-bis(gamma1-alumanyloxysulfonyloxymethyl)oxolan-2-yl]oxy-3,5-bis(gamma1-alumanyloxysulfonyloxy)-6-(gamma1-alumanyloxysulfonyloxymethyl)oxan-4-yl]oxysulfonyloxyaluminum

> <STRUCTURE_SMILES>
O[Al](O)[Al](O)O.O[Al](O)[Al](O)O.O[Al](O)[Al](O)O.O[Al](O)[Al](O)O.O[Al](O)OS(=O)(=O)O[C@H]1[C@H](O[C@H](COS(=O)(=O)O[Al](O)O)[C@@H](OS(=O)(=O)O[Al](O)O)[C@@H]1OS(=O)(=O)O[Al](O)O)O[C@]2(COS(=O)(=O)O[Al](O)O)O[C@H](COS(=O)(=O)O[Al](O)O)[C@@H](OS(=O)(=O)O

> <STRUCTURE_SMILES_Desalt>
O[Al](O)OS(=O)(=O)O[C@H]1[C@H](O[C@H](COS(=O)(=O)O[Al](O)O)[C@@H](OS(=O)(=O)O[Al](O)O)[C@@H]1OS(=O)(=O)O[Al](O)O)O[C@]2(COS(=O)(=O)O[Al](O)O)O[C@H](COS(=O)(=O)O[Al](O)O)[C@@H](OS(=O)(=O)O[Al](O)O)[C@@H]2OS(=O)(=O)O[Al](O)O

> <Substance_modify_yyyymmdd>
20111204

$$$$
