54187-04-1
ChemmineR-0915142007XD

 13 15  0  0  0  0  0  0  0  0  1 V2000
    4.8124   -3.0688    0.0000 C   0  0  0  0  0  0  0  0  0  0  0  0
    2.5596   -2.5596    0.0000 C   0  0  0  0  0  0  0  0  0  0  0  0
    1.2973   -2.9572    0.0000 C   0  0  0  0  0  0  0  0  0  0  0  0
    2.8665   -1.2763    0.0000 C   0  0  0  0  0  0  0  0  0  0  0  0
    3.5361   -3.4663    0.0000 N   0  0  0  0  0  0  0  0  0  0  0  0
    5.2309   -1.8203    0.0000 N   0  0  0  0  0  0  0  0  0  0  0  0
    0.3836   -3.9336    0.0000 C   0  0  0  0  0  0  0  0  0  0  0  0
    2.4480    0.0000    0.0000 C   0  0  0  0  0  0  0  0  0  0  0  0
    0.0000   -2.6712    0.0000 C   0  0  0  0  0  0  0  0  0  0  0  0
    3.7592   -0.2860    0.0000 C   0  0  0  0  0  0  0  0  0  0  0  0
    5.8865   -3.8569    0.0000 O   0  0  0  0  0  0  0  0  0  0  0  0
    6.5560   -1.8203    0.0000 C   0  0  0  0  0  0  0  0  0  0  0  0
    6.9745   -3.0688    0.0000 C   0  0  0  0  0  0  0  0  0  0  0  0
  1  5  1  0  0  0  0
  1  6  2  0  0  0  0
  1 11  1  0  0  0  0
  2  5  1  0  0  0  0
  2  3  1  0  0  0  0
  2  4  1  0  0  0  0
  3  7  1  0  0  0  0
  3  9  1  0  0  0  0
  4  8  1  0  0  0  0
  4 10  1  0  0  0  0
  6 12  1  0  0  0  0
  7  9  1  0  0  0  0
  8 10  1  0  0  0  0
 11 13  1  0  0  0  0
 12 13  1  0  0  0  0
M  END
> <ID>
10811

> <Formula>
C10H16N2O

> <FW>
180.2468

> <DSSTox_CID>
25194

> <DSSTox_RID>
80741

> <DSSTox_GSID>
45194

> <DSSTox_FileID_Sort>
5422

> <TS_ChemName>
Rilmenidine

> <TS_ChemName_Synonyms>


> <TS_CASRN>
54187-04-1

> <CASRN_ChemName_Relationship>
primary

> <TS_Description>
single chemical compound

> <ChemNote>
tautomers

> <STRUCTURE_Shown>
tested chemical

> <STRUCTURE_Formula>
C10H16N2O

> <STRUCTURE_MW>
180.2468

> <STRUCTURE_ChemType>
defined organic

> <STRUCTURE_DefinedOrganicForm>
parent

> <STRUCTURE_IUPAC>
N-(dicyclopropylmethyl)-4,5-dihydro-1,3-oxazol-2-amine

> <STRUCTURE_SMILES>
C1CC1C(NC2=NCCO2)C3CC3

> <STRUCTURE_SMILES_Desalt>
C1CC1C(NC2=NCCO2)C3CC3

> <Substance_modify_yyyymmdd>
20100107

$$$$
