5419-55-6
ChemmineR-0915142007XD

 13 12  0  0  0  0  0  0  0  0  1 V2000
    3.3135   -2.3046    0.0000 B   0  0  0  0  0  0  0  0  0  0  0  0
    1.9822   -2.3046    0.0000 O   0  0  0  0  0  0  0  0  0  0  0  0
    3.9882   -1.1523    0.0000 O   0  0  0  0  0  0  0  0  0  0  0  0
    3.9882   -3.4568    0.0000 O   0  0  0  0  0  0  0  0  0  0  0  0
    1.2956   -1.1523    0.0000 C   0  0  0  0  0  0  0  0  0  0  0  0
    0.0000   -1.1523    0.0000 C   0  0  0  0  0  0  0  0  0  0  0  0
    1.9822    0.0000    0.0000 C   0  0  0  0  0  0  0  0  0  0  0  0
    5.2957   -1.1523    0.0000 C   0  0  0  0  0  0  0  0  0  0  0  0
    5.9703    0.0000    0.0000 C   0  0  0  0  0  0  0  0  0  0  0  0
    5.9703   -2.3046    0.0000 C   0  0  0  0  0  0  0  0  0  0  0  0
    3.3135   -4.6091    0.0000 C   0  0  0  0  0  0  0  0  0  0  0  0
    3.9882   -5.7614    0.0000 C   0  0  0  0  0  0  0  0  0  0  0  0
    1.9822   -4.6091    0.0000 C   0  0  0  0  0  0  0  0  0  0  0  0
  1  2  1  0  0  0  0
  1  3  1  0  0  0  0
  1  4  1  0  0  0  0
  2  5  1  0  0  0  0
  3  8  1  0  0  0  0
  4 11  1  0  0  0  0
  5  6  1  0  0  0  0
  5  7  1  0  0  0  0
  8  9  1  0  0  0  0
  8 10  1  0  0  0  0
 11 12  1  0  0  0  0
 11 13  1  0  0  0  0
M  END
> <ID>
5280

> <Formula>
C9H21BO3

> <FW>
188.0722

> <DSSTox_CID>
7598

> <DSSTox_RID>
78523

> <DSSTox_GSID>
27598

> <DSSTox_FileID_Sort>
3206

> <TS_ChemName>
Triisopropyl orthoborate

> <TS_ChemName_Synonyms>
Triisopropyl orthoborate (Boric acid (H3BO3), tris(1-methylethyl) ester)

> <TS_CASRN>
5419-55-6

> <CASRN_ChemName_Relationship>
primary

> <TS_Description>
single chemical compound

> <ChemNote>


> <STRUCTURE_Shown>
tested chemical

> <STRUCTURE_Formula>
C9H21BO3

> <STRUCTURE_MW>
188.0722

> <STRUCTURE_ChemType>
organometallic

> <STRUCTURE_DefinedOrganicForm>


> <STRUCTURE_IUPAC>
tripropan-2-yl borate

> <STRUCTURE_SMILES>
CC(C)OB(OC(C)C)OC(C)C

> <STRUCTURE_SMILES_Desalt>
CC(C)OB(OC(C)C)OC(C)C

> <Substance_modify_yyyymmdd>
20080429

$$$$
