542-02-9
ChemmineR-0915142007XD

  9  9  0  0  0  0  0  0  0  0  1 V2000
    1.9995   -1.1518    0.0000 N   0  0  0  0  0  0  0  0  0  0  0  0
    2.6538   -2.3036    0.0000 C   0  0  0  0  0  0  0  0  0  0  0  0
    1.9995   -3.4554    0.0000 N   0  0  0  0  0  0  0  0  0  0  0  0
    0.6542   -3.4554    0.0000 C   0  0  0  0  0  0  0  0  0  0  0  0
    0.0000   -2.3036    0.0000 N   0  0  0  0  0  0  0  0  0  0  0  0
    0.6542   -1.1518    0.0000 C   0  0  0  0  0  0  0  0  0  0  0  0
    3.9853   -2.3036    0.0000 N   0  0  0  0  0  0  0  0  0  0  0  0
    0.0000   -4.6072    0.0000 N   0  0  0  0  0  0  0  0  0  0  0  0
    0.0000    0.0000    0.0000 C   0  0  0  0  0  0  0  0  0  0  0  0
  1  2  2  0  0  0  0
  1  6  1  0  0  0  0
  2  3  1  0  0  0  0
  2  7  1  0  0  0  0
  3  4  2  0  0  0  0
  4  5  1  0  0  0  0
  4  8  1  0  0  0  0
  5  6  2  0  0  0  0
  6  9  1  0  0  0  0
M  END
> <ID>
5840

> <Formula>
C4H7N5

> <FW>
125.1319

> <DSSTox_CID>
9186

> <DSSTox_RID>
78700

> <DSSTox_GSID>
29186

> <DSSTox_FileID_Sort>
3382

> <TS_ChemName>
6-Methyl-1,3,5-triazine-2,4-diamine

> <TS_ChemName_Synonyms>


> <TS_CASRN>
542-02-9

> <CASRN_ChemName_Relationship>
primary

> <TS_Description>
single chemical compound

> <ChemNote>


> <STRUCTURE_Shown>
tested chemical

> <STRUCTURE_Formula>
C4H7N5

> <STRUCTURE_MW>
125.1319

> <STRUCTURE_ChemType>
defined organic

> <STRUCTURE_DefinedOrganicForm>
parent

> <STRUCTURE_IUPAC>
6-methyl-1,3,5-triazine-2,4-diamine

> <STRUCTURE_SMILES>
Nc1nc(C)nc(N)n1

> <STRUCTURE_SMILES_Desalt>
Nc1nc(C)nc(N)n1

> <Substance_modify_yyyymmdd>
20080429

$$$$
