542-10-9
ChemmineR-0915142007XD

 10  9  0  0  0  0  0  0  0  0  1 V2000
    3.4406   -1.3307    0.0000 C   0  0  0  0  0  0  0  0  0  0  0  0
    3.4406    0.0000    0.0000 C   0  0  0  0  0  0  0  0  0  0  0  0
    2.2891   -1.9996    0.0000 O   0  0  0  0  0  0  0  0  0  0  0  0
    4.5921   -1.9996    0.0000 O   0  0  0  0  0  0  0  0  0  0  0  0
    1.1515   -1.3307    0.0000 C   0  0  0  0  0  0  0  0  0  0  0  0
    1.1515    0.0000    0.0000 O   0  0  0  0  0  0  0  0  0  0  0  0
    0.0000   -1.9996    0.0000 C   0  0  0  0  0  0  0  0  0  0  0  0
    5.7436   -1.3307    0.0000 C   0  0  0  0  0  0  0  0  0  0  0  0
    5.7436    0.0000    0.0000 O   0  0  0  0  0  0  0  0  0  0  0  0
    6.8950   -1.9996    0.0000 C   0  0  0  0  0  0  0  0  0  0  0  0
  1  2  1  0  0  0  0
  1  3  1  0  0  0  0
  1  4  1  0  0  0  0
  3  5  1  0  0  0  0
  4  8  1  0  0  0  0
  5  6  2  0  0  0  0
  5  7  1  0  0  0  0
  8  9  2  0  0  0  0
  8 10  1  0  0  0  0
M  END
> <ID>
4981

> <Formula>
C6H10O4

> <FW>
146.1412

> <DSSTox_CID>
7188

> <DSSTox_RID>
78341

> <DSSTox_GSID>
27188

> <DSSTox_FileID_Sort>
3024

> <TS_ChemName>
1,1-Ethanediol diacetate

> <TS_ChemName_Synonyms>


> <TS_CASRN>
542-10-9

> <CASRN_ChemName_Relationship>
primary

> <TS_Description>
single chemical compound

> <ChemNote>


> <STRUCTURE_Shown>
tested chemical

> <STRUCTURE_Formula>
C6H10O4

> <STRUCTURE_MW>
146.1412

> <STRUCTURE_ChemType>
defined organic

> <STRUCTURE_DefinedOrganicForm>
parent

> <STRUCTURE_IUPAC>
ethane-1,1-diyl diacetate

> <STRUCTURE_SMILES>
CC(=O)OC(C)OC(=O)C

> <STRUCTURE_SMILES_Desalt>
CC(=O)OC(C)OC(=O)C

> <Substance_modify_yyyymmdd>
20080429

$$$$
