542-88-1
ChemmineR-0915142007XD

  5  4  0  0  0  0  0  0  0  0  1 V2000
    0.0000   -0.6638    0.0000 Cl   0  0  0  0  0  0  0  0  0  0  0  0
    1.1525    0.0000    0.0000 C    0  0  0  0  0  0  0  0  0  0  0  0
    2.3050   -0.6638    0.0000 O    0  0  0  0  0  0  0  0  0  0  0  0
    3.4575    0.0000    0.0000 C    0  0  0  0  0  0  0  0  0  0  0  0
    4.6099   -0.6638    0.0000 Cl   0  0  0  0  0  0  0  0  0  0  0  0
  1  2  1  0  0  0  0
  2  3  1  0  0  0  0
  3  4  1  0  0  0  0
  4  5  1  0  0  0  0
M  END
> <ID>
170

> <Formula>
C2H4Cl2O

> <FW>
114.9586

> <DSSTox_CID>
173

> <DSSTox_RID>
75416

> <DSSTox_GSID>
20173

> <DSSTox_FileID_Sort>
100

> <TS_ChemName>
Bis(chloromethyl) ether

> <TS_ChemName_Synonyms>
bis(Chloromethyl) ether (BCME)

> <TS_CASRN>
542-88-1

> <CASRN_ChemName_Relationship>
primary

> <TS_Description>
single chemical compound

> <ChemNote>


> <STRUCTURE_Shown>
tested chemical

> <STRUCTURE_Formula>
C2H4Cl2O

> <STRUCTURE_MW>
114.9586

> <STRUCTURE_ChemType>
defined organic

> <STRUCTURE_DefinedOrganicForm>
parent

> <STRUCTURE_IUPAC>
bis(chloromethyl) ether

> <STRUCTURE_SMILES>
ClCOCCl

> <STRUCTURE_SMILES_Desalt>
ClCOCCl

> <Substance_modify_yyyymmdd>
20080429

$$$$
