542-76-7
ChemmineR-0915142007XD

  5  4  0  0  0  0  0  0  0  0  1 V2000
    3.3210   -1.1535    0.0000 C    0  0  0  0  0  0  0  0  0  0  0  0
    4.6513   -1.1535    0.0000 N    0  0  0  0  0  0  0  0  0  0  0  0
    1.9907   -1.1535    0.0000 C    0  0  0  0  0  0  0  0  0  0  0  0
    1.3303    0.0000    0.0000 C    0  0  0  0  0  0  0  0  0  0  0  0
    0.0000    0.0000    0.0000 Cl   0  0  0  0  0  0  0  0  0  0  0  0
  1  2  3  0  0  0  0
  1  3  1  0  0  0  0
  3  4  1  0  0  0  0
  4  5  1  0  0  0  0
M  END
> <ID>
6268

> <Formula>
C3H4ClN

> <FW>
89.5236

> <DSSTox_CID>
10336

> <DSSTox_RID>
78845

> <DSSTox_GSID>
30336

> <DSSTox_FileID_Sort>
3527

> <TS_ChemName>
3-Chloropropionitrile

> <TS_ChemName_Synonyms>


> <TS_CASRN>
542-76-7

> <CASRN_ChemName_Relationship>
primary

> <TS_Description>
single chemical compound

> <ChemNote>


> <STRUCTURE_Shown>
tested chemical

> <STRUCTURE_Formula>
C3H4ClN

> <STRUCTURE_MW>
89.5236

> <STRUCTURE_ChemType>
defined organic

> <STRUCTURE_DefinedOrganicForm>
parent

> <STRUCTURE_IUPAC>
3-chloropropanenitrile

> <STRUCTURE_SMILES>
ClCCC#N

> <STRUCTURE_SMILES_Desalt>
ClCCC#N

> <Substance_modify_yyyymmdd>
20080429

$$$$
