542-28-9
ChemmineR-0915142007XD

  7  7  0  0  0  0  0  0  0  0  1 V2000
    2.3049   -0.6738    0.0000 C   0  0  0  0  0  0  0  0  0  0  0  0
    2.3049   -2.0008    0.0000 C   0  0  0  0  0  0  0  0  0  0  0  0
    1.1507    0.0000    0.0000 O   0  0  0  0  0  0  0  0  0  0  0  0
    1.1507   -2.6573    0.0000 C   0  0  0  0  0  0  0  0  0  0  0  0
    0.0000   -0.6738    0.0000 C   0  0  0  0  0  0  0  0  0  0  0  0
    0.0000   -2.0008    0.0000 C   0  0  0  0  0  0  0  0  0  0  0  0
    3.4556    0.0000    0.0000 O   0  0  0  0  0  0  0  0  0  0  0  0
  1  2  1  0  0  0  0
  1  3  1  0  0  0  0
  1  7  2  0  0  0  0
  2  4  1  0  0  0  0
  3  5  1  0  0  0  0
  4  6  1  0  0  0  0
  5  6  1  0  0  0  0
M  END
> <ID>
10095

> <Formula>
C5H8O2

> <FW>
100.1158

> <DSSTox_CID>
24438

> <DSSTox_RID>
80228

> <DSSTox_GSID>
44438

> <DSSTox_FileID_Sort>
4910

> <TS_ChemName>
Tetrahydro-2H-pyran-2-one

> <TS_ChemName_Synonyms>
Tetrahydro-2H-pyran-2-one (2H-Pyran-2-one, tetrahydro-)

> <TS_CASRN>
542-28-9

> <CASRN_ChemName_Relationship>
primary

> <TS_Description>
single chemical compound

> <ChemNote>


> <STRUCTURE_Shown>
tested chemical

> <STRUCTURE_Formula>
C5H8O2

> <STRUCTURE_MW>
100.1158

> <STRUCTURE_ChemType>
defined organic

> <STRUCTURE_DefinedOrganicForm>
parent

> <STRUCTURE_IUPAC>
tetrahydro-2H-pyran-2-one

> <STRUCTURE_SMILES>
O=C1CCCCO1

> <STRUCTURE_SMILES_Desalt>
O=C1CCCCO1

> <Substance_modify_yyyymmdd>
20091116

$$$$
