542-75-6
ChemmineR-0915142007XD

  5  4  0  0  0  0  0  0  0  0  1 V2000
    2.2878   -0.6707    0.0000 C    0  0  0  0  0  0  0  0  0  0  0  0
    3.4409    0.0000    0.0000 C    0  0  0  0  0  0  0  0  0  0  0  0
    4.5939   -0.6707    0.0000 Cl   0  0  0  0  0  0  0  0  0  0  0  0
    0.0000   -0.6707    0.0000 Cl   0  0  0  0  0  0  0  0  0  0  0  0
    1.1531    0.0000    0.0000 C    0  0  0  0  0  0  0  0  0  0  0  0
  1  2  2  3  0  0  0
  1  5  1  0  0  0  0
  2  3  1  0  0  0  0
  4  5  1  0  0  0  0
M  END
> <ID>
1255

> <Formula>
C3H4Cl2

> <FW>
110.9699

> <DSSTox_CID>
1307

> <DSSTox_RID>
76474

> <DSSTox_GSID>
22057

> <DSSTox_FileID_Sort>
1158

> <TS_ChemName>
1,3-Dichloropropene

> <TS_ChemName_Synonyms>


> <TS_CASRN>
542-75-6

> <CASRN_ChemName_Relationship>
primary

> <TS_Description>
mixture or formulation

> <ChemNote>
mixture of Z [10061-01-5], E [10061-02-6] isomers: CASRN is for an undefined mixture of isomers

> <STRUCTURE_Shown>
representative isomer in mixture

> <STRUCTURE_Formula>
C3H4Cl2

> <STRUCTURE_MW>
110.9699

> <STRUCTURE_ChemType>
defined organic

> <STRUCTURE_DefinedOrganicForm>
parent

> <STRUCTURE_IUPAC>
1,3-dichloroprop-1-ene

> <STRUCTURE_SMILES>
ClC=CCCl

> <STRUCTURE_SMILES_Desalt>
ClC=CCCl

> <Substance_modify_yyyymmdd>
20080429

$$$$
