5421-46-5
ChemmineR-0915142007XD

  6  4  0  0  0  0  0  0  0  0  2 V2000
    2.2921   -1.3294    0.0000 C   0  0  0  0  0  0  0  0  0  0  0  0
    2.2921    0.0000    0.0000 O   0  0  0  0  0  0  0  0  0  0  0  0
    3.4433   -2.0018    0.0000 O   0  5  0  0  0  0  0  0  0  0  0  0
    1.1512   -2.0018    0.0000 C   0  0  0  0  0  0  0  0  0  0  0  0
    0.0000   -1.3294    0.0000 S   0  0  0  0  0  0  0  0  0  0  0  0
    5.0936   -1.7114    0.0000 N   0  3  0  0  0  0  0  0  0  0  0  0
  1  2  2  0  0  0  0
  1  3  1  0  0  0  0
  1  4  1  0  0  0  0
  4  5  1  0  0  0  0
M  END
> <ID>
5281

> <Formula>
C2H7NO2S

> <FW>
109.1475 (91.1096+18.0379)

> <DSSTox_CID>
7599

> <DSSTox_RID>
78524

> <DSSTox_GSID>
27599

> <DSSTox_FileID_Sort>
3207

> <TS_ChemName>
Acetic acid, mercapto-, monoammonium salt

> <TS_ChemName_Synonyms>


> <TS_CASRN>
5421-46-5

> <CASRN_ChemName_Relationship>
primary

> <TS_Description>
single chemical compound

> <ChemNote>
parent [68-11-1]

> <STRUCTURE_Shown>
tested chemical

> <STRUCTURE_Formula>
C2H7NO2S

> <STRUCTURE_MW>
109.1475

> <STRUCTURE_ChemType>
defined organic

> <STRUCTURE_DefinedOrganicForm>
complex

> <STRUCTURE_IUPAC>
ammonium sulfanylacetate

> <STRUCTURE_SMILES>
[NH4+].[O-]C(=O)CS

> <STRUCTURE_SMILES_Desalt>
O=C(O)CS

> <Substance_modify_yyyymmdd>
20080429

$$$$
