54239-37-1
ChemmineR-0915142007XD

 16 16  0  0  0  0  0  0  0  0  1 V2000
    1.9915   -4.6066    0.0000 C   0  0  0  0  0  0  0  0  0  0  0  0
    1.3308   -3.4526    0.0000 C   0  0  0  0  0  0  0  0  0  0  0  0
    0.0000   -3.4526    0.0000 C   0  0  0  0  0  0  0  0  0  0  0  0
    1.9915   -2.3079    0.0000 N   0  0  0  0  0  0  0  0  0  0  0  0
    3.3223   -2.3079    0.0000 C   0  0  0  0  0  0  0  0  0  0  0  0
    3.9924   -1.1540    0.0000 C   0  0  0  0  0  0  0  0  0  0  0  0
    3.3223    0.0000    0.0000 O   0  0  0  0  0  0  0  0  0  0  0  0
    5.3138   -1.1540    0.0000 C   0  0  0  0  0  0  0  0  0  0  0  0
    5.9839    0.0000    0.0000 C   0  0  0  0  0  0  0  0  0  0  0  0
    7.3147    0.0000    0.0000 C   0  0  0  0  0  0  0  0  0  0  0  0
    7.9754   -1.1540    0.0000 C   0  0  0  0  0  0  0  0  0  0  0  0
    9.3062   -1.1540    0.0000 N   0  0  0  0  0  0  0  0  0  0  0  0
    7.3147   -2.3079    0.0000 C   0  0  0  0  0  0  0  0  0  0  0  0
    5.9839   -2.3079    0.0000 C   0  0  0  0  0  0  0  0  0  0  0  0
    7.9754   -3.4526    0.0000 C   0  0  0  0  0  0  0  0  0  0  0  0
    8.6455   -4.6066    0.0000 N   0  0  0  0  0  0  0  0  0  0  0  0
  1  2  1  0  0  0  0
  2  3  1  0  0  0  0
  2  4  1  0  0  0  0
  4  5  1  0  0  0  0
  5  6  1  0  0  0  0
  6  7  1  0  0  0  0
  6  8  1  0  0  0  0
  8  9  2  0  0  0  0
  8 14  1  0  0  0  0
  9 10  1  0  0  0  0
 10 11  2  0  0  0  0
 11 12  1  0  0  0  0
 11 13  1  0  0  0  0
 13 14  2  0  0  0  0
 13 15  1  0  0  0  0
 15 16  3  0  0  0  0
M  END
> <ID>
11098

> <Formula>
C12H17N3O

> <FW>
219.2829

> <DSSTox_CID>
25652

> <DSSTox_RID>
81030

> <DSSTox_GSID>
45652

> <DSSTox_FileID_Sort>
5711

> <TS_ChemName>
Cimaterol

> <TS_ChemName_Synonyms>


> <TS_CASRN>
54239-37-1

> <CASRN_ChemName_Relationship>
primary

> <TS_Description>
single chemical compound

> <ChemNote>


> <STRUCTURE_Shown>
tested chemical

> <STRUCTURE_Formula>
C12H17N3O

> <STRUCTURE_MW>
219.2829

> <STRUCTURE_ChemType>
defined organic

> <STRUCTURE_DefinedOrganicForm>
parent

> <STRUCTURE_IUPAC>
2-amino-5-[1-hydroxy-2-(propan-2-ylamino)ethyl]benzonitrile

> <STRUCTURE_SMILES>
N#Cc1cc(ccc1N)C(O)CNC(C)C

> <STRUCTURE_SMILES_Desalt>
N#Cc1cc(ccc1N)C(O)CNC(C)C

> <Substance_modify_yyyymmdd>
20100107

$$$$
