54240-36-7
ChemmineR-0915142007XD

 21 20  0  0  0  0  0  0  0  0  1 V2000
    2.3195   -1.9973    0.0000 C    0  0  0  0  0  0  0  0  0  0  0  0
    1.1505   -1.3254    0.0000 C    0  0  0  0  0  0  0  0  0  0  0  0
    2.3195   -3.3228    0.0000 C    0  0  0  0  0  0  0  0  0  0  0  0
    3.4700   -1.3346    0.0000 C    0  0  0  0  0  0  0  0  0  0  0  0
    3.4700   -3.9763    0.0000 C    0  0  0  0  0  0  0  0  0  0  0  0
    4.6206   -1.9973    0.0000 C    0  0  0  0  0  0  0  0  0  0  0  0
    4.6206   -3.3228    0.0000 C    0  0  0  0  0  0  0  0  0  0  0  0
    6.9217   -3.3044    0.0000 N    0  0  0  0  0  0  0  0  0  0  0  0
    5.7711   -1.3254    0.0000 C    0  0  0  0  0  0  0  0  0  0  0  0
    0.4786   -2.4852    0.0000 F    0  0  0  0  0  0  0  0  0  0  0  0
    0.0000   -0.6535    0.0000 F    0  0  0  0  0  0  0  0  0  0  0  0
    1.8409   -0.1749    0.0000 F    0  0  0  0  0  0  0  0  0  0  0  0
    8.0538   -3.9579    0.0000 C    0  0  0  0  0  0  0  0  0  0  0  0
    6.9217   -1.9789    0.0000 C    0  0  0  0  0  0  0  0  0  0  0  0
    1.1505   -3.9947    0.0000 N    0  0  0  0  0  0  0  0  0  0  0  0
    3.4700   -5.3017    0.0000 Cl   0  0  0  0  0  0  0  0  0  0  0  0
    5.7711    0.0000    0.0000 O    0  0  0  0  0  0  0  0  0  0  0  0
    8.7257   -2.8073    0.0000 C    0  0  0  0  0  0  0  0  0  0  0  0
    9.2044   -4.6298    0.0000 C    0  0  0  0  0  0  0  0  0  0  0  0
    7.3819   -5.1084    0.0000 C    0  0  0  0  0  0  0  0  0  0  0  0
    8.0722   -0.6075    0.0000 Cl   0  0  0  0  0  0  0  0  0  0  0  0
  1  2  1  0  0  0  0
  1  3  1  0  0  0  0
  1  4  2  0  0  0  0
  2 10  1  0  0  0  0
  2 11  1  0  0  0  0
  2 12  1  0  0  0  0
  3  5  2  0  0  0  0
  3 15  1  0  0  0  0
  4  6  1  0  0  0  0
  5 16  1  0  0  0  0
  5  7  1  0  0  0  0
  6  7  2  0  0  0  0
  6  9  1  0  0  0  0
  8 14  1  0  0  0  0
  8 13  1  0  0  0  0
  9 14  1  0  0  0  0
  9 17  1  0  0  0  0
 13 18  1  0  0  0  0
 13 19  1  0  0  0  0
 13 20  1  0  0  0  0
M  END
> <ID>
11977

> <Formula>
C13H19Cl2F3N2O

> <FW>
347.2040 (310.7430+36.4609)

> <DSSTox_CID>
26798

> <DSSTox_RID>
81913

> <DSSTox_GSID>
46798

> <DSSTox_FileID_Sort>
6594

> <TS_ChemName>
Mabuterol hydrochloride

> <TS_ChemName_Synonyms>


> <TS_CASRN>
54240-36-7

> <CASRN_ChemName_Relationship>
primary

> <TS_Description>
single chemical compound

> <ChemNote>
parent [56341-08-3]

> <STRUCTURE_Shown>
tested chemical

> <STRUCTURE_Formula>
C13H19Cl2F3N2O

> <STRUCTURE_MW>
347.204

> <STRUCTURE_ChemType>
defined organic

> <STRUCTURE_DefinedOrganicForm>
complex

> <STRUCTURE_IUPAC>
1-[4-amino-3-chloro-5-(trifluoromethyl)phenyl]-2-(tert-butylamino)ethanol hydrochloride (1:1)

> <STRUCTURE_SMILES>
Cl.Nc1c(cc(cc1Cl)C(O)CNC(C)(C)C)C(F)(F)F

> <STRUCTURE_SMILES_Desalt>
Nc1c(cc(cc1Cl)C(O)CNC(C)(C)C)C(F)(F)F

> <Substance_modify_yyyymmdd>
20110802

$$$$
