5424-37-3
ChemmineR-0915142007XD

 30 31  0  0  0  0  0  0  0  0  1 V2000
   16.1217   -3.9821    0.0000 C    0  0  0  0  0  0  0  0  0  0  0  0
   14.9770   -3.3211    0.0000 C    0  0  0  0  0  0  0  0  0  0  0  0
   13.8324   -3.9821    0.0000 N    0  0  0  0  0  0  0  0  0  0  0  0
   12.6878   -3.3211    0.0000 C    0  0  0  0  0  0  0  0  0  0  0  0
   11.5109   -3.9821    0.0000 C    0  0  0  0  0  0  0  0  0  0  0  0
   10.3662   -3.3211    0.0000 C    0  0  0  0  0  0  0  0  0  0  0  0
   10.3662   -1.9830    0.0000 C    0  0  0  0  0  0  0  0  0  0  0  0
    9.2055   -1.3220    0.0000 N    0  0  0  0  0  0  0  0  0  0  0  0
    8.0608   -1.9830    0.0000 C    0  0  0  0  0  0  0  0  0  0  0  0
    8.0608   -3.3211    0.0000 O    0  0  0  0  0  0  0  0  0  0  0  0
    6.9162   -1.3220    0.0000 N    0  0  0  0  0  0  0  0  0  0  0  0
    5.7554   -1.9830    0.0000 C    0  0  0  0  0  0  0  0  0  0  0  0
    5.7554   -3.3211    0.0000 C    0  0  0  0  0  0  0  0  0  0  0  0
    4.6269   -3.9821    0.0000 C    0  0  0  0  0  0  0  0  0  0  0  0
    3.4500   -3.3211    0.0000 C    0  0  0  0  0  0  0  0  0  0  0  0
    2.3054   -3.9821    0.0000 N    0  0  0  0  0  0  0  0  0  0  0  0
    1.1446   -3.3211    0.0000 C    0  0  0  0  0  0  0  0  0  0  0  0
    0.0000   -3.9821    0.0000 C    0  0  0  0  0  0  0  0  0  0  0  0
    1.1446   -1.9830    0.0000 C    0  0  0  0  0  0  0  0  0  0  0  0
    2.3054   -1.3220    0.0000 C    0  0  0  0  0  0  0  0  0  0  0  0
    2.3054    0.0000    0.0000 N    0  0  0  0  0  0  0  0  0  0  0  0
    3.4500   -1.9830    0.0000 C    0  0  0  0  0  0  0  0  0  0  0  0
    4.6269   -1.3220    0.0000 C    0  0  0  0  0  0  0  0  0  0  0  0
   11.5109   -1.3220    0.0000 C    0  0  0  0  0  0  0  0  0  0  0  0
   12.6878   -1.9830    0.0000 C    0  0  0  0  0  0  0  0  0  0  0  0
   13.8324   -1.3220    0.0000 C    0  0  0  0  0  0  0  0  0  0  0  0
   14.9770   -1.9830    0.0000 C    0  0  0  0  0  0  0  0  0  0  0  0
   13.8324    0.0000    0.0000 N    0  0  0  0  0  0  0  0  0  0  0  0
    3.6274   -5.2718    0.0000 Cl   0  0  0  0  0  0  0  0  0  0  0  0
   13.8485   -5.5781    0.0000 Cl   0  0  0  0  0  0  0  0  0  0  0  0
  1  2  1  0  0  0  0
  2  3  2  0  0  0  0
  2 27  1  0  0  0  0
  3  4  1  0  0  0  0
  4  5  2  0  0  0  0
  4 25  1  0  0  0  0
  5  6  1  0  0  0  0
  6  7  2  0  0  0  0
  7  8  1  0  0  0  0
  7 24  1  0  0  0  0
  8  9  1  0  0  0  0
  9 10  2  0  0  0  0
  9 11  1  0  0  0  0
 11 12  1  0  0  0  0
 12 13  2  0  0  0  0
 12 23  1  0  0  0  0
 13 14  1  0  0  0  0
 14 15  2  0  0  0  0
 15 16  1  0  0  0  0
 15 22  1  0  0  0  0
 16 17  2  0  0  0  0
 17 18  1  0  0  0  0
 17 19  1  0  0  0  0
 19 20  2  0  0  0  0
 20 21  1  0  0  0  0
 20 22  1  0  0  0  0
 22 23  2  0  0  0  0
 24 25  2  0  0  0  0
 25 26  1  0  0  0  0
 26 27  2  0  0  0  0
 26 28  1  0  0  0  0
M  END
> <ID>
10727

> <Formula>
C21H22Cl2N6O

> <FW>
445.3450 (372.4231+36.4609+36.4609)

> <DSSTox_CID>
25083

> <DSSTox_RID>
80658

> <DSSTox_GSID>
45083

> <DSSTox_FileID_Sort>
5340

> <TS_ChemName>
Aminoquinuride dihydrochloride

> <TS_ChemName_Synonyms>


> <TS_CASRN>
5424-37-3

> <CASRN_ChemName_Relationship>
primary

> <TS_Description>
single chemical compound

> <ChemNote>
parent [3811-56-1]

> <STRUCTURE_Shown>
tested chemical

> <STRUCTURE_Formula>
C21H22Cl2N6O

> <STRUCTURE_MW>
445.345

> <STRUCTURE_ChemType>
defined organic

> <STRUCTURE_DefinedOrganicForm>
complex

> <STRUCTURE_IUPAC>
1,3-bis(4-amino-2-methylquinolin-6-yl)urea dihydrochloride

> <STRUCTURE_SMILES>
Cl.Cl.Nc1cc(C)nc2ccc(cc12)NC(=O)Nc3ccc4nc(C)cc(N)c4c3

> <STRUCTURE_SMILES_Desalt>
Nc1cc(C)nc2ccc(cc12)NC(=O)Nc3ccc4nc(C)cc(N)c4c3

> <Substance_modify_yyyymmdd>
20100107

$$$$
