543-82-8
ChemmineR-0915142007XD

  9  8  0  0  0  0  0  0  0  0  1 V2000
    5.7552    0.0000    0.0000 C   0  0  0  0  0  0  0  0  0  0  0  0
    5.7552   -1.3334    0.0000 C   0  0  0  0  0  0  0  0  0  0  0  0
    6.9090   -1.9967    0.0000 C   0  0  0  0  0  0  0  0  0  0  0  0
    4.6083   -1.9967    0.0000 C   0  0  0  0  0  0  0  0  0  0  0  0
    3.4545   -1.3334    0.0000 C   0  0  0  0  0  0  0  0  0  0  0  0
    2.3007   -1.9967    0.0000 C   0  0  0  0  0  0  0  0  0  0  0  0
    1.1538   -1.3334    0.0000 C   0  0  0  0  0  0  0  0  0  0  0  0
    0.0000   -1.9967    0.0000 C   0  0  0  0  0  0  0  0  0  0  0  0
    1.1538    0.0000    0.0000 N   0  0  0  0  0  0  0  0  0  0  0  0
  1  2  1  0  0  0  0
  2  3  1  0  0  0  0
  2  4  1  0  0  0  0
  4  5  1  0  0  0  0
  5  6  1  0  0  0  0
  6  7  1  0  0  0  0
  7  8  1  0  0  0  0
  7  9  1  0  0  0  0
M  END
> <ID>
11765

> <Formula>
C8H19N

> <FW>
129.2432

> <DSSTox_CID>
26535

> <DSSTox_RID>
81699

> <DSSTox_GSID>
46535

> <DSSTox_FileID_Sort>
6380

> <TS_ChemName>
2-Amino-6-methylheptane

> <TS_ChemName_Synonyms>


> <TS_CASRN>
543-82-8

> <CASRN_ChemName_Relationship>
primary

> <TS_Description>
single chemical compound

> <ChemNote>


> <STRUCTURE_Shown>
tested chemical

> <STRUCTURE_Formula>
C8H19N

> <STRUCTURE_MW>
129.2432

> <STRUCTURE_ChemType>
defined organic

> <STRUCTURE_DefinedOrganicForm>
parent

> <STRUCTURE_IUPAC>
6-methylheptan-2-amine

> <STRUCTURE_SMILES>
CC(C)CCCC(C)N

> <STRUCTURE_SMILES_Desalt>
CC(C)CCCC(C)N

> <Substance_modify_yyyymmdd>
20110811

$$$$
