543-15-7
ChemmineR-0915142007XD

 11  9  0  0  0  0  0  0  0  0  1 V2000
    3.6016   -4.0795    0.0000 Cl   0  0  0  0  0  0  0  0  0  0  0  0
    5.7695   -2.4727    0.0000 C    0  0  0  0  0  0  0  0  0  0  0  0
    5.7695   -1.1359    0.0000 C    0  0  0  0  0  0  0  0  0  0  0  0
    6.9262   -0.4779    0.0000 N    0  0  0  0  0  0  0  0  0  0  0  0
    4.6129   -0.4779    0.0000 C    0  0  0  0  0  0  0  0  0  0  0  0
    3.4562   -1.1359    0.0000 C    0  0  0  0  0  0  0  0  0  0  0  0
    2.2995   -0.4779    0.0000 C    0  0  0  0  0  0  0  0  0  0  0  0
    1.1428   -1.1359    0.0000 C    0  0  0  0  0  0  0  0  0  0  0  0
    0.4848    0.0000    0.0000 C    0  0  0  0  0  0  0  0  0  0  0  0
    1.8147   -2.2926    0.0000 C    0  0  0  0  0  0  0  0  0  0  0  0
    0.0000   -1.8147    0.0000 O    0  0  0  0  0  0  0  0  0  0  0  0
  2  3  1  0  0  0  0
  3  4  1  0  0  0  0
  3  5  1  0  0  0  0
  5  6  1  0  0  0  0
  6  7  1  0  0  0  0
  7  8  1  0  0  0  0
  8  9  1  0  0  0  0
  8 10  1  0  0  0  0
  8 11  1  0  0  0  0
M  END
> <ID>
11273

> <Formula>
C8H20ClNO

> <FW>
181.7035 (36.4609+145.2426)

> <DSSTox_CID>
25891

> <DSSTox_RID>
81205

> <DSSTox_GSID>
45891

> <DSSTox_FileID_Sort>
5886

> <TS_ChemName>
Heptaminol hydrochloride

> <TS_ChemName_Synonyms>


> <TS_CASRN>
543-15-7

> <CASRN_ChemName_Relationship>
primary

> <TS_Description>
single chemical compound

> <ChemNote>
parent [372-66-7]

> <STRUCTURE_Shown>
tested chemical

> <STRUCTURE_Formula>
C8H20ClNO

> <STRUCTURE_MW>
181.7035

> <STRUCTURE_ChemType>
defined organic

> <STRUCTURE_DefinedOrganicForm>
complex

> <STRUCTURE_IUPAC>
6-amino-2-methylheptan-2-ol hydrochloride (1:1)

> <STRUCTURE_SMILES>
Cl.CC(C)(O)CCCC(N)C

> <STRUCTURE_SMILES_Desalt>
CC(C)(O)CCCC(N)C

> <Substance_modify_yyyymmdd>
20110922

$$$$
