54301-15-4
ChemmineR-0915142007XD

 29 31  0  0  0  0  0  0  0  0  1 V2000
    9.2790   -4.5313    0.0000 C    0  0  0  0  0  0  0  0  0  0  0  0
    3.5131   -1.1837    0.0000 S    0  0  0  0  0  0  0  0  0  0  0  0
    9.2790   -3.1948    0.0000 N    0  0  0  0  0  0  0  0  0  0  0  0
    9.2790   -7.1789    0.0000 N    0  0  0  0  0  0  0  0  0  0  0  0
   10.4373   -5.1678    0.0000 C    0  0  0  0  0  0  0  0  0  0  0  0
    8.1462   -5.1678    0.0000 C    0  0  0  0  0  0  0  0  0  0  0  0
    8.1462   -6.5042    0.0000 C    0  0  0  0  0  0  0  0  0  0  0  0
   10.4373   -6.5042    0.0000 C    0  0  0  0  0  0  0  0  0  0  0  0
    8.1462   -2.5330    0.0000 C    0  0  0  0  0  0  0  0  0  0  0  0
    4.6841   -0.5091    0.0000 N    0  0  0  0  0  0  0  0  0  0  0  0
    8.1462   -1.1965    0.0000 C    0  0  0  0  0  0  0  0  0  0  0  0
    7.0007   -0.5219    0.0000 C    0  0  0  0  0  0  0  0  0  0  0  0
    2.8766    0.0000    0.0000 O    0  0  0  0  0  0  0  0  0  0  0  0
    4.1495   -2.3293    0.0000 O    0  0  0  0  0  0  0  0  0  0  0  0
    5.8551   -1.1965    0.0000 C    0  0  0  0  0  0  0  0  0  0  0  0
    7.0007   -3.1948    0.0000 C    0  0  0  0  0  0  0  0  0  0  0  0
    2.3548   -1.8456    0.0000 C    0  0  0  0  0  0  0  0  0  0  0  0
    5.8551   -2.5330    0.0000 C    0  0  0  0  0  0  0  0  0  0  0  0
    9.3172   -0.5091    0.0000 O    0  0  0  0  0  0  0  0  0  0  0  0
   11.5829   -4.5313    0.0000 C    0  0  0  0  0  0  0  0  0  0  0  0
    7.0007   -4.5313    0.0000 C    0  0  0  0  0  0  0  0  0  0  0  0
    7.0007   -7.1789    0.0000 C    0  0  0  0  0  0  0  0  0  0  0  0
   11.5829   -7.1789    0.0000 C    0  0  0  0  0  0  0  0  0  0  0  0
   10.5010   -1.1837    0.0000 C    0  0  0  0  0  0  0  0  0  0  0  0
   12.7285   -5.1678    0.0000 C    0  0  0  0  0  0  0  0  0  0  0  0
    5.8551   -5.1678    0.0000 C    0  0  0  0  0  0  0  0  0  0  0  0
    5.8551   -6.5042    0.0000 C    0  0  0  0  0  0  0  0  0  0  0  0
   12.7285   -6.5042    0.0000 C    0  0  0  0  0  0  0  0  0  0  0  0
    0.0000   -4.3277    0.0000 Cl   0  0  0  0  0  0  0  0  0  0  0  0
  1  3  1  0  0  0  0
  1  5  2  0  0  0  0
  1  6  1  0  0  0  0
  2 10  1  0  0  0  0
  2 13  2  0  0  0  0
  2 14  2  0  0  0  0
  2 17  1  0  0  0  0
  3  9  1  0  0  0  0
  4  7  1  0  0  0  0
  4  8  2  0  0  0  0
  5  8  1  0  0  0  0
  5 20  1  0  0  0  0
  6  7  2  0  0  0  0
  6 21  1  0  0  0  0
  7 22  1  0  0  0  0
  8 23  1  0  0  0  0
  9 11  1  0  0  0  0
  9 16  2  0  0  0  0
 10 15  1  0  0  0  0
 11 12  2  0  0  0  0
 11 19  1  0  0  0  0
 12 15  1  0  0  0  0
 15 18  2  0  0  0  0
 16 18  1  0  0  0  0
 19 24  1  0  0  0  0
 20 25  2  0  0  0  0
 21 26  2  0  0  0  0
 22 27  2  0  0  0  0
 23 28  2  0  0  0  0
 25 28  1  0  0  0  0
 26 27  1  0  0  0  0
M  END
> <ID>
7268

> <Formula>
C21H20ClN3O3S

> <FW>
429.9198 (393.4589+36.4609)

> <DSSTox_CID>
17186

> <DSSTox_RID>
79305

> <DSSTox_GSID>
37186

> <DSSTox_FileID_Sort>
3987

> <TS_ChemName>
Amsacrine hydrochloride

> <TS_ChemName_Synonyms>
Amsacrine  hydrochloride

> <TS_CASRN>
54301-15-4

> <CASRN_ChemName_Relationship>
primary

> <TS_Description>
single chemical compound

> <ChemNote>
parent [51264-14-3]

> <STRUCTURE_Shown>
tested chemical

> <STRUCTURE_Formula>
C21H20ClN3O3S

> <STRUCTURE_MW>
429.9198

> <STRUCTURE_ChemType>
defined organic

> <STRUCTURE_DefinedOrganicForm>
complex

> <STRUCTURE_IUPAC>
N-[4-(acridin-9-ylamino)-3-methoxyphenyl]methanesulfonamide hydrochloride (1:1)

> <STRUCTURE_SMILES>
Cl.CS(=O)(=O)Nc4ccc(Nc1c3ccccc3nc2ccccc12)c(OC)c4

> <STRUCTURE_SMILES_Desalt>
CS(=O)(=O)Nc4ccc(Nc1c3ccccc3nc2ccccc12)c(OC)c4

> <Substance_modify_yyyymmdd>
20080429

$$$$
