5435-64-3
ChemmineR-0915142007XD

 10  9  0  0  0  0  0  0  0  0  1 V2000
    0.0000   -0.6715    0.0000 O   0  0  0  0  0  0  0  0  0  0  0  0
    1.1561   -1.3292    0.0000 C   0  0  0  0  0  0  0  0  0  0  0  0
    2.3122   -0.6715    0.0000 C   0  0  0  0  0  0  0  0  0  0  0  0
    3.4684   -1.3292    0.0000 C   0  0  0  0  0  0  0  0  0  0  0  0
    4.6245   -0.6715    0.0000 C   0  0  0  0  0  0  0  0  0  0  0  0
    5.7668   -1.3292    0.0000 C   0  0  0  0  0  0  0  0  0  0  0  0
    3.4684   -2.6653    0.0000 C   0  0  0  0  0  0  0  0  0  0  0  0
    6.9229   -0.6715    0.0000 C   0  0  0  0  0  0  0  0  0  0  0  0
    5.7668   -2.6653    0.0000 C   0  0  0  0  0  0  0  0  0  0  0  0
    5.7668    0.0000    0.0000 C   0  0  0  0  0  0  0  0  0  0  0  0
  1  2  2  0  0  0  0
  2  3  1  0  0  0  0
  3  4  1  0  0  0  0
  4  5  1  0  0  0  0
  4  7  1  0  0  0  0
  5  6  1  0  0  0  0
  6  8  1  0  0  0  0
  6  9  1  0  0  0  0
  6 10  1  0  0  0  0
M  END
> <ID>
12257

> <Formula>
C9H18O

> <FW>
142.2386

> <DSSTox_CID>
27107

> <DSSTox_RID>
82117

> <DSSTox_GSID>
47107

> <DSSTox_FileID_Sort>
6798

> <TS_ChemName>
3,5,5-Trimethylhexanal

> <TS_ChemName_Synonyms>


> <TS_CASRN>
5435-64-3

> <CASRN_ChemName_Relationship>
primary

> <TS_Description>
single chemical compound

> <ChemNote>


> <STRUCTURE_Shown>
tested chemical

> <STRUCTURE_Formula>
C9H18O

> <STRUCTURE_MW>
142.2386

> <STRUCTURE_ChemType>
defined organic

> <STRUCTURE_DefinedOrganicForm>
parent

> <STRUCTURE_IUPAC>
3,5,5-trimethylhexanal

> <STRUCTURE_SMILES>
CC(C)(C)CC(C)CC=O

> <STRUCTURE_SMILES_Desalt>
CC(C)(C)CC(C)CC=O

> <Substance_modify_yyyymmdd>
20100429

$$$$
