54350-48-0
ChemmineR-0915142007XD

 26 26  0  0  0  0  0  0  0  0  1 V2000
    2.6585   -5.7655    0.0000 C   0  0  0  0  0  0  0  0  0  0  0  0
    1.9938   -6.9120    0.0000 C   0  0  0  0  0  0  0  0  0  0  0  0
    1.9938   -4.6025    0.0000 C   0  0  0  0  0  0  0  0  0  0  0  0
    0.6646   -4.6025    0.0000 O   0  0  0  0  0  0  0  0  0  0  0  0
    0.0000   -3.4560    0.0000 C   0  0  0  0  0  0  0  0  0  0  0  0
    2.6585   -3.4560    0.0000 C   0  0  0  0  0  0  0  0  0  0  0  0
    3.9877   -3.4560    0.0000 C   0  0  0  0  0  0  0  0  0  0  0  0
    4.6523   -2.3095    0.0000 C   0  0  0  0  0  0  0  0  0  0  0  0
    4.6523   -4.6025    0.0000 C   0  0  0  0  0  0  0  0  0  0  0  0
    5.9982   -4.6025    0.0000 C   0  0  0  0  0  0  0  0  0  0  0  0
    6.6462   -5.7655    0.0000 C   0  0  0  0  0  0  0  0  0  0  0  0
    7.9754   -5.7655    0.0000 C   0  0  0  0  0  0  0  0  0  0  0  0
    8.6566   -6.9120    0.0000 C   0  0  0  0  0  0  0  0  0  0  0  0
    8.6566   -4.6025    0.0000 C   0  0  0  0  0  0  0  0  0  0  0  0
    9.9859   -4.6025    0.0000 C   0  0  0  0  0  0  0  0  0  0  0  0
   10.6339   -3.4560    0.0000 C   0  0  0  0  0  0  0  0  0  0  0  0
   11.9631   -3.4560    0.0000 C   0  0  0  0  0  0  0  0  0  0  0  0
   12.6277   -4.6025    0.0000 C   0  0  0  0  0  0  0  0  0  0  0  0
   12.6277   -2.3095    0.0000 C   0  0  0  0  0  0  0  0  0  0  0  0
   13.9569   -2.3095    0.0000 C   0  0  0  0  0  0  0  0  0  0  0  0
   14.6216   -3.4560    0.0000 O   0  0  0  0  0  0  0  0  0  0  0  0
   14.6216   -1.1465    0.0000 O   0  0  0  0  0  0  0  0  0  0  0  0
   15.9508   -1.1465    0.0000 C   0  0  0  0  0  0  0  0  0  0  0  0
   16.6154    0.0000    0.0000 C   0  0  0  0  0  0  0  0  0  0  0  0
    3.9877   -5.7655    0.0000 C   0  0  0  0  0  0  0  0  0  0  0  0
    4.6523   -6.9120    0.0000 C   0  0  0  0  0  0  0  0  0  0  0  0
  1  2  1  0  0  0  0
  1  3  2  0  0  0  0
  1 25  1  0  0  0  0
  3  4  1  0  0  0  0
  3  6  1  0  0  0  0
  4  5  1  0  0  0  0
  6  7  2  0  0  0  0
  7  8  1  0  0  0  0
  7  9  1  0  0  0  0
  9 10  1  0  0  0  0
  9 25  2  0  0  0  0
 10 11  2  0  0  0  0
 11 12  1  0  0  0  0
 12 13  1  0  0  0  0
 12 14  2  0  0  0  0
 14 15  1  0  0  0  0
 15 16  2  0  0  0  0
 16 17  1  0  0  0  0
 17 18  1  0  0  0  0
 17 19  2  0  0  0  0
 19 20  1  0  0  0  0
 20 21  2  0  0  0  0
 20 22  1  0  0  0  0
 22 23  1  0  0  0  0
 23 24  1  0  0  0  0
 25 26  1  0  0  0  0
M  END
> <ID>
2729

> <Formula>
C23H30O3

> <FW>
354.4825

> <DSSTox_CID>
3036

> <DSSTox_RID>
76843

> <DSSTox_GSID>
23036

> <DSSTox_FileID_Sort>
1527

> <TS_ChemName>
Etretinate

> <TS_ChemName_Synonyms>


> <TS_CASRN>
54350-48-0

> <CASRN_ChemName_Relationship>
primary

> <TS_Description>
single chemical compound

> <ChemNote>
stereochem

> <STRUCTURE_Shown>
tested chemical

> <STRUCTURE_Formula>
C23H30O3

> <STRUCTURE_MW>
354.4825

> <STRUCTURE_ChemType>
defined organic

> <STRUCTURE_DefinedOrganicForm>
parent

> <STRUCTURE_IUPAC>
ethyl (2E,4E,6E,8E)-9-(4-methoxy-2,3,6-trimethylphenyl)-3,7-dimethylnona-2,4,6,8-tetraenoate

> <STRUCTURE_SMILES>
Cc1c(C)c(/C=CC(\C)=C\C=C\C(\C)=C\C(=O)OCC)c(C)cc1OC

> <STRUCTURE_SMILES_Desalt>
Cc1c(C)c(/C=CC(\C)=C\C=C\C(\C)=C\C(=O)OCC)c(C)cc1OC

> <Substance_modify_yyyymmdd>
20080429

$$$$
