5437-38-7
ChemmineR-0915142007XD

 13 13  0  0  0  0  0  0  0  0  2 V2000
    3.4672    0.0000    0.0000 C   0  0  0  0  0  0  0  0  0  0  0  0
    3.4672   -1.3327    0.0000 C   0  0  0  0  0  0  0  0  0  0  0  0
    4.6194   -1.9911    0.0000 C   0  0  0  0  0  0  0  0  0  0  0  0
    4.6194   -3.3185    0.0000 C   0  0  0  0  0  0  0  0  0  0  0  0
    3.4672   -3.9929    0.0000 C   0  0  0  0  0  0  0  0  0  0  0  0
    2.3097   -3.3185    0.0000 C   0  0  0  0  0  0  0  0  0  0  0  0
    2.3097   -1.9911    0.0000 C   0  0  0  0  0  0  0  0  0  0  0  0
    1.1734   -1.3168    0.0000 N   0  3  0  0  0  0  0  0  0  0  0  0
    1.1734    0.0000    0.0000 O   0  5  0  0  0  0  0  0  0  0  0  0
    0.0159   -1.9911    0.0000 O   0  0  0  0  0  0  0  0  0  0  0  0
    1.1575   -3.9769    0.0000 C   0  0  0  0  0  0  0  0  0  0  0  0
    1.1575   -5.3097    0.0000 O   0  0  0  0  0  0  0  0  0  0  0  0
    0.0000   -3.3185    0.0000 O   0  0  0  0  0  0  0  0  0  0  0  0
  1  2  1  0  0  0  0
  2  3  2  0  0  0  0
  2  7  1  0  0  0  0
  3  4  1  0  0  0  0
  4  5  2  0  0  0  0
  5  6  1  0  0  0  0
  6  7  2  0  0  0  0
  6 11  1  0  0  0  0
  7  8  1  0  0  0  0
  8  9  1  0  0  0  0
  8 10  2  0  0  0  0
 11 12  1  0  0  0  0
 11 13  2  0  0  0  0
M  END
> <ID>
4316

> <Formula>
C8H7NO4

> <FW>
181.1455

> <DSSTox_CID>
5640

> <DSSTox_RID>
77865

> <DSSTox_GSID>
25640

> <DSSTox_FileID_Sort>
2548

> <TS_ChemName>
3-Methyl-2-nitrobenzoic acid

> <TS_ChemName_Synonyms>


> <TS_CASRN>
5437-38-7

> <CASRN_ChemName_Relationship>
primary

> <TS_Description>
single chemical compound

> <ChemNote>


> <STRUCTURE_Shown>
tested chemical

> <STRUCTURE_Formula>
C8H7NO4

> <STRUCTURE_MW>
181.1455

> <STRUCTURE_ChemType>
defined organic

> <STRUCTURE_DefinedOrganicForm>
parent

> <STRUCTURE_IUPAC>
3-methyl-2-nitrobenzoic acid

> <STRUCTURE_SMILES>
O=[N+]([O-])c1c(C)cccc1C(=O)O

> <STRUCTURE_SMILES_Desalt>
O=[N+]([O-])c1c(C)cccc1C(=O)O

> <Substance_modify_yyyymmdd>
20080429

$$$$
