5437-45-6
ChemmineR-0915142007XD

 12 12  0  0  0  0  0  0  0  0  1 V2000
    5.7517   -1.3292    0.0000 C    0  0  0  0  0  0  0  0  0  0  0  0
    5.7517    0.0000    0.0000 O    0  0  0  0  0  0  0  0  0  0  0  0
    4.5998   -1.9978    0.0000 O    0  0  0  0  0  0  0  0  0  0  0  0
    6.9037   -1.9978    0.0000 C    0  0  0  0  0  0  0  0  0  0  0  0
    8.0557   -1.3292    0.0000 Br   0  0  0  0  0  0  0  0  0  0  0  0
    3.4559   -1.3292    0.0000 C    0  0  0  0  0  0  0  0  0  0  0  0
    2.3039   -1.9978    0.0000 C    0  0  0  0  0  0  0  0  0  0  0  0
    2.3039   -3.3270    0.0000 C    0  0  0  0  0  0  0  0  0  0  0  0
    1.1520   -1.3292    0.0000 C    0  0  0  0  0  0  0  0  0  0  0  0
    1.1520   -3.9876    0.0000 C    0  0  0  0  0  0  0  0  0  0  0  0
    0.0000   -1.9978    0.0000 C    0  0  0  0  0  0  0  0  0  0  0  0
    0.0000   -3.3270    0.0000 C    0  0  0  0  0  0  0  0  0  0  0  0
  1  2  2  0  0  0  0
  1  3  1  0  0  0  0
  1  4  1  0  0  0  0
  3  6  1  0  0  0  0
  4  5  1  0  0  0  0
  6  7  1  0  0  0  0
  7  8  2  0  0  0  0
  7  9  1  0  0  0  0
  8 10  1  0  0  0  0
  9 11  2  0  0  0  0
 10 12  2  0  0  0  0
 11 12  1  0  0  0  0
M  END
> <ID>
7708

> <Formula>
C9H9BrO2

> <FW>
229.0706

> <DSSTox_CID>
20343

> <DSSTox_RID>
79481

> <DSSTox_GSID>
40343

> <DSSTox_FileID_Sort>
4163

> <TS_ChemName>
Benzyl bromoacetate

> <TS_ChemName_Synonyms>


> <TS_CASRN>
5437-45-6

> <CASRN_ChemName_Relationship>
primary

> <TS_Description>
single chemical compound

> <ChemNote>


> <STRUCTURE_Shown>
tested chemical

> <STRUCTURE_Formula>
C9H9BrO2

> <STRUCTURE_MW>
229.0706

> <STRUCTURE_ChemType>
defined organic

> <STRUCTURE_DefinedOrganicForm>
parent

> <STRUCTURE_IUPAC>
benzyl bromoacetate

> <STRUCTURE_SMILES>
BrCC(=O)OCc1ccccc1

> <STRUCTURE_SMILES_Desalt>
BrCC(=O)OCc1ccccc1

> <Substance_modify_yyyymmdd>
20080429

$$$$
