5437-98-9
ChemmineR-0915142007XD

 15 15  0  0  0  0  0  0  0  0  1 V2000
    5.7512    0.0000    0.0000 N   0  0  0  0  0  0  0  0  0  0  0  0
    6.8994   -0.6724    0.0000 C   0  0  0  0  0  0  0  0  0  0  0  0
    4.5927   -0.6724    0.0000 C   0  0  0  0  0  0  0  0  0  0  0  0
    8.0579    0.0000    0.0000 C   0  0  0  0  0  0  0  0  0  0  0  0
    6.8994   -2.0067    0.0000 O   0  0  0  0  0  0  0  0  0  0  0  0
    4.5927   -2.0067    0.0000 C   0  0  0  0  0  0  0  0  0  0  0  0
    3.4445    0.0000    0.0000 C   0  0  0  0  0  0  0  0  0  0  0  0
    9.2060   -0.6724    0.0000 C   0  0  0  0  0  0  0  0  0  0  0  0
    3.4445   -2.6584    0.0000 C   0  0  0  0  0  0  0  0  0  0  0  0
    2.2860   -0.6724    0.0000 C   0  0  0  0  0  0  0  0  0  0  0  0
   10.3439    0.0000    0.0000 C   0  0  0  0  0  0  0  0  0  0  0  0
    9.2060   -2.0067    0.0000 O   0  0  0  0  0  0  0  0  0  0  0  0
    2.2860   -2.0067    0.0000 C   0  0  0  0  0  0  0  0  0  0  0  0
    1.1378   -2.6584    0.0000 O   0  0  0  0  0  0  0  0  0  0  0  0
    0.0000   -2.0067    0.0000 C   0  0  0  0  0  0  0  0  0  0  0  0
  1  2  1  0  0  0  0
  1  3  1  0  0  0  0
  2  4  1  0  0  0  0
  2  5  2  0  0  0  0
  3  6  2  0  0  0  0
  3  7  1  0  0  0  0
  4  8  1  0  0  0  0
  6  9  1  0  0  0  0
  7 10  2  0  0  0  0
  8 11  1  0  0  0  0
  8 12  2  0  0  0  0
  9 13  2  0  0  0  0
 10 13  1  0  0  0  0
 13 14  1  0  0  0  0
 14 15  1  0  0  0  0
M  END
> <ID>
10341

> <Formula>
C11H13NO3

> <FW>
207.2258

> <DSSTox_CID>
24689

> <DSSTox_RID>
80398

> <DSSTox_GSID>
44689

> <DSSTox_FileID_Sort>
5080

> <TS_ChemName>
N-(4-Methoxyphenyl)-3-oxobutanamide

> <TS_ChemName_Synonyms>
N-(4-Methoxyphenyl)-3-oxobutanamide (Butanamide, N-(4-methoxyphenyl)-3-oxo-)

> <TS_CASRN>
5437-98-9

> <CASRN_ChemName_Relationship>
primary

> <TS_Description>
single chemical compound

> <ChemNote>
tautomers

> <STRUCTURE_Shown>
tested chemical

> <STRUCTURE_Formula>
C11H13NO3

> <STRUCTURE_MW>
207.2258

> <STRUCTURE_ChemType>
defined organic

> <STRUCTURE_DefinedOrganicForm>
parent

> <STRUCTURE_IUPAC>
N-(4-methoxyphenyl)-3-oxobutanamide

> <STRUCTURE_SMILES>
COc1ccc(NC(=O)CC(C)=O)cc1

> <STRUCTURE_SMILES_Desalt>
COc1ccc(NC(=O)CC(C)=O)cc1

> <Substance_modify_yyyymmdd>
20091116

$$$$
