544-31-0
ChemmineR-0915142007XD

 21 20  0  0  0  0  0  0  0  0  1 V2000
   17.1806   -1.3283    0.0000 C   0  0  0  0  0  0  0  0  0  0  0  0
   17.1806    0.0000    0.0000 O   0  0  0  0  0  0  0  0  0  0  0  0
    8.0132   -1.3283    0.0000 C   0  0  0  0  0  0  0  0  0  0  0  0
    6.8809   -2.0033    0.0000 C   0  0  0  0  0  0  0  0  0  0  0  0
   18.3346   -2.0033    0.0000 N   0  0  0  0  0  0  0  0  0  0  0  0
   16.0265   -2.0033    0.0000 C   0  0  0  0  0  0  0  0  0  0  0  0
    9.1673   -2.0033    0.0000 C   0  0  0  0  0  0  0  0  0  0  0  0
    5.7269   -1.3283    0.0000 C   0  0  0  0  0  0  0  0  0  0  0  0
   14.8942   -1.3283    0.0000 C   0  0  0  0  0  0  0  0  0  0  0  0
   10.3214   -1.3283    0.0000 C   0  0  0  0  0  0  0  0  0  0  0  0
    4.5728   -2.0033    0.0000 C   0  0  0  0  0  0  0  0  0  0  0  0
    1.1541   -1.3283    0.0000 C   0  0  0  0  0  0  0  0  0  0  0  0
    2.2864   -2.0033    0.0000 C   0  0  0  0  0  0  0  0  0  0  0  0
    3.4187   -1.3283    0.0000 C   0  0  0  0  0  0  0  0  0  0  0  0
   12.6078   -1.3283    0.0000 C   0  0  0  0  0  0  0  0  0  0  0  0
   13.7401   -2.0033    0.0000 C   0  0  0  0  0  0  0  0  0  0  0  0
   11.4537   -2.0033    0.0000 C   0  0  0  0  0  0  0  0  0  0  0  0
    0.0000   -2.0033    0.0000 C   0  0  0  0  0  0  0  0  0  0  0  0
   19.4887   -1.3283    0.0000 C   0  0  0  0  0  0  0  0  0  0  0  0
   20.6210   -2.0033    0.0000 C   0  0  0  0  0  0  0  0  0  0  0  0
   21.7751   -1.3283    0.0000 O   0  0  0  0  0  0  0  0  0  0  0  0
  1  2  2  0  0  0  0
  1  5  1  0  0  0  0
  1  6  1  0  0  0  0
  3  7  1  0  0  0  0
  3  4  1  0  0  0  0
  4  8  1  0  0  0  0
  5 19  1  0  0  0  0
  6  9  1  0  0  0  0
  7 10  1  0  0  0  0
  8 11  1  0  0  0  0
  9 16  1  0  0  0  0
 10 17  1  0  0  0  0
 11 14  1  0  0  0  0
 12 13  1  0  0  0  0
 12 18  1  0  0  0  0
 13 14  1  0  0  0  0
 15 16  1  0  0  0  0
 15 17  1  0  0  0  0
 19 20  1  0  0  0  0
 20 21  1  0  0  0  0
M  END
> <ID>
9183

> <Formula>
C18H37NO2

> <FW>
299.4919

> <DSSTox_CID>
22254

> <DSSTox_RID>
79975

> <DSSTox_GSID>
42254

> <DSSTox_FileID_Sort>
4657

> <TS_ChemName>
Palmitoylethanolamide

> <TS_ChemName_Synonyms>


> <TS_CASRN>
544-31-0

> <CASRN_ChemName_Relationship>
primary

> <TS_Description>
single chemical compound

> <ChemNote>


> <STRUCTURE_Shown>
tested chemical

> <STRUCTURE_Formula>
C18H37NO2

> <STRUCTURE_MW>
299.4919

> <STRUCTURE_ChemType>
defined organic

> <STRUCTURE_DefinedOrganicForm>
parent

> <STRUCTURE_IUPAC>
N-(2-hydroxyethyl)hexadecanamide

> <STRUCTURE_SMILES>
O=C(CCCCCCCCCCCCCCC)NCCO

> <STRUCTURE_SMILES_Desalt>
O=C(CCCCCCCCCCCCCCC)NCCO

> <Substance_modify_yyyymmdd>
20080825

$$$$
