544-62-7
ChemmineR-0915142007XD

 24 23  0  0  0  0  0  0  0  0  1 V2000
    0.0000   -0.6606    0.0000 C   0  0  0  0  0  0  0  0  0  0  0  0
    1.1687    0.0000    0.0000 C   0  0  0  0  0  0  0  0  0  0  0  0
    2.3119   -0.6606    0.0000 C   0  0  0  0  0  0  0  0  0  0  0  0
    3.4806    0.0000    0.0000 C   0  0  0  0  0  0  0  0  0  0  0  0
    4.6239   -0.6606    0.0000 C   0  0  0  0  0  0  0  0  0  0  0  0
    5.7925    0.0000    0.0000 C   0  0  0  0  0  0  0  0  0  0  0  0
    6.9358   -0.6606    0.0000 C   0  0  0  0  0  0  0  0  0  0  0  0
    8.0791    0.0000    0.0000 C   0  0  0  0  0  0  0  0  0  0  0  0
    9.2223   -0.6606    0.0000 C   0  0  0  0  0  0  0  0  0  0  0  0
   10.3910    0.0000    0.0000 C   0  0  0  0  0  0  0  0  0  0  0  0
   11.5343   -0.6606    0.0000 C   0  0  0  0  0  0  0  0  0  0  0  0
   12.7029    0.0000    0.0000 C   0  0  0  0  0  0  0  0  0  0  0  0
   13.8716   -0.6606    0.0000 C   0  0  0  0  0  0  0  0  0  0  0  0
   15.0149    0.0000    0.0000 C   0  0  0  0  0  0  0  0  0  0  0  0
   16.1835   -0.6606    0.0000 C   0  0  0  0  0  0  0  0  0  0  0  0
   17.3014    0.0000    0.0000 C   0  0  0  0  0  0  0  0  0  0  0  0
   18.4701   -0.6606    0.0000 C   0  0  0  0  0  0  0  0  0  0  0  0
   19.6133    0.0000    0.0000 C   0  0  0  0  0  0  0  0  0  0  0  0
   23.0939   -0.6606    0.0000 C   0  0  0  0  0  0  0  0  0  0  0  0
   23.0939   -1.9817    0.0000 O   0  0  0  0  0  0  0  0  0  0  0  0
   20.7820   -0.6606    0.0000 O   0  0  0  0  0  0  0  0  0  0  0  0
   25.4059   -0.6606    0.0000 O   0  0  0  0  0  0  0  0  0  0  0  0
   24.2372    0.0000    0.0000 C   0  0  0  0  0  0  0  0  0  0  0  0
   21.9253    0.0000    0.0000 C   0  0  0  0  0  0  0  0  0  0  0  0
  1  2  1  0  0  0  0
  2  3  1  0  0  0  0
  3  4  1  0  0  0  0
  4  5  1  0  0  0  0
  5  6  1  0  0  0  0
  6  7  1  0  0  0  0
  7  8  1  0  0  0  0
  8  9  1  0  0  0  0
  9 10  1  0  0  0  0
 10 11  1  0  0  0  0
 11 12  1  0  0  0  0
 12 13  1  0  0  0  0
 13 14  1  0  0  0  0
 14 15  1  0  0  0  0
 15 16  1  0  0  0  0
 16 17  1  0  0  0  0
 17 18  1  0  0  0  0
 18 21  1  0  0  0  0
 19 20  1  0  0  0  0
 19 23  1  0  0  0  0
 19 24  1  0  0  0  0
 21 24  1  0  0  0  0
 22 23  1  0  0  0  0
M  END
> <ID>
5749

> <Formula>
C21H44O3

> <FW>
344.5723

> <DSSTox_CID>
8956

> <DSSTox_RID>
82552

> <DSSTox_GSID>
47799

> <DSSTox_FileID_Sort>
7231

> <TS_ChemName>
3-(Octadecyloxy)-1,2-propanediol

> <TS_ChemName_Synonyms>


> <TS_CASRN>
544-62-7

> <CASRN_ChemName_Relationship>
primary

> <TS_Description>
single chemical compound

> <ChemNote>


> <STRUCTURE_Shown>
tested chemical

> <STRUCTURE_Formula>
C21H44O3

> <STRUCTURE_MW>
344.5723

> <STRUCTURE_ChemType>
defined organic

> <STRUCTURE_DefinedOrganicForm>
parent

> <STRUCTURE_IUPAC>
3-(octadecyloxy)propane-1,2-diol

> <STRUCTURE_SMILES>
OC(CO)COCCCCCCCCCCCCCCCCCC

> <STRUCTURE_SMILES_Desalt>
OC(CO)COCCCCCCCCCCCCCCCCCC

> <Substance_modify_yyyymmdd>
20110824

$$$$
