544-16-1
ChemmineR-0915142007XD

  7  6  0  0  0  0  0  0  0  0  1 V2000
    0.0000    0.0000    0.0000 C   0  0  0  0  0  0  0  0  0  0  0  0
    1.3288    0.0000    0.0000 C   0  0  0  0  0  0  0  0  0  0  0  0
    1.9932   -1.1492    0.0000 C   0  0  0  0  0  0  0  0  0  0  0  0
    3.3280   -1.1492    0.0000 C   0  0  0  0  0  0  0  0  0  0  0  0
    5.3212   -2.3045    0.0000 N   0  0  0  0  0  0  0  0  0  0  0  0
    5.9856   -3.4537    0.0000 O   0  0  0  0  0  0  0  0  0  0  0  0
    3.9924   -2.3045    0.0000 O   0  0  0  0  0  0  0  0  0  0  0  0
  1  2  1  0  0  0  0
  2  3  1  0  0  0  0
  3  4  1  0  0  0  0
  4  7  1  0  0  0  0
  5  6  2  0  0  0  0
  5  7  1  0  0  0  0
M  END
> <ID>
14282

> <Formula>
C4H9NO2

> <FW>
103.1198

> <DSSTox_CID>
29378

> <DSSTox_RID>
83493

> <DSSTox_GSID>
49418

> <DSSTox_FileID_Sort>
8168

> <TS_ChemName>
N-Butylnitrite

> <TS_ChemName_Synonyms>


> <TS_CASRN>
544-16-1

> <CASRN_ChemName_Relationship>
primary

> <TS_Description>
single chemical compound

> <ChemNote>
stereochem

> <STRUCTURE_Shown>
tested chemical

> <STRUCTURE_Formula>
C4H9NO2

> <STRUCTURE_MW>
103.1198

> <STRUCTURE_ChemType>
defined organic

> <STRUCTURE_DefinedOrganicForm>
parent

> <STRUCTURE_IUPAC>
butyl nitrite

> <STRUCTURE_SMILES>
CCCCON=O

> <STRUCTURE_SMILES_Desalt>
CCCCON=O

> <Substance_modify_yyyymmdd>
20111204

$$$$
