544-40-1
ChemmineR-0915142007XD

  9  8  0  0  0  0  0  0  0  0  1 V2000
    0.0000   -0.6638    0.0000 C   0  0  0  0  0  0  0  0  0  0  0  0
    1.1525    0.0000    0.0000 C   0  0  0  0  0  0  0  0  0  0  0  0
    2.3050   -0.6638    0.0000 C   0  0  0  0  0  0  0  0  0  0  0  0
    3.4575    0.0000    0.0000 C   0  0  0  0  0  0  0  0  0  0  0  0
    4.6099   -0.6638    0.0000 S   0  0  0  0  0  0  0  0  0  0  0  0
    5.7624    0.0000    0.0000 C   0  0  0  0  0  0  0  0  0  0  0  0
    6.9149   -0.6638    0.0000 C   0  0  0  0  0  0  0  0  0  0  0  0
    8.0674    0.0000    0.0000 C   0  0  0  0  0  0  0  0  0  0  0  0
    9.2199   -0.6638    0.0000 C   0  0  0  0  0  0  0  0  0  0  0  0
  1  2  1  0  0  0  0
  2  3  1  0  0  0  0
  3  4  1  0  0  0  0
  4  5  1  0  0  0  0
  5  6  1  0  0  0  0
  6  7  1  0  0  0  0
  7  8  1  0  0  0  0
  8  9  1  0  0  0  0
M  END
> <ID>
1902

> <Formula>
C8H18S

> <FW>
146.2935

> <DSSTox_CID>
2058

> <DSSTox_RID>
76475

> <DSSTox_GSID>
22058

> <DSSTox_FileID_Sort>
1159

> <TS_ChemName>
Dibutyl sulfide

> <TS_ChemName_Synonyms>


> <TS_CASRN>
544-40-1

> <CASRN_ChemName_Relationship>
primary

> <TS_Description>
single chemical compound

> <ChemNote>


> <STRUCTURE_Shown>
tested chemical

> <STRUCTURE_Formula>
C8H18S

> <STRUCTURE_MW>
146.2935

> <STRUCTURE_ChemType>
defined organic

> <STRUCTURE_DefinedOrganicForm>
parent

> <STRUCTURE_IUPAC>
1-(butylsulfanyl)butane

> <STRUCTURE_SMILES>
CCCCSCCCC

> <STRUCTURE_SMILES_Desalt>
CCCCSCCCC

> <Substance_modify_yyyymmdd>
20080429

$$$$
