54400-59-8
ChemmineR-0915142007XD

 20 22  0  0  0  0  0  0  0  0  1 V2000
    1.9982    0.0000    0.0000 C   0  0  0  0  0  0  0  0  0  0  0  0
    1.3359   -1.1533    0.0000 C   0  0  0  0  0  0  0  0  0  0  0  0
    0.0000   -1.1533    0.0000 C   0  0  0  0  0  0  0  0  0  0  0  0
    1.9982   -2.3065    0.0000 C   0  0  0  0  0  0  0  0  0  0  0  0
    1.3359   -3.4598    0.0000 O   0  0  0  0  0  0  0  0  0  0  0  0
    3.3227   -2.3065    0.0000 N   0  0  0  0  0  0  0  0  0  0  0  0
    3.9964   -3.4598    0.0000 C   0  0  0  0  0  0  0  0  0  0  0  0
    3.3227   -4.6130    0.0000 C   0  0  0  0  0  0  0  0  0  0  0  0
    3.9964   -5.7663    0.0000 C   0  0  0  0  0  0  0  0  0  0  0  0
    5.3209   -5.7663    0.0000 C   0  0  0  0  0  0  0  0  0  0  0  0
    5.9946   -4.6130    0.0000 C   0  0  0  0  0  0  0  0  0  0  0  0
    5.3209   -3.4598    0.0000 C   0  0  0  0  0  0  0  0  0  0  0  0
    7.3191   -4.6130    0.0000 C   0  0  0  0  0  0  0  0  0  0  0  0
    8.1070   -5.6863    0.0000 C   0  0  0  0  0  0  0  0  0  0  0  0
    9.3744   -5.2753    0.0000 N   0  0  0  0  0  0  0  0  0  0  0  0
   10.6305   -5.6863    0.0000 C   0  0  0  0  0  0  0  0  0  0  0  0
   11.4183   -4.6130    0.0000 C   0  0  0  0  0  0  0  0  0  0  0  0
   10.6305   -3.5397    0.0000 S   0  0  0  0  0  0  0  0  0  0  0  0
    9.3744   -3.9507    0.0000 C   0  0  0  0  0  0  0  0  0  0  0  0
    8.1070   -3.5397    0.0000 N   0  0  0  0  0  0  0  0  0  0  0  0
  1  2  1  0  0  0  0
  2  3  1  0  0  0  0
  2  4  1  0  0  0  0
  4  5  2  0  0  0  0
  4  6  1  0  0  0  0
  6  7  1  0  0  0  0
  7  8  2  0  0  0  0
  7 12  1  0  0  0  0
  8  9  1  0  0  0  0
  9 10  2  0  0  0  0
 10 11  1  0  0  0  0
 11 12  2  0  0  0  0
 11 13  1  0  0  0  0
 13 14  1  0  0  0  0
 13 20  1  0  0  0  0
 14 15  1  0  0  0  0
 15 16  1  0  0  0  0
 15 19  1  0  0  0  0
 16 17  1  0  0  0  0
 17 18  1  0  0  0  0
 18 19  1  0  0  0  0
 19 20  2  0  0  0  0
M  END
> <ID>
16169

> <Formula>
C15H19N3OS

> <FW>
289.3959

> <DSSTox_CID>
31559

> <DSSTox_RID>
97444

> <DSSTox_GSID>
57770

> <DSSTox_FileID_Sort>
8511

> <TS_ChemName>
Butamisole

> <TS_ChemName_Synonyms>


> <TS_CASRN>
54400-59-8

> <CASRN_ChemName_Relationship>
primary

> <TS_Description>
single chemical compound

> <ChemNote>


> <STRUCTURE_Shown>
tested chemical

> <STRUCTURE_Formula>
C15H19N3OS

> <STRUCTURE_MW>
289.3959

> <STRUCTURE_ChemType>
defined organic

> <STRUCTURE_DefinedOrganicForm>
parent

> <STRUCTURE_IUPAC>
2-methyl-N-[3-(2,3,5,6-tetrahydroimidazo[2,1-b][1,3]thiazol-6-yl)phenyl]propanamide

> <STRUCTURE_SMILES>
CC(C)C(=O)Nc1cccc(c1)C2N=C3SCCN3C2

> <STRUCTURE_SMILES_Desalt>
CC(C)C(=O)Nc1cccc(c1)C2N=C3SCCN3C2

> <Substance_modify_yyyymmdd>
20131018

$$$$
