5444-75-7
ChemmineR-0915142007XD

 17 17  0  0  0  0  0  0  0  0  1 V2000
    3.4747   -1.3391    0.0000 C   0  0  0  0  0  0  0  0  0  0  0  0
    3.4747    0.0000    0.0000 O   0  0  0  0  0  0  0  0  0  0  0  0
    2.2972   -1.9971    0.0000 C   0  0  0  0  0  0  0  0  0  0  0  0
    4.6175   -1.9971    0.0000 O   0  0  0  0  0  0  0  0  0  0  0  0
    1.1544   -1.3391    0.0000 C   0  0  0  0  0  0  0  0  0  0  0  0
    2.2972   -3.3361    0.0000 C   0  0  0  0  0  0  0  0  0  0  0  0
    0.0000   -1.9971    0.0000 C   0  0  0  0  0  0  0  0  0  0  0  0
    1.1544   -3.9941    0.0000 C   0  0  0  0  0  0  0  0  0  0  0  0
    0.0000   -3.3361    0.0000 C   0  0  0  0  0  0  0  0  0  0  0  0
    5.7719   -1.3391    0.0000 C   0  0  0  0  0  0  0  0  0  0  0  0
    6.9263   -1.9971    0.0000 C   0  0  0  0  0  0  0  0  0  0  0  0
    8.0691   -1.3391    0.0000 C   0  0  0  0  0  0  0  0  0  0  0  0
    9.2466   -1.9971    0.0000 C   0  0  0  0  0  0  0  0  0  0  0  0
   10.3894   -1.3391    0.0000 C   0  0  0  0  0  0  0  0  0  0  0  0
   11.5438   -1.9971    0.0000 C   0  0  0  0  0  0  0  0  0  0  0  0
    6.9263   -3.3361    0.0000 C   0  0  0  0  0  0  0  0  0  0  0  0
    8.0691   -3.9941    0.0000 C   0  0  0  0  0  0  0  0  0  0  0  0
  1  2  2  0  0  0  0
  1  3  1  0  0  0  0
  1  4  1  0  0  0  0
  3  5  2  0  0  0  0
  3  6  1  0  0  0  0
  4 10  1  0  0  0  0
  5  7  1  0  0  0  0
  6  8  2  0  0  0  0
  7  9  2  0  0  0  0
  8  9  1  0  0  0  0
 10 11  1  0  0  0  0
 11 12  1  0  0  0  0
 11 16  1  0  0  0  0
 12 13  1  0  0  0  0
 13 14  1  0  0  0  0
 14 15  1  0  0  0  0
 16 17  1  0  0  0  0
M  END
> <ID>
8610

> <Formula>
C15H22O2

> <FW>
234.334

> <DSSTox_CID>
21654

> <DSSTox_RID>
79804

> <DSSTox_GSID>
41654

> <DSSTox_FileID_Sort>
4486

> <TS_ChemName>
2-Ethylhexyl benzoate

> <TS_ChemName_Synonyms>
Benzoic acid, 2-ethylhexyl ester

> <TS_CASRN>
5444-75-7

> <CASRN_ChemName_Relationship>
primary

> <TS_Description>
single chemical compound

> <ChemNote>


> <STRUCTURE_Shown>
tested chemical

> <STRUCTURE_Formula>
C15H22O2

> <STRUCTURE_MW>
234.334

> <STRUCTURE_ChemType>
defined organic

> <STRUCTURE_DefinedOrganicForm>
parent

> <STRUCTURE_IUPAC>
2-ethylhexyl benzoate

> <STRUCTURE_SMILES>
CCC(COC(=O)c1ccccc1)CCCC

> <STRUCTURE_SMILES_Desalt>
CCC(COC(=O)c1ccccc1)CCCC

> <Substance_modify_yyyymmdd>
20080825

$$$$
