54464-57-2
ChemmineR-0915142007XD

 17 18  0  0  0  0  0  0  0  0  1 V2000
    5.9167   -1.8210    0.0000 C   0  0  0  0  0  0  0  0  0  0  0  0
    6.5741   -2.9715    0.0000 C   0  0  0  0  0  0  0  0  0  0  0  0
    6.5741   -0.6706    0.0000 O   0  0  0  0  0  0  0  0  0  0  0  0
    2.3009   -1.8210    0.0000 C   0  0  0  0  0  0  0  0  0  0  0  0
    2.3009   -3.1424    0.0000 C   0  0  0  0  0  0  0  0  0  0  0  0
    1.1505   -1.1505    0.0000 C   0  0  0  0  0  0  0  0  0  0  0  0
    1.1505   -3.7998    0.0000 C   0  0  0  0  0  0  0  0  0  0  0  0
    3.4448   -3.7998    0.0000 C   0  0  0  0  0  0  0  0  0  0  0  0
    3.4448   -1.1505    0.0000 C   0  0  0  0  0  0  0  0  0  0  0  0
    4.5953   -1.8210    0.0000 C   0  0  0  0  0  0  0  0  0  0  0  0
    4.5953   -3.1424    0.0000 C   0  0  0  0  0  0  0  0  0  0  0  0
    0.0000   -3.1424    0.0000 C   0  0  0  0  0  0  0  0  0  0  0  0
    0.0000   -1.8210    0.0000 C   0  0  0  0  0  0  0  0  0  0  0  0
    4.5624   -0.4142    0.0000 C   0  0  0  0  0  0  0  0  0  0  0  0
    5.7458   -3.7998    0.0000 C   0  0  0  0  0  0  0  0  0  0  0  0
    1.8210    0.0000    0.0000 C   0  0  0  0  0  0  0  0  0  0  0  0
    0.4931    0.0000    0.0000 C   0  0  0  0  0  0  0  0  0  0  0  0
  1  2  1  0  0  0  0
  1  3  2  0  0  0  0
  1 10  1  0  0  0  0
  4  5  2  0  0  0  0
  4  6  1  0  0  0  0
  4  9  1  0  0  0  0
  5  7  1  0  0  0  0
  5  8  1  0  0  0  0
  6 13  1  0  0  0  0
  6 16  1  0  0  0  0
  6 17  1  0  0  0  0
  7 12  1  0  0  0  0
  8 11  1  0  0  0  0
  9 10  1  0  0  0  0
 10 11  1  0  0  0  0
 10 14  1  0  0  0  0
 11 15  1  0  0  0  0
 12 13  1  0  0  0  0
M  END
> <ID>
6321

> <Formula>
C16H26O

> <FW>
234.377

> <DSSTox_CID>
11290

> <DSSTox_RID>
78869

> <DSSTox_GSID>
31290

> <DSSTox_FileID_Sort>
3551

> <TS_ChemName>
1-(2,3,8,8-Tetramethyl-1,2,3,4,5,6,7,8-octahydronaphthalen-2-yl)ethanone

> <TS_ChemName_Synonyms>
Iso-E Super

> <TS_CASRN>
54464-57-2

> <CASRN_ChemName_Relationship>
primary

> <TS_Description>
single chemical compound

> <ChemNote>


> <STRUCTURE_Shown>
tested chemical

> <STRUCTURE_Formula>
C16H26O

> <STRUCTURE_MW>
234.377

> <STRUCTURE_ChemType>
defined organic

> <STRUCTURE_DefinedOrganicForm>
parent

> <STRUCTURE_IUPAC>
1-(2,3,8,8-tetramethyl-1,2,3,4,5,6,7,8-octahydronaphthalen-2-yl)ethanone

> <STRUCTURE_SMILES>
CC(=O)C2(C)CC1=C(CCCC1(C)C)CC2C

> <STRUCTURE_SMILES_Desalt>
CC(=O)C2(C)CC1=C(CCCC1(C)C)CC2C

> <Substance_modify_yyyymmdd>
20080429

$$$$
