54504-70-0
ChemmineR-0915142007XD

 29 31  0  0  0  0  0  0  0  0  1 V2000
    2.8030   -1.2948    0.0000 N    0  0  0  0  0  0  0  0  0  0  0  0
    3.0876    0.0000    0.0000 C    0  0  0  0  0  0  0  0  0  0  0  0
    1.5367   -1.7074    0.0000 C    0  0  0  0  0  0  0  0  0  0  0  0
    0.5549   -0.8110    0.0000 O    0  0  0  0  0  0  0  0  0  0  0  0
    1.2664   -3.0023    0.0000 N    0  0  0  0  0  0  0  0  0  0  0  0
    0.0000   -3.4149    0.0000 C    0  0  0  0  0  0  0  0  0  0  0  0
    2.2481   -3.8987    0.0000 C    0  0  0  0  0  0  0  0  0  0  0  0
    3.5145   -3.4860    0.0000 C    0  0  0  0  0  0  0  0  0  0  0  0
    3.7991   -2.1912    0.0000 C    0  0  0  0  0  0  0  0  0  0  0  0
    5.0654   -1.7786    0.0000 O    0  0  0  0  0  0  0  0  0  0  0  0
    4.2971   -4.5674    0.0000 N    0  0  0  0  0  0  0  0  0  0  0  0
    5.6346   -4.5674    0.0000 C    0  0  0  0  0  0  0  0  0  0  0  0
    6.2891   -5.7199    0.0000 C    0  0  0  0  0  0  0  0  0  0  0  0
    7.6266   -5.7199    0.0000 O    0  0  0  0  0  0  0  0  0  0  0  0
    8.2953   -6.8725    0.0000 C    0  0  0  0  0  0  0  0  0  0  0  0
    7.6266   -8.0107    0.0000 O    0  0  0  0  0  0  0  0  0  0  0  0
    9.6186   -6.8725    0.0000 C    0  0  0  0  0  0  0  0  0  0  0  0
   10.9561   -6.8725    0.0000 C    0  0  0  0  0  0  0  0  0  0  0  0
    9.6186   -8.1957    0.0000 C    0  0  0  0  0  0  0  0  0  0  0  0
    9.6186   -5.5350    0.0000 O    0  0  0  0  0  0  0  0  0  0  0  0
   10.7711   -4.8662    0.0000 C    0  0  0  0  0  0  0  0  0  0  0  0
   10.7711   -3.5429    0.0000 C    0  0  0  0  0  0  0  0  0  0  0  0
   11.9236   -2.8742    0.0000 C    0  0  0  0  0  0  0  0  0  0  0  0
   13.0762   -3.5429    0.0000 C    0  0  0  0  0  0  0  0  0  0  0  0
   14.2287   -2.8742    0.0000 Cl   0  0  0  0  0  0  0  0  0  0  0  0
   13.0762   -4.8662    0.0000 C    0  0  0  0  0  0  0  0  0  0  0  0
   11.9236   -5.5350    0.0000 C    0  0  0  0  0  0  0  0  0  0  0  0
    3.5145   -5.6346    0.0000 C    0  0  0  0  0  0  0  0  0  0  0  0
    2.2481   -5.2219    0.0000 N    0  0  0  0  0  0  0  0  0  0  0  0
  1  2  1  0  0  0  0
  1  3  1  0  0  0  0
  1  9  1  0  0  0  0
  3  4  2  0  0  0  0
  3  5  1  0  0  0  0
  5  6  1  0  0  0  0
  5  7  1  0  0  0  0
  7  8  2  0  0  0  0
  7 29  1  0  0  0  0
  8  9  1  0  0  0  0
  8 11  1  0  0  0  0
  9 10  2  0  0  0  0
 11 12  1  0  0  0  0
 11 28  1  0  0  0  0
 12 13  1  0  0  0  0
 13 14  1  0  0  0  0
 14 15  1  0  0  0  0
 15 16  2  0  0  0  0
 15 17  1  0  0  0  0
 17 18  1  0  0  0  0
 17 19  1  0  0  0  0
 17 20  1  0  0  0  0
 20 21  1  0  0  0  0
 21 22  2  0  0  0  0
 21 27  1  0  0  0  0
 22 23  1  0  0  0  0
 23 24  2  0  0  0  0
 24 25  1  0  0  0  0
 24 26  1  0  0  0  0
 26 27  2  0  0  0  0
 28 29  2  0  0  0  0
M  END
> <ID>
2725

> <Formula>
C19H21ClN4O5

> <FW>
420.8468

> <DSSTox_CID>
3032

> <DSSTox_RID>
76840

> <DSSTox_GSID>
23032

> <DSSTox_FileID_Sort>
1524

> <TS_ChemName>
Etofylline clofibrate

> <TS_ChemName_Synonyms>


> <TS_CASRN>
54504-70-0

> <CASRN_ChemName_Relationship>
primary

> <TS_Description>
single chemical compound

> <ChemNote>


> <STRUCTURE_Shown>
tested chemical

> <STRUCTURE_Formula>
C19H21ClN4O5

> <STRUCTURE_MW>
420.8468

> <STRUCTURE_ChemType>
defined organic

> <STRUCTURE_DefinedOrganicForm>
parent

> <STRUCTURE_IUPAC>
2-(1,3-dimethyl-2,6-dioxo-1,2,3,6-tetrahydro-7H-purin-7-yl)ethyl 2-(4-chlorophenoxy)-2-methylpropanoate

> <STRUCTURE_SMILES>
Clc1ccc(cc1)OC(C)(C)C(=O)OCCn3cnc2c3C(=O)N(C)C(=O)N2C

> <STRUCTURE_SMILES_Desalt>
Clc1ccc(cc1)OC(C)(C)C(=O)OCCn3cnc2c3C(=O)N(C)C(=O)N2C

> <Substance_modify_yyyymmdd>
20080429

$$$$
