54527-84-3
ChemmineR-0915142007XD

 36 37  0  0  0  0  0  0  0  0  2 V2000
    6.9420   -2.0092    0.0000 C    0  0  0  0  0  0  0  0  0  0  0  0
    4.6557   -2.0092    0.0000 C    0  0  0  0  0  0  0  0  0  0  0  0
    5.7919   -2.6604    0.0000 C    0  0  0  0  0  0  0  0  0  0  0  0
    6.9420   -0.6651    0.0000 C    0  0  0  0  0  0  0  0  0  0  0  0
    4.6557   -0.6651    0.0000 C    0  0  0  0  0  0  0  0  0  0  0  0
    5.7919   -0.0139    0.0000 N    0  0  0  0  0  0  0  0  0  0  0  0
    8.1060   -6.6926    0.0000 N    0  3  0  0  0  0  0  0  0  0  0  0
    5.7919   -4.0045    0.0000 C    0  0  0  0  0  0  0  0  0  0  0  0
    8.1060   -2.6881    0.0000 C    0  0  0  0  0  0  0  0  0  0  0  0
    3.5057   -2.6604    0.0000 C    0  0  0  0  0  0  0  0  0  0  0  0
    6.9420   -5.9998    0.0000 C    0  0  0  0  0  0  0  0  0  0  0  0
    6.9420   -4.6557    0.0000 C    0  0  0  0  0  0  0  0  0  0  0  0
    9.2560   -6.0136    0.0000 O    0  5  0  0  0  0  0  0  0  0  0  0
    8.1060   -8.0090    0.0000 O    0  0  0  0  0  0  0  0  0  0  0  0
    9.2560   -2.0230    0.0000 O    0  0  0  0  0  0  0  0  0  0  0  0
    2.3279   -1.9953    0.0000 O    0  0  0  0  0  0  0  0  0  0  0  0
   11.5562   -4.6973    0.0000 N    0  0  0  0  0  0  0  0  0  0  0  0
    8.1060   -4.0183    0.0000 O    0  0  0  0  0  0  0  0  0  0  0  0
   12.7201   -4.0183    0.0000 C    0  0  0  0  0  0  0  0  0  0  0  0
    3.5057   -4.0045    0.0000 O    0  0  0  0  0  0  0  0  0  0  0  0
    3.4779    0.0000    0.0000 C    0  0  0  0  0  0  0  0  0  0  0  0
    8.0367   -0.0554    0.0000 C    0  0  0  0  0  0  0  0  0  0  0  0
    4.6557   -4.6557    0.0000 C    0  0  0  0  0  0  0  0  0  0  0  0
   12.7201   -2.7020    0.0000 C    0  0  0  0  0  0  0  0  0  0  0  0
    9.2560   -4.6973    0.0000 C    0  0  0  0  0  0  0  0  0  0  0  0
    5.7919   -6.6510    0.0000 C    0  0  0  0  0  0  0  0  0  0  0  0
    4.6557   -5.9998    0.0000 C    0  0  0  0  0  0  0  0  0  0  0  0
   10.4061   -4.0183    0.0000 C    0  0  0  0  0  0  0  0  0  0  0  0
   11.5562   -6.0136    0.0000 C    0  0  0  0  0  0  0  0  0  0  0  0
    2.3279   -4.6973    0.0000 C    0  0  0  0  0  0  0  0  0  0  0  0
   13.8563   -2.0369    0.0000 C    0  0  0  0  0  0  0  0  0  0  0  0
   11.5562   -2.0369    0.0000 C    0  0  0  0  0  0  0  0  0  0  0  0
   11.5562   -0.7067    0.0000 C    0  0  0  0  0  0  0  0  0  0  0  0
   13.8563   -0.7067    0.0000 C    0  0  0  0  0  0  0  0  0  0  0  0
   12.7201   -0.0416    0.0000 C    0  0  0  0  0  0  0  0  0  0  0  0
    0.0000   -2.6188    0.0000 Cl   0  0  0  0  0  0  0  0  0  0  0  0
  1  3  1  0  0  0  0
  1  4  2  0  0  0  0
  1  9  1  0  0  0  0
  2  3  1  0  0  0  0
  2 10  1  0  0  0  0
  2  5  2  0  0  0  0
  3  8  1  0  0  0  0
  4  6  1  0  0  0  0
  4 22  1  0  0  0  0
  5  6  1  0  0  0  0
  5 21  1  0  0  0  0
  7 11  1  0  0  0  0
  7 13  1  0  0  0  0
  7 14  2  0  0  0  0
  8 12  2  0  0  0  0
  8 23  1  0  0  0  0
  9 15  2  0  0  0  0
  9 18  1  0  0  0  0
 10 16  2  0  0  0  0
 10 20  1  0  0  0  0
 11 12  1  0  0  0  0
 11 26  2  0  0  0  0
 17 28  1  0  0  0  0
 17 19  1  0  0  0  0
 17 29  1  0  0  0  0
 18 25  1  0  0  0  0
 19 24  1  0  0  0  0
 20 30  1  0  0  0  0
 23 27  2  0  0  0  0
 24 31  1  0  0  0  0
 24 32  2  0  0  0  0
 25 28  1  0  0  0  0
 26 27  1  0  0  0  0
 31 34  2  0  0  0  0
 32 33  1  0  0  0  0
 33 35  2  0  0  0  0
 34 35  1  0  0  0  0
M  END
> <ID>
12148

> <Formula>
C26H30ClN3O6

> <FW>
515.9859 (479.5250+36.4609)

> <DSSTox_CID>
26992

> <DSSTox_RID>
82040

> <DSSTox_GSID>
46992

> <DSSTox_FileID_Sort>
6721

> <TS_ChemName>
Nicardipine hydrochloride

> <TS_ChemName_Synonyms>


> <TS_CASRN>
54527-84-3

> <CASRN_ChemName_Relationship>
primary

> <TS_Description>
single chemical compound

> <ChemNote>
parent [55985-32-5]

> <STRUCTURE_Shown>
tested chemical

> <STRUCTURE_Formula>
C26H30ClN3O6

> <STRUCTURE_MW>
515.9859

> <STRUCTURE_ChemType>
defined organic

> <STRUCTURE_DefinedOrganicForm>
complex

> <STRUCTURE_IUPAC>
2-[benzyl(methyl)amino]ethyl methyl 2,6-dimethyl-4-(3-nitrophenyl)-1,4-dihydropyridine-3,5-dicarboxylate hydrochloride (1:1)

> <STRUCTURE_SMILES>
Cl.CC=2NC(C)=C(C(C=2C(=O)OCCN(C)Cc1ccccc1)c3cccc(c3)[N+]([O-])=O)C(=O)OC

> <STRUCTURE_SMILES_Desalt>
CC=2NC(C)=C(C(C=2C(=O)OCCN(C)Cc1ccccc1)c3cccc(c3)[N+]([O-])=O)C(=O)OC

> <Substance_modify_yyyymmdd>
20100317

$$$$
