54533-86-7
ChemmineR-0915142007XD

 29 31  0  0  0  0  0  0  0  0  2 V2000
    4.6406   -5.6668    0.0000 C    0  0  0  0  0  0  0  0  0  0  0  0
    5.7808   -3.6600    0.0000 N    0  0  0  0  0  0  0  0  0  0  0  0
    5.7922   -5.0283    0.0000 C    0  0  0  0  0  0  0  0  0  0  0  0
    6.8412   -2.8505    0.0000 C    0  0  0  0  0  0  0  0  0  0  0  0
    3.4776   -5.0055    0.0000 C    0  0  0  0  0  0  0  0  0  0  0  0
    5.7922   -8.9847    0.0000 N    0  3  0  0  0  0  0  0  0  0  0  0
    2.3374   -5.6326    0.0000 C    0  0  0  0  0  0  0  0  0  0  0  0
    4.6406   -6.9894    0.0000 C    0  0  0  0  0  0  0  0  0  0  0  0
    6.3965   -1.6077    0.0000 N    0  0  0  0  0  0  0  0  0  0  0  0
    5.7922   -7.6279    0.0000 C    0  0  0  0  0  0  0  0  0  0  0  0
    6.9438   -5.6668    0.0000 C    0  0  0  0  0  0  0  0  0  0  0  0
    4.6862   -2.8847    0.0000 C    0  0  0  0  0  0  0  0  0  0  0  0
    5.1081   -1.6077    0.0000 C    0  0  0  0  0  0  0  0  0  0  0  0
    6.9210   -9.6460    0.0000 O    0  5  0  0  0  0  0  0  0  0  0  0
    8.1524   -3.2496    0.0000 C    0  0  0  0  0  0  0  0  0  0  0  0
    4.6406   -9.6460    0.0000 O    0  0  0  0  0  0  0  0  0  0  0  0
    1.1744   -5.0055    0.0000 C    0  0  0  0  0  0  0  0  0  0  0  0
    3.4776   -3.7056    0.0000 O    0  0  0  0  0  0  0  0  0  0  0  0
    6.9438   -6.9552    0.0000 C    0  0  0  0  0  0  0  0  0  0  0  0
    9.1444   -2.3374    0.0000 N    0  0  0  0  0  0  0  0  0  0  0  0
    1.1744   -3.7056    0.0000 Cl   0  0  0  0  0  0  0  0  0  0  0  0
    2.3374   -6.9894    0.0000 C    0  0  0  0  0  0  0  0  0  0  0  0
    0.0000   -5.6668    0.0000 C    0  0  0  0  0  0  0  0  0  0  0  0
    8.8251   -1.0148    0.0000 C    0  0  0  0  0  0  0  0  0  0  0  0
   10.4214   -2.7251    0.0000 C    0  0  0  0  0  0  0  0  0  0  0  0
    1.1744   -7.6507    0.0000 C    0  0  0  0  0  0  0  0  0  0  0  0
    9.6803    0.0000    0.0000 C    0  0  0  0  0  0  0  0  0  0  0  0
   11.4019   -1.8243    0.0000 C    0  0  0  0  0  0  0  0  0  0  0  0
    0.0000   -6.9894    0.0000 C    0  0  0  0  0  0  0  0  0  0  0  0
  1  3  1  0  0  0  0
  1  5  1  0  0  0  0
  1  8  2  0  0  0  0
  2  3  1  0  0  0  0
  2  4  1  0  0  0  0
  2 12  1  0  0  0  0
  3 11  2  0  0  0  0
  4  9  2  0  0  0  0
  4 15  1  0  0  0  0
  5  7  1  0  0  0  0
  5 18  2  0  0  0  0
  6 10  1  0  0  0  0
  6 14  1  0  0  0  0
  6 16  2  0  0  0  0
  7 17  1  0  0  0  0
  7 22  2  0  0  0  0
  8 10  1  0  0  0  0
  9 13  1  0  0  0  0
 10 19  2  0  0  0  0
 11 19  1  0  0  0  0
 12 13  2  0  0  0  0
 15 20  1  0  0  0  0
 17 21  1  0  0  0  0
 17 23  2  0  0  0  0
 20 24  1  0  0  0  0
 20 25  1  0  0  0  0
 22 26  1  0  0  0  0
 23 29  1  0  0  0  0
 24 27  1  0  0  0  0
 25 28  1  0  0  0  0
 26 29  2  0  0  0  0
M  END
> <ID>
13634

> <Formula>
C21H21ClN4O3

> <FW>
412.8694

> <DSSTox_CID>
28563

> <DSSTox_RID>
82835

> <DSSTox_GSID>
48637

> <DSSTox_FileID_Sort>
7512

> <TS_ChemName>
Nizofenone

> <TS_ChemName_Synonyms>


> <TS_CASRN>
54533-86-7

> <CASRN_ChemName_Relationship>
primary

> <TS_Description>
single chemical compound

> <ChemNote>


> <STRUCTURE_Shown>
tested chemical

> <STRUCTURE_Formula>
C21H21ClN4O3

> <STRUCTURE_MW>
412.8694

> <STRUCTURE_ChemType>
defined organic

> <STRUCTURE_DefinedOrganicForm>
parent

> <STRUCTURE_IUPAC>
(2-chlorophenyl)(2-{2-[(diethylamino)methyl]-1H-imidazol-1-yl}-5-nitrophenyl)methanone

> <STRUCTURE_SMILES>
Clc1ccccc1C(=O)c2cc(ccc2n3ccnc3CN(CC)CC)[N+]([O-])=O

> <STRUCTURE_SMILES_Desalt>
Clc1ccccc1C(=O)c2cc(ccc2n3ccnc3CN(CC)CC)[N+]([O-])=O

> <Substance_modify_yyyymmdd>
20111015

$$$$
