54556-98-8
ChemmineR-0915142007XD

 28 29  0  0  0  0  0  0  0  0  1 V2000
    0.0000   -5.7674    0.0000 C    0  0  0  0  0  0  0  0  0  0  0  0
    1.3301   -5.7674    0.0000 C    0  0  0  0  0  0  0  0  0  0  0  0
    1.9952   -4.6118    0.0000 C    0  0  0  0  0  0  0  0  0  0  0  0
    3.3253   -4.6118    0.0000 O    0  0  0  0  0  0  0  0  0  0  0  0
    3.9794   -3.4561    0.0000 C    0  0  0  0  0  0  0  0  0  0  0  0
    5.1351   -4.1211    0.0000 C    0  0  0  0  0  0  0  0  0  0  0  0
    5.1351   -5.4622    0.0000 O    0  0  0  0  0  0  0  0  0  0  0  0
    6.2907   -3.4561    0.0000 O    0  0  0  0  0  0  0  0  0  0  0  0
    7.4464   -4.1211    0.0000 C    0  0  0  0  0  0  0  0  0  0  0  0
    8.5912   -3.4561    0.0000 C    0  0  0  0  0  0  0  0  0  0  0  0
    9.7468   -4.1211    0.0000 C    0  0  0  0  0  0  0  0  0  0  0  0
    9.7468   -5.4622    0.0000 N    0  0  0  0  0  0  0  0  0  0  0  0
   10.9025   -6.1163    0.0000 C    0  0  0  0  0  0  0  0  0  0  0  0
    8.5912   -6.1163    0.0000 C    0  0  0  0  0  0  0  0  0  0  0  0
    7.4464   -5.4622    0.0000 C    0  0  0  0  0  0  0  0  0  0  0  0
    2.8237   -2.7910    0.0000 C    0  0  0  0  0  0  0  0  0  0  0  0
    1.6899   -3.4561    0.0000 C    0  0  0  0  0  0  0  0  0  0  0  0
    0.5342   -2.7910    0.0000 C    0  0  0  0  0  0  0  0  0  0  0  0
    0.5342   -1.4609    0.0000 C    0  0  0  0  0  0  0  0  0  0  0  0
    1.6899   -0.8068    0.0000 C    0  0  0  0  0  0  0  0  0  0  0  0
    2.8237   -1.4609    0.0000 C    0  0  0  0  0  0  0  0  0  0  0  0
    4.6554   -2.2895    0.0000 C    0  0  0  0  0  0  0  0  0  0  0  0
    3.9794   -1.1557    0.0000 C    0  0  0  0  0  0  0  0  0  0  0  0
    4.6554    0.0000    0.0000 C    0  0  0  0  0  0  0  0  0  0  0  0
    5.9855    0.0000    0.0000 C    0  0  0  0  0  0  0  0  0  0  0  0
    6.6505   -1.1557    0.0000 C    0  0  0  0  0  0  0  0  0  0  0  0
    5.9855   -2.2895    0.0000 C    0  0  0  0  0  0  0  0  0  0  0  0
    8.1878   -1.6899    0.0000 Cl   0  0  0  0  0  0  0  0  0  0  0  0
  1  2  1  0  0  0  0
  2  3  1  0  0  0  0
  3  4  1  0  0  0  0
  4  5  1  0  0  0  0
  5  6  1  0  0  0  0
  5 16  1  0  0  0  0
  5 22  1  0  0  0  0
  6  7  2  0  0  0  0
  6  8  1  0  0  0  0
  8  9  1  0  0  0  0
  9 10  1  0  0  0  0
  9 15  1  0  0  0  0
 10 11  1  0  0  0  0
 11 12  1  0  0  0  0
 12 13  1  0  0  0  0
 12 14  1  0  0  0  0
 14 15  1  0  0  0  0
 16 17  2  0  0  0  0
 16 21  1  0  0  0  0
 17 18  1  0  0  0  0
 18 19  2  0  0  0  0
 19 20  1  0  0  0  0
 20 21  2  0  0  0  0
 22 23  2  0  0  0  0
 22 27  1  0  0  0  0
 23 24  1  0  0  0  0
 24 25  2  0  0  0  0
 25 26  1  0  0  0  0
 26 27  2  0  0  0  0
M  END
> <ID>
12020

> <Formula>
C23H30ClNO3

> <FW>
403.9422 (367.4813+36.4609)

> <DSSTox_CID>
26847

> <DSSTox_RID>
81957

> <DSSTox_GSID>
46847

> <DSSTox_FileID_Sort>
6638

> <TS_ChemName>
Propiverine hydrochloride

> <TS_ChemName_Synonyms>


> <TS_CASRN>
54556-98-8

> <CASRN_ChemName_Relationship>
primary

> <TS_Description>
single chemical compound

> <ChemNote>
parent [60569-19-9]

> <STRUCTURE_Shown>
tested chemical

> <STRUCTURE_Formula>
C23H30ClNO3

> <STRUCTURE_MW>
403.9422

> <STRUCTURE_ChemType>
defined organic

> <STRUCTURE_DefinedOrganicForm>
complex

> <STRUCTURE_IUPAC>
1-methylpiperidin-4-yl diphenyl(propoxy)acetate hydrochloride (1:1)

> <STRUCTURE_SMILES>
Cl.CN3CCC(OC(=O)C(OCCC)(c1ccccc1)c2ccccc2)CC3

> <STRUCTURE_SMILES_Desalt>
CN3CCC(OC(=O)C(OCCC)(c1ccccc1)c2ccccc2)CC3

> <Substance_modify_yyyymmdd>
20110729

$$$$
