54573-75-0
ChemmineR-0915142007XD

 31 33  0  0  1  0  0  0  0  0  1 V2000
    9.6696   -2.6687    0.0000 C   0  0  0  0  0  0  0  0  0  0  0  0
    9.6696   -4.0090    0.0000 C   0  0  0  0  0  0  0  0  0  0  0  0
    8.5207   -1.9985    0.0000 C   0  0  0  0  0  0  0  0  0  0  0  0
    8.5207   -4.6672    0.0000 C   0  0  0  0  0  0  0  0  0  0  0  0
    7.3599   -2.6687    0.0000 C   0  0  0  0  0  0  0  0  0  0  0  0
    7.3599   -4.0090    0.0000 C   0  0  0  0  0  0  0  0  0  0  0  0
    6.0913   -2.2618    0.0000 C   0  0  0  0  0  0  0  0  0  0  0  0
    5.3135   -3.3269    0.0000 C   0  0  0  0  0  0  0  0  0  0  0  0
    6.0913   -4.4040    0.0000 C   0  0  0  0  0  0  0  0  0  0  0  0
    7.3838   -1.3643    0.0000 C   0  0  0  0  0  0  0  0  0  0  0  0
    5.6845   -0.9933    0.0000 C   0  0  0  0  0  0  0  0  0  0  0  0
    8.5207   -5.9956    0.0000 C   0  0  0  0  0  0  0  0  0  0  0  0
    9.6696   -6.6658    0.0000 C   0  0  0  0  0  0  0  0  0  0  0  0
    9.6696   -7.9941    0.0000 C   0  0  0  0  0  0  0  0  0  0  0  0
   10.8304   -8.6523    0.0000 C   0  0  0  0  0  0  0  0  0  0  0  0
   10.8304   -9.9927    0.0000 C   0  0  0  0  0  0  0  0  0  0  0  0
    9.6696  -10.6628    0.0000 C   0  0  0  0  0  0  0  0  0  0  0  0
    8.5207   -8.6523    0.0000 C   0  0  0  0  0  0  0  0  0  0  0  0
    8.5207   -9.9927    0.0000 C   0  0  0  0  0  0  0  0  0  0  0  0
    7.3599   -7.9941    0.0000 C   0  0  0  0  0  0  0  0  0  0  0  0
    7.3599  -10.6628    0.0000 O   0  0  0  0  0  0  0  0  0  0  0  0
   11.9673  -10.6628    0.0000 O   0  0  0  0  0  0  0  0  0  0  0  0
    4.3800   -0.7180    0.0000 C   0  0  0  0  0  0  0  0  0  0  0  0
    6.5820    0.0000    0.0000 C   0  0  0  0  0  0  0  0  0  0  0  0
    3.4944   -1.6994    0.0000 C   0  0  0  0  0  0  0  0  0  0  0  0
    2.1780   -1.4241    0.0000 C   0  0  0  0  0  0  0  0  0  0  0  0
    1.3044   -2.4174    0.0000 C   0  0  0  0  0  0  0  0  0  0  0  0
    1.7831   -0.1556    0.0000 C   0  0  0  0  0  0  0  0  0  0  0  0
    0.0000   -2.1421    0.0000 C   0  0  0  0  0  0  0  0  0  0  0  0
    1.6994   -3.6859    0.0000 C   0  0  0  0  0  0  0  0  0  0  0  0
    7.3838   -5.3015    0.0000 H   0  0  0  0  0  0  0  0  0  0  0  0
  1  2  1  0  0  0  0
  1  3  1  0  0  0  0
  2  4  1  0  0  0  0
  3  5  1  0  0  0  0
  4  6  1  0  0  0  0
  4 12  2  0  0  0  0
  5  7  1  0  0  0  0
  5  6  1  0  0  0  0
  5 10  1  6  0  0  0
  6  9  1  0  0  0  0
  6 31  1  1  0  0  0
  7  8  1  0  0  0  0
  7 11  1  6  0  0  0
  8  9  1  0  0  0  0
 11 23  1  0  0  0  0
 11 24  1  1  0  0  0
 12 13  1  0  0  0  0
 13 14  2  0  0  0  0
 14 15  1  0  0  0  0
 14 18  1  0  0  0  0
 15 16  1  0  0  0  0
 16 17  1  0  0  0  0
 16 22  1  1  0  0  0
 17 19  1  0  0  0  0
 18 19  1  0  0  0  0
 18 20  2  0  0  0  0
 19 21  1  6  0  0  0
 23 25  2  0  0  0  0
 25 26  1  0  0  0  0
 26 27  1  0  0  0  0
 26 28  1  1  0  0  0
 27 29  1  0  0  0  0
 27 30  1  0  0  0  0
M  END
> <ID>
6684

> <Formula>
C28H44O2

> <FW>
412.6478

> <DSSTox_CID>
14214

> <DSSTox_RID>
79125

> <DSSTox_GSID>
34214

> <DSSTox_FileID_Sort>
3807

> <TS_ChemName>
1-alpha-Hydroxyergocalciferol

> <TS_ChemName_Synonyms>


> <TS_CASRN>
54573-75-0

> <CASRN_ChemName_Relationship>
primary

> <TS_Description>
single chemical compound

> <ChemNote>
stereochem

> <STRUCTURE_Shown>
tested chemical

> <STRUCTURE_Formula>
C28H44O2

> <STRUCTURE_MW>
412.6478

> <STRUCTURE_ChemType>
defined organic

> <STRUCTURE_DefinedOrganicForm>
parent

> <STRUCTURE_IUPAC>
(1S,3R,5Z,7E,22E)-9,10-secoergosta-5,7,10,22-tetraene-1,3-diol

> <STRUCTURE_SMILES>
C=C1C(/C[C@@H](O)C[C@@H]1O)=C\C=C2/CCC[C@]3(C)[C@H](CC[C@@H]23)[C@H](C)/C=C/[C@H](C)C(C)C

> <STRUCTURE_SMILES_Desalt>
C=C1C(/C[C@@H](O)C[C@@H]1O)=C\C=C2/CCC[C@]3(C)[C@H](CC[C@@H]23)[C@H](C)/C=C/[C@H](C)C(C)C

> <Substance_modify_yyyymmdd>
20080429

$$$$
