54574-82-2
ChemmineR-0915142007XD

 27 28  0  0  0  0  0  0  0  0  1 V2000
   11.5251   -0.6593    0.0000 C   0  0  0  0  0  0  0  0  0  0  0  0
   12.6789    0.0000    0.0000 O   0  0  0  0  0  0  0  0  0  0  0  0
   11.5251   -2.0033    0.0000 C   0  0  0  0  0  0  0  0  0  0  0  0
   10.3713    0.0000    0.0000 O   0  0  0  0  0  0  0  0  0  0  0  0
   10.3713   -2.6626    0.0000 C   0  0  0  0  0  0  0  0  0  0  0  0
   12.6789   -2.6626    0.0000 C   0  0  0  0  0  0  0  0  0  0  0  0
   10.3713   -4.0065    0.0000 C   0  0  0  0  0  0  0  0  0  0  0  0
   12.6789   -3.9939    0.0000 C   0  0  0  0  0  0  0  0  0  0  0  0
   11.5251   -4.6658    0.0000 C   0  0  0  0  0  0  0  0  0  0  0  0
    9.2302   -2.0159    0.0000 C   0  0  0  0  0  0  0  0  0  0  0  0
    9.2302   -0.6720    0.0000 O   0  0  0  0  0  0  0  0  0  0  0  0
    8.0765   -2.6752    0.0000 C   0  0  0  0  0  0  0  0  0  0  0  0
    6.9227   -2.0033    0.0000 C   0  0  0  0  0  0  0  0  0  0  0  0
    8.0638   -3.9939    0.0000 C   0  0  0  0  0  0  0  0  0  0  0  0
    5.7689   -2.6752    0.0000 C   0  0  0  0  0  0  0  0  0  0  0  0
    6.9227   -4.6532    0.0000 C   0  0  0  0  0  0  0  0  0  0  0  0
    5.7689   -4.0065    0.0000 C   0  0  0  0  0  0  0  0  0  0  0  0
    4.6151   -4.6658    0.0000 N   0  0  0  0  0  0  0  0  0  0  0  0
    4.6151   -5.9844    0.0000 C   0  0  0  0  0  0  0  0  0  0  0  0
    3.4613   -6.6564    0.0000 C   0  0  0  0  0  0  0  0  0  0  0  0
    3.4487   -7.9877    0.0000 C   0  0  0  0  0  0  0  0  0  0  0  0
    2.2949   -8.6597    0.0000 C   0  0  0  0  0  0  0  0  0  0  0  0
    3.4613   -4.0065    0.0000 C   0  0  0  0  0  0  0  0  0  0  0  0
    2.3076   -4.6658    0.0000 C   0  0  0  0  0  0  0  0  0  0  0  0
    1.1538   -4.0065    0.0000 C   0  0  0  0  0  0  0  0  0  0  0  0
    0.0000   -4.6658    0.0000 C   0  0  0  0  0  0  0  0  0  0  0  0
    6.9227   -0.6720    0.0000 O   0  0  0  0  0  0  0  0  0  0  0  0
  1  2  2  0  0  0  0
  1  3  1  0  0  0  0
  1  4  1  0  0  0  0
  3  5  2  0  0  0  0
  3  6  1  0  0  0  0
  5  7  1  0  0  0  0
  5 10  1  0  0  0  0
  6  8  2  0  0  0  0
  7  9  2  0  0  0  0
  8  9  1  0  0  0  0
 10 11  2  0  0  0  0
 10 12  1  0  0  0  0
 12 13  2  0  0  0  0
 12 14  1  0  0  0  0
 13 15  1  0  0  0  0
 13 27  1  0  0  0  0
 14 16  2  0  0  0  0
 15 17  2  0  0  0  0
 16 17  1  0  0  0  0
 17 18  1  0  0  0  0
 18 19  1  0  0  0  0
 18 23  1  0  0  0  0
 19 20  1  0  0  0  0
 20 21  1  0  0  0  0
 21 22  1  0  0  0  0
 23 24  1  0  0  0  0
 24 25  1  0  0  0  0
 25 26  1  0  0  0  0
M  END
> <ID>
6193

> <Formula>
C22H27NO4

> <FW>
369.4541

> <DSSTox_CID>
9762

> <DSSTox_RID>
78821

> <DSSTox_GSID>
29762

> <DSSTox_FileID_Sort>
3503

> <TS_ChemName>
2-[4-(Dibutylamino)-2-hydroxybenzoyl]benzoic acid

> <TS_ChemName_Synonyms>


> <TS_CASRN>
54574-82-2

> <CASRN_ChemName_Relationship>
primary

> <TS_Description>
single chemical compound

> <ChemNote>


> <STRUCTURE_Shown>
tested chemical

> <STRUCTURE_Formula>
C22H27NO4

> <STRUCTURE_MW>
369.4541

> <STRUCTURE_ChemType>
defined organic

> <STRUCTURE_DefinedOrganicForm>
parent

> <STRUCTURE_IUPAC>
2-[4-(dibutylamino)-2-hydroxybenzoyl]benzoic acid

> <STRUCTURE_SMILES>
O=C(c1ccc(cc1O)N(CCCC)CCCC)c2ccccc2C(=O)O

> <STRUCTURE_SMILES_Desalt>
O=C(c1ccc(cc1O)N(CCCC)CCCC)c2ccccc2C(=O)O

> <Substance_modify_yyyymmdd>
20080429

$$$$
