5459-58-5
ChemmineR-0915142007XD

 10  9  0  0  0  0  0  0  0  0  1 V2000
    3.4647   -1.3397    0.0000 C   0  0  0  0  0  0  0  0  0  0  0  0
    3.4647    0.0000    0.0000 O   0  0  0  0  0  0  0  0  0  0  0  0
    4.6196   -1.9957    0.0000 O   0  0  0  0  0  0  0  0  0  0  0  0
    2.3191   -1.9957    0.0000 C   0  0  0  0  0  0  0  0  0  0  0  0
    1.1549   -1.3397    0.0000 C   0  0  0  0  0  0  0  0  0  0  0  0
    0.0000   -0.6745    0.0000 N   0  0  0  0  0  0  0  0  0  0  0  0
    5.7653   -1.3397    0.0000 C   0  0  0  0  0  0  0  0  0  0  0  0
    6.9202   -1.9957    0.0000 C   0  0  0  0  0  0  0  0  0  0  0  0
    8.0844   -1.3397    0.0000 C   0  0  0  0  0  0  0  0  0  0  0  0
    9.2393   -1.9957    0.0000 C   0  0  0  0  0  0  0  0  0  0  0  0
  1  2  2  0  0  0  0
  1  3  1  0  0  0  0
  1  4  1  0  0  0  0
  3  7  1  0  0  0  0
  4  5  1  0  0  0  0
  5  6  3  0  0  0  0
  7  8  1  0  0  0  0
  8  9  1  0  0  0  0
  9 10  1  0  0  0  0
M  END
> <ID>
10096

> <Formula>
C7H11NO2

> <FW>
141.1677

> <DSSTox_CID>
24439

> <DSSTox_RID>
80229

> <DSSTox_GSID>
44439

> <DSSTox_FileID_Sort>
4911

> <TS_ChemName>
Butyl cyanoacetate

> <TS_ChemName_Synonyms>
Butyl cyanoacetate (Acetic acid, cyano-, butyl ester)

> <TS_CASRN>
5459-58-5

> <CASRN_ChemName_Relationship>
primary

> <TS_Description>
single chemical compound

> <ChemNote>


> <STRUCTURE_Shown>
tested chemical

> <STRUCTURE_Formula>
C7H11NO2

> <STRUCTURE_MW>
141.1677

> <STRUCTURE_ChemType>
defined organic

> <STRUCTURE_DefinedOrganicForm>
parent

> <STRUCTURE_IUPAC>
butyl cyanoacetate

> <STRUCTURE_SMILES>
O=C(CC#N)OCCCC

> <STRUCTURE_SMILES_Desalt>
O=C(CC#N)OCCCC

> <Substance_modify_yyyymmdd>
20091116

$$$$
