54593-83-8
ChemmineR-0915142007XD

 15 14  0  0  0  0  0  0  0  0  1 V2000
    0.0000   -4.1213    0.0000 S    0  0  0  0  0  0  0  0  0  0  0  0
    1.1548   -3.4506    0.0000 P    0  0  0  0  0  0  0  0  0  0  0  0
    0.4840   -2.2958    0.0000 O    0  0  0  0  0  0  0  0  0  0  0  0
    1.8117   -4.6054    0.0000 O    0  0  0  0  0  0  0  0  0  0  0  0
    2.3096   -2.7936    0.0000 O    0  0  0  0  0  0  0  0  0  0  0  0
    1.1548   -1.1548    0.0000 C    0  0  0  0  0  0  0  0  0  0  0  0
    0.4840    0.0000    0.0000 C    0  0  0  0  0  0  0  0  0  0  0  0
    1.1548   -5.7602    0.0000 C    0  0  0  0  0  0  0  0  0  0  0  0
    1.8117   -6.9150    0.0000 C    0  0  0  0  0  0  0  0  0  0  0  0
    3.4506   -3.4506    0.0000 C    0  0  0  0  0  0  0  0  0  0  0  0
    4.6054   -2.7936    0.0000 C    0  0  0  0  0  0  0  0  0  0  0  0
    3.4506   -4.7782    0.0000 Cl   0  0  0  0  0  0  0  0  0  0  0  0
    3.9484   -1.6388    0.0000 Cl   0  0  0  0  0  0  0  0  0  0  0  0
    5.2761   -3.9484    0.0000 Cl   0  0  0  0  0  0  0  0  0  0  0  0
    5.7602   -2.1160    0.0000 Cl   0  0  0  0  0  0  0  0  0  0  0  0
  1  2  2  0  0  0  0
  2  3  1  0  0  0  0
  2  4  1  0  0  0  0
  2  5  1  0  0  0  0
  3  6  1  0  0  0  0
  4  8  1  0  0  0  0
  5 10  1  0  0  0  0
  6  7  1  0  0  0  0
  8  9  1  0  0  0  0
 10 11  1  0  0  0  0
 10 12  1  0  0  0  0
 11 13  1  0  0  0  0
 11 14  1  0  0  0  0
 11 15  1  0  0  0  0
M  END
> <ID>
6424

> <Formula>
C6H11Cl4O3PS

> <FW>
336.0005

> <DSSTox_CID>
12344

> <DSSTox_RID>
78917

> <DSSTox_GSID>
32344

> <DSSTox_FileID_Sort>
3599

> <TS_ChemName>
Chlorethoxyfos

> <TS_ChemName_Synonyms>


> <TS_CASRN>
54593-83-8

> <CASRN_ChemName_Relationship>
primary

> <TS_Description>
single chemical compound

> <ChemNote>
mixture of (R,S) isomers; structure shown without stereochem

> <STRUCTURE_Shown>
tested chemical

> <STRUCTURE_Formula>
C6H11Cl4O3PS

> <STRUCTURE_MW>
336.0005

> <STRUCTURE_ChemType>
defined organic

> <STRUCTURE_DefinedOrganicForm>
parent

> <STRUCTURE_IUPAC>
O,O-diethyl O-(1,2,2,2-tetrachloroethyl) phosphorothioate

> <STRUCTURE_SMILES>
CCOP(=S)(OCC)OC(Cl)C(Cl)(Cl)Cl

> <STRUCTURE_SMILES_Desalt>
CCOP(=S)(OCC)OC(Cl)C(Cl)(Cl)Cl

> <Substance_modify_yyyymmdd>
20080429

$$$$
