546-06-5
ChemmineR-0915142007XD

 30 34  0  0  1  0  0  0  0  0  1 V2000
    8.0985   -3.4693    0.0000 C   0  0  0  0  0  0  0  0  0  0  0  0
    4.6186   -5.4593    0.0000 C   0  0  0  0  0  0  0  0  0  0  0  0
    8.1411   -1.2983    0.0000 N   0  0  0  0  0  0  0  0  0  0  0  0
    4.6186   -6.7895    0.0000 C   0  0  0  0  0  0  0  0  0  0  0  0
    8.0985   -4.7995    0.0000 C   0  0  0  0  0  0  0  0  0  0  0  0
    9.3436   -3.0542    0.0000 C   0  0  0  0  0  0  0  0  0  0  0  0
    5.7892   -4.7995    0.0000 C   0  0  0  0  0  0  0  0  0  0  0  0
    6.9279   -5.4593    0.0000 C   0  0  0  0  0  0  0  0  0  0  0  0
    7.3216   -2.3838    0.0000 C   0  0  0  0  0  0  0  0  0  0  0  0
    9.3436   -1.7453    0.0000 C   0  0  0  0  0  0  0  0  0  0  0  0
    5.7892   -7.4493    0.0000 C   0  0  0  0  0  0  0  0  0  0  0  0
    6.9279   -2.7988    0.0000 C   0  0  0  0  0  0  0  0  0  0  0  0
    6.9279   -6.7895    0.0000 C   0  0  0  0  0  0  0  0  0  0  0  0
    3.4799   -7.4493    0.0000 C   0  0  0  0  0  0  0  0  0  0  0  0
    5.7892   -3.4693    0.0000 C   0  0  0  0  0  0  0  0  0  0  0  0
    3.4799   -4.7995    0.0000 C   0  0  0  0  0  0  0  0  0  0  0  0
    9.3436   -5.2039    0.0000 C   0  0  0  0  0  0  0  0  0  0  0  0
   10.1098   -4.1291    0.0000 C   0  0  0  0  0  0  0  0  0  0  0  0
    2.3093   -6.7895    0.0000 C   0  0  0  0  0  0  0  0  0  0  0  0
    1.1493   -7.4813    0.0000 N   0  0  0  0  0  0  0  0  0  0  0  0
    2.3093   -5.4593    0.0000 C   0  0  0  0  0  0  0  0  0  0  0  0
    7.8005    0.0000    0.0000 C   0  0  0  0  0  0  0  0  0  0  0  0
    4.6186   -4.1184    0.0000 C   0  0  0  0  0  0  0  0  0  0  0  0
   10.4504   -0.9578    0.0000 C   0  0  0  0  0  0  0  0  0  0  0  0
    1.1493   -8.8115    0.0000 C   0  0  0  0  0  0  0  0  0  0  0  0
    0.0000   -6.8108    0.0000 C   0  0  0  0  0  0  0  0  0  0  0  0
    8.0985   -6.0978    0.0000 H   0  0  0  0  0  0  0  0  0  0  0  0
    5.7892   -6.1297    0.0000 H   0  0  0  0  0  0  0  0  0  0  0  0
    6.9279   -4.1184    0.0000 H   0  0  0  0  0  0  0  0  0  0  0  0
   10.6419   -2.7030    0.0000 H   0  0  0  0  0  0  0  0  0  0  0  0
  1  5  1  0  0  0  0
  1  6  1  0  0  0  0
  1  9  1  1  0  0  0
  1 12  1  0  0  0  0
  2  7  1  0  0  0  0
  2  4  1  0  0  0  0
  2 16  1  0  0  0  0
  2 23  1  1  0  0  0
  3  9  1  0  0  0  0
  3 22  1  0  0  0  0
  3 10  1  0  0  0  0
  4 14  1  0  0  0  0
  4 11  2  0  0  0  0
  5  8  1  0  0  0  0
  5 17  1  0  0  0  0
  5 27  1  6  0  0  0
  6 10  1  0  0  0  0
  6 18  1  0  0  0  0
  6 30  1  6  0  0  0
  7 15  1  0  0  0  0
  7 28  1  6  0  0  0
  7  8  1  0  0  0  0
  8 13  1  0  0  0  0
  8 29  1  1  0  0  0
 10 24  1  1  0  0  0
 11 13  1  0  0  0  0
 12 15  1  0  0  0  0
 14 19  1  0  0  0  0
 16 21  1  0  0  0  0
 17 18  1  0  0  0  0
 19 21  1  0  0  0  0
 19 20  1  1  0  0  0
 20 25  1  0  0  0  0
 20 26  1  0  0  0  0
M  END
> <ID>
11349

> <Formula>
C24H40N2

> <FW>
356.5878

> <DSSTox_CID>
26000

> <DSSTox_RID>
81281

> <DSSTox_GSID>
46000

> <DSSTox_FileID_Sort>
5962

> <TS_ChemName>
Conessine

> <TS_ChemName_Synonyms>


> <TS_CASRN>
546-06-5

> <CASRN_ChemName_Relationship>
primary

> <TS_Description>
single chemical compound

> <ChemNote>
stereochem

> <STRUCTURE_Shown>
tested chemical

> <STRUCTURE_Formula>
C24H40N2

> <STRUCTURE_MW>
356.5878

> <STRUCTURE_ChemType>
defined organic

> <STRUCTURE_DefinedOrganicForm>
parent

> <STRUCTURE_IUPAC>
(3beta)-N,N-dimethylcon-5-enin-3-amine

> <STRUCTURE_SMILES>
CN(C)[C@@H]4CC5=CC[C@@H]1[C@H](CC[C@@]23CN(C)[C@@H](C)[C@H]3CC[C@@H]12)[C@@]5(C)CC4

> <STRUCTURE_SMILES_Desalt>
CN(C)[C@@H]4CC5=CC[C@@H]1[C@H](CC[C@@]23CN(C)[C@@H](C)[C@H]3CC[C@@H]12)[C@@]5(C)CC4

> <Substance_modify_yyyymmdd>
20110824

$$$$
