546-71-4
ChemmineR-0915142007XD

 17 17  0  0  0  0  0  0  0  0  2 V2000
    5.7534   -0.4840    0.0000 C   0  0  0  0  0  0  0  0  0  0  0  0
    4.6137   -1.1398    0.0000 C   0  0  0  0  0  0  0  0  0  0  0  0
    2.3107   -1.1398    0.0000 P   0  0  0  0  0  0  0  0  0  0  0  0
    1.6316    0.0000    0.0000 O   0  0  0  0  0  0  0  0  0  0  0  0
    1.1554   -1.8111    0.0000 O   0  0  0  0  0  0  0  0  0  0  0  0
    3.4661   -0.4840    0.0000 O   0  0  0  0  0  0  0  0  0  0  0  0
    2.9665   -2.2951    0.0000 C   0  0  0  0  0  0  0  0  0  0  0  0
    4.2936   -2.2951    0.0000 C   0  0  0  0  0  0  0  0  0  0  0  0
    2.3107   -5.1445    0.0000 C   0  0  0  0  0  0  0  0  0  0  0  0
    1.1554   -5.8003    0.0000 C   0  0  0  0  0  0  0  0  0  0  0  0
    0.0000   -5.1445    0.0000 C   0  0  0  0  0  0  0  0  0  0  0  0
    0.0000   -3.8174    0.0000 C   0  0  0  0  0  0  0  0  0  0  0  0
    1.1554   -3.1382    0.0000 C   0  0  0  0  0  0  0  0  0  0  0  0
    2.3107   -3.8174    0.0000 C   0  0  0  0  0  0  0  0  0  0  0  0
    1.1554   -7.1352    0.0000 N   0  3  0  0  0  0  0  0  0  0  0  0
    2.3107   -7.8066    0.0000 O   0  5  0  0  0  0  0  0  0  0  0  0
    0.0000   -7.8066    0.0000 O   0  0  0  0  0  0  0  0  0  0  0  0
  1  2  1  0  0  0  0
  2  6  1  0  0  0  0
  3  4  2  0  0  0  0
  3  5  1  0  0  0  0
  3  6  1  0  0  0  0
  3  7  1  0  0  0  0
  5 13  1  0  0  0  0
  7  8  1  0  0  0  0
  9 14  1  0  0  0  0
  9 10  2  0  0  0  0
 10 11  1  0  0  0  0
 10 15  1  0  0  0  0
 11 12  2  0  0  0  0
 12 13  1  0  0  0  0
 13 14  2  0  0  0  0
 15 16  1  0  0  0  0
 15 17  2  0  0  0  0
M  END
> <ID>
13832

> <Formula>
C10H14NO5P

> <FW>
259.1956

> <DSSTox_CID>
28769

> <DSSTox_RID>
83038

> <DSSTox_GSID>
48843

> <DSSTox_FileID_Sort>
7715

> <TS_ChemName>
Ethyl 4-nitrophenyl ethylphosphonate

> <TS_ChemName_Synonyms>
ETHYL 4-NITROPHENYL ETHYLPHOSPHONATE (Armin)

> <TS_CASRN>
546-71-4

> <CASRN_ChemName_Relationship>
primary

> <TS_Description>
single chemical compound

> <ChemNote>


> <STRUCTURE_Shown>
tested chemical

> <STRUCTURE_Formula>
C10H14NO5P

> <STRUCTURE_MW>
259.1956

> <STRUCTURE_ChemType>
defined organic

> <STRUCTURE_DefinedOrganicForm>
parent

> <STRUCTURE_IUPAC>
ethyl 4-nitrophenyl ethylphosphonate

> <STRUCTURE_SMILES>
[O-][N+](=O)c1ccc(OP(=O)(OCC)CC)cc1

> <STRUCTURE_SMILES_Desalt>
[O-][N+](=O)c1ccc(OP(=O)(OCC)CC)cc1

> <Substance_modify_yyyymmdd>
20111204

$$$$
