546-80-5
ChemmineR-0915142007XD

 12 13  0  0  1  0  0  0  0  0  1 V2000
    1.3755   -3.3947    0.0000 C   0  0  0  0  0  0  0  0  0  0  0  0
    2.7069   -3.3947    0.0000 C   0  0  0  0  0  0  0  0  0  0  0  0
    0.9738   -2.0852    0.0000 C   0  0  0  0  0  0  0  0  0  0  0  0
    3.1306   -2.1292    0.0000 C   0  0  0  0  0  0  0  0  0  0  0  0
    2.0632   -1.3315    0.0000 C   0  0  0  0  0  0  0  0  0  0  0  0
    4.3905   -1.7331    0.0000 O   0  0  0  0  0  0  0  0  0  0  0  0
    2.0852    0.0000    0.0000 C   0  0  0  0  0  0  0  0  0  0  0  0
    0.0880   -3.0811    0.0000 C   0  0  0  0  0  0  0  0  0  0  0  0
    1.1994   -4.7041    0.0000 C   0  0  0  0  0  0  0  0  0  0  0  0
    2.2613   -5.5019    0.0000 C   0  0  0  0  0  0  0  0  0  0  0  0
    0.0000   -5.2158    0.0000 C   0  0  0  0  0  0  0  0  0  0  0  0
    0.3081   -0.9298    0.0000 H   0  0  0  0  0  0  0  0  0  0  0  0
  1  2  1  0  0  0  0
  1  8  1  6  0  0  0
  1  3  1  0  0  0  0
  1  9  1  1  0  0  0
  2  4  1  0  0  0  0
  3  5  1  0  0  0  0
  3  8  1  6  0  0  0
  3 12  1  1  0  0  0
  4  5  1  0  0  0  0
  4  6  2  0  0  0  0
  5  7  1  1  0  0  0
  9 10  1  0  0  0  0
  9 11  1  0  0  0  0
M  END
> <ID>
4569

> <Formula>
C10H16O

> <FW>
152.2334

> <DSSTox_CID>
6148

> <DSSTox_RID>
78036

> <DSSTox_GSID>
26148

> <DSSTox_FileID_Sort>
2719

> <TS_ChemName>
alpha-Thujone

> <TS_ChemName_Synonyms>


> <TS_CASRN>
546-80-5

> <CASRN_ChemName_Relationship>
primary

> <TS_Description>
single chemical compound

> <ChemNote>
stereochem

> <STRUCTURE_Shown>
tested chemical

> <STRUCTURE_Formula>
C10H16O

> <STRUCTURE_MW>
152.2334

> <STRUCTURE_ChemType>
defined organic

> <STRUCTURE_DefinedOrganicForm>
parent

> <STRUCTURE_IUPAC>
(1S,4R,5R)-4-methyl-1-(propan-2-yl)bicyclo[3.1.0]hexan-3-one

> <STRUCTURE_SMILES>
C[C@H]1C(=O)C[C@@]2(C[C@H]12)C(C)C

> <STRUCTURE_SMILES_Desalt>
C[C@H]1C(=O)C[C@@]2(C[C@H]12)C(C)C

> <Substance_modify_yyyymmdd>
20080429

$$$$
