546-48-5
ChemmineR-0915142007XD

 21 20  0  0  1  0  0  0  0  0  1 V2000
    2.4618   -1.3390    0.0000 N   0  0  0  0  0  0  0  0  0  0  0  0
    1.3224   -1.9960    0.0000 C   0  0  0  0  0  0  0  0  0  0  0  0
    3.6345   -1.9960    0.0000 C   0  0  0  0  0  0  0  0  0  0  0  0
    2.4618    0.0000    0.0000 C   0  0  0  0  0  0  0  0  0  0  0  0
    3.6345   -3.3267    0.0000 C   0  0  0  0  0  0  0  0  0  0  0  0
    1.3224   -3.3267    0.0000 C   0  0  0  0  0  0  0  0  0  0  0  0
    4.9735   -1.9960    0.0000 C   0  0  0  0  0  0  0  0  0  0  0  0
    0.0000   -1.9960    0.0000 C   0  0  0  0  0  0  0  0  0  0  0  0
    4.2915   -0.8400    0.0000 C   0  0  0  0  0  0  0  0  0  0  0  0
    0.6570   -0.8400    0.0000 C   0  0  0  0  0  0  0  0  0  0  0  0
    2.4618   -3.9921    0.0000 C   0  0  0  0  0  0  0  0  0  0  0  0
    2.4452   -6.9779    0.0000 C   0  0  0  0  0  0  0  0  0  0  0  0
    3.5846   -6.3375    0.0000 C   0  0  0  0  0  0  0  0  0  0  0  0
    4.7323   -6.9779    0.0000 C   0  0  0  0  0  0  0  0  0  0  0  0
    1.3057   -6.3375    0.0000 C   0  0  0  0  0  0  0  0  0  0  0  0
    4.7323   -8.3169    0.0000 O   0  0  0  0  0  0  0  0  0  0  0  0
    1.3057   -5.0068    0.0000 O   0  0  0  0  0  0  0  0  0  0  0  0
    2.4452   -8.3169    0.0000 O   0  0  0  0  0  0  0  0  0  0  0  0
    3.5846   -5.0068    0.0000 O   0  0  0  0  0  0  0  0  0  0  0  0
    5.9050   -6.3375    0.0000 O   0  0  0  0  0  0  0  0  0  0  0  0
    0.1248   -6.9779    0.0000 O   0  0  0  0  0  0  0  0  0  0  0  0
  1  2  1  0  0  0  0
  1  3  1  0  0  0  0
  1  4  1  0  0  0  0
  2  6  1  0  0  0  0
  2  8  1  0  0  0  0
  2 10  1  0  0  0  0
  3  5  1  0  0  0  0
  3  7  1  0  0  0  0
  3  9  1  0  0  0  0
  5 11  1  0  0  0  0
  6 11  1  0  0  0  0
 12 13  1  0  0  0  0
 12 15  1  0  0  0  0
 12 18  1  6  0  0  0
 13 14  1  0  0  0  0
 13 19  1  6  0  0  0
 14 16  2  0  0  0  0
 14 20  1  0  0  0  0
 15 17  2  0  0  0  0
 15 21  1  0  0  0  0
M  END
> <ID>
10836

> <Formula>
C14H27NO6

> <FW>
305.3673 (155.2804+150.0868)

> <DSSTox_CID>
25229

> <DSSTox_RID>
80766

> <DSSTox_GSID>
45229

> <DSSTox_FileID_Sort>
5447

> <TS_ChemName>
Pempidine d-tartaric acid

> <TS_ChemName_Synonyms>
Pempidine tartaric acid

> <TS_CASRN>
546-48-5

> <CASRN_ChemName_Relationship>
primary

> <TS_Description>
single chemical compound

> <ChemNote>
parent [79-55-0]

> <STRUCTURE_Shown>
tested chemical

> <STRUCTURE_Formula>
C14H27NO6

> <STRUCTURE_MW>
305.3673

> <STRUCTURE_ChemType>
defined organic

> <STRUCTURE_DefinedOrganicForm>
complex

> <STRUCTURE_IUPAC>
(2S,3S)-2,3-dihydroxybutanedioic acid - 1,2,2,6,6-pentamethylpiperidine (1:1)

> <STRUCTURE_SMILES>
CC1(C)CCCC(C)(C)N1C.O=C(O)[C@@H](O)[C@H](O)C(=O)O

> <STRUCTURE_SMILES_Desalt>
CC1(C)CCCC(C)(C)N1C

> <Substance_modify_yyyymmdd>
20100107

$$$$
