5460-09-3
ChemmineR-0915142007XD

 21 21  0  0  0  0  0  0  0  0  2 V2000
    4.5295   -1.8892    0.0000 C    0  0  0  0  0  0  0  0  0  0  0  0
    4.5295   -3.2270    0.0000 C    0  0  0  0  0  0  0  0  0  0  0  0
    3.3913   -1.2204    0.0000 C    0  0  0  0  0  0  0  0  0  0  0  0
    3.3913   -3.8841    0.0000 C    0  0  0  0  0  0  0  0  0  0  0  0
    5.6795   -3.8841    0.0000 C    0  0  0  0  0  0  0  0  0  0  0  0
    5.6795   -1.2204    0.0000 C    0  0  0  0  0  0  0  0  0  0  0  0
    6.8060   -1.8892    0.0000 C    0  0  0  0  0  0  0  0  0  0  0  0
    6.8060   -3.2270    0.0000 C    0  0  0  0  0  0  0  0  0  0  0  0
    2.2178   -3.2270    0.0000 C    0  0  0  0  0  0  0  0  0  0  0  0
    2.2178   -1.8892    0.0000 C    0  0  0  0  0  0  0  0  0  0  0  0
    7.9794   -1.2204    0.0000 S    0  0  0  0  0  0  0  0  0  0  0  0
    8.6952   -2.5112    0.0000 O    0  0  0  0  0  0  0  0  0  0  0  0
    9.0707   -0.5867    0.0000 O    0  5  0  0  0  0  0  0  0  0  0  0
    7.3575   -0.1291    0.0000 O    0  0  0  0  0  0  0  0  0  0  0  0
    1.0913   -1.2204    0.0000 S    0  0  0  0  0  0  0  0  0  0  0  0
    1.8423    0.0000    0.0000 O    0  0  0  0  0  0  0  0  0  0  0  0
    0.0000   -0.5867    0.0000 O    0  0  0  0  0  0  0  0  0  0  0  0
    0.4576   -2.3469    0.0000 O    0  0  0  0  0  0  0  0  0  0  0  0
    5.6795   -5.2218    0.0000 N    0  0  0  0  0  0  0  0  0  0  0  0
    3.3913   -5.2218    0.0000 O    0  0  0  0  0  0  0  0  0  0  0  0
   11.7344   -2.5933    0.0000 Na   0  3  0  0  0  0  0  0  0  0  0  0
  1  2  2  0  0  0  0
  1  3  1  0  0  0  0
  1  6  1  0  0  0  0
  2  4  1  0  0  0  0
  2  5  1  0  0  0  0
  3 10  2  0  0  0  0
  4  9  2  0  0  0  0
  4 20  1  0  0  0  0
  5  8  2  0  0  0  0
  5 19  1  0  0  0  0
  6  7  2  0  0  0  0
  7  8  1  0  0  0  0
  7 11  1  0  0  0  0
  9 10  1  0  0  0  0
 10 15  1  0  0  0  0
 11 12  2  0  0  0  0
 11 13  1  0  0  0  0
 11 14  2  0  0  0  0
 15 16  2  0  0  0  0
 15 17  1  0  0  0  0
 15 18  2  0  0  0  0
M  END
> <ID>
5282

> <Formula>
C10H8NNaO7S2

> <FW>
341.2928 (318.3036+22.9892)

> <DSSTox_CID>
7600

> <DSSTox_RID>
78525

> <DSSTox_GSID>
27600

> <DSSTox_FileID_Sort>
3208

> <TS_ChemName>
2,7-Naphthalenedisulfonic acid, 4-amino-5-hydroxy-, monosodium salt

> <TS_ChemName_Synonyms>


> <TS_CASRN>
5460-09-3

> <CASRN_ChemName_Relationship>
primary

> <TS_Description>
single chemical compound

> <ChemNote>
parent [90-20-0]

> <STRUCTURE_Shown>
tested chemical

> <STRUCTURE_Formula>
C10H8NNaO7S2

> <STRUCTURE_MW>
341.2928

> <STRUCTURE_ChemType>
defined organic

> <STRUCTURE_DefinedOrganicForm>
salt

> <STRUCTURE_IUPAC>
sodium 4-amino-5-hydroxy-7-sulfonaphthalene-2-sulfonate

> <STRUCTURE_SMILES>
[Na+].[O-]S(=O)(=O)c2cc1cc(cc(O)c1c(N)c2)S(=O)(=O)O

> <STRUCTURE_SMILES_Desalt>
O=S(=O)(O)c2cc1cc(cc(O)c1c(N)c2)S(=O)(=O)O

> <Substance_modify_yyyymmdd>
20080429

$$$$
