54646-38-7
ChemmineR-0915142007XD

 28 30  0  0  0  0  0  0  0  0  2 V2000
   11.2661   -2.0157    0.0000 N    0  3  0  0  0  0  0  0  0  0  0  0
    4.3127   -0.6563    0.0000 C    0  0  0  0  0  0  0  0  0  0  0  0
   11.2661   -0.7657    0.0000 C    0  0  0  0  0  0  0  0  0  0  0  0
    4.3127   -1.9063    0.0000 N    0  0  0  0  0  0  0  0  0  0  0  0
    3.2345   -0.0625    0.0000 S    0  0  0  0  0  0  0  0  0  0  0  0
   12.3599   -0.1719    0.0000 S    0  0  0  0  0  0  0  0  0  0  0  0
   13.4537   -2.0157    0.0000 C    0  0  0  0  0  0  0  0  0  0  0  0
    2.1563   -1.9063    0.0000 C    0  0  0  0  0  0  0  0  0  0  0  0
   13.4537   -0.7969    0.0000 C    0  0  0  0  0  0  0  0  0  0  0  0
    2.1563   -0.6563    0.0000 C    0  0  0  0  0  0  0  0  0  0  0  0
    5.4690    0.0000    0.0000 C    0  0  0  0  0  0  0  0  0  0  0  0
   10.0942   -0.0469    0.0000 C    0  0  0  0  0  0  0  0  0  0  0  0
    6.6096   -0.6719    0.0000 C    0  0  0  0  0  0  0  0  0  0  0  0
    8.9066   -0.7032    0.0000 C    0  0  0  0  0  0  0  0  0  0  0  0
    7.7503    0.0000    0.0000 C    0  0  0  0  0  0  0  0  0  0  0  0
   10.1410   -2.6720    0.0000 C    0  0  0  0  0  0  0  0  0  0  0  0
    5.4533   -2.5314    0.0000 C    0  0  0  0  0  0  0  0  0  0  0  0
   14.5162   -2.5782    0.0000 C    0  0  0  0  0  0  0  0  0  0  0  0
    1.0938   -2.4688    0.0000 C    0  0  0  0  0  0  0  0  0  0  0  0
    1.0938   -0.0625    0.0000 C    0  0  0  0  0  0  0  0  0  0  0  0
   14.5162   -0.1406    0.0000 C    0  0  0  0  0  0  0  0  0  0  0  0
   10.1410   -3.9064    0.0000 C    0  0  0  0  0  0  0  0  0  0  0  0
    5.4533   -3.8908    0.0000 C    0  0  0  0  0  0  0  0  0  0  0  0
   15.6256   -1.9845    0.0000 C    0  0  0  0  0  0  0  0  0  0  0  0
    0.0000   -1.9063    0.0000 C    0  0  0  0  0  0  0  0  0  0  0  0
   15.6256   -0.7344    0.0000 C    0  0  0  0  0  0  0  0  0  0  0  0
    0.0000   -0.6563    0.0000 C    0  0  0  0  0  0  0  0  0  0  0  0
    7.8597   -5.2033    0.0000 Cl   0  5  0  0  0  0  0  0  0  0  0  0
  1  3  2  0  0  0  0
  1  7  1  0  0  0  0
  1 16  1  0  0  0  0
  2 11  2  3  0  0  0
  2  4  1  0  0  0  0
  2  5  1  0  0  0  0
  3  6  1  0  0  0  0
  3 12  1  0  0  0  0
  4  8  1  0  0  0  0
  4 17  1  0  0  0  0
  5 10  1  0  0  0  0
  6  9  1  0  0  0  0
  7  9  2  0  0  0  0
  7 18  1  0  0  0  0
  8 19  1  0  0  0  0
  8 10  2  0  0  0  0
  9 21  1  0  0  0  0
 10 20  1  0  0  0  0
 11 13  1  0  0  0  0
 12 14  2  3  0  0  0
 13 15  2  3  0  0  0
 14 15  1  0  0  0  0
 16 22  1  0  0  0  0
 17 23  1  0  0  0  0
 18 24  2  0  0  0  0
 19 25  2  0  0  0  0
 20 27  2  0  0  0  0
 21 26  2  0  0  0  0
 24 26  1  0  0  0  0
 25 27  1  0  0  0  0
M  END
> <ID>
13722

> <Formula>
C23H23ClN2S2

> <FW>
427.0251 (391.5716+35.4535)

> <DSSTox_CID>
28657

> <DSSTox_RID>
82927

> <DSSTox_GSID>
48731

> <DSSTox_FileID_Sort>
7604

> <TS_ChemName>
Dithiazanine chloride

> <TS_ChemName_Synonyms>
Dithiazanine

> <TS_CASRN>
54646-38-7

> <CASRN_ChemName_Relationship>
primary

> <TS_Description>
single chemical compound

> <ChemNote>


> <STRUCTURE_Shown>
tested chemical

> <STRUCTURE_Formula>
C23H23ClN2S2

> <STRUCTURE_MW>
427.0251

> <STRUCTURE_ChemType>
defined organic

> <STRUCTURE_DefinedOrganicForm>
salt

> <STRUCTURE_IUPAC>
3-ethyl-2-[5-(3-ethyl-1,3-benzothiazol-2(3H)-ylidene)penta-1,3-dien-1-yl]-1,3-benzothiazol-3-ium chloride

> <STRUCTURE_SMILES>
[Cl-].CCN3c4ccccc4SC3=CC=CC=Cc2sc1ccccc1[n+]2CC

> <STRUCTURE_SMILES_Desalt>
CCN3c4ccccc4SC3=CC=CC=Cc2sc1ccccc1[n+]2CC

> <Substance_modify_yyyymmdd>
20111204

$$$$
