5464-78-8
ChemmineR-0915142007XD

 15 15  0  0  0  0  0  0  0  0  1 V2000
    4.6111   -0.6711    0.0000 C    0  0  0  0  0  0  0  0  0  0  0  0
    4.6111   -1.9999    0.0000 C    0  0  0  0  0  0  0  0  0  0  0  0
    3.4550    0.0000    0.0000 C    0  0  0  0  0  0  0  0  0  0  0  0
    3.4550   -2.6577    0.0000 C    0  0  0  0  0  0  0  0  0  0  0  0
    2.3056   -0.6711    0.0000 C    0  0  0  0  0  0  0  0  0  0  0  0
    2.3056   -1.9999    0.0000 C    0  0  0  0  0  0  0  0  0  0  0  0
    3.4550   -3.9866    0.0000 N    0  0  0  0  0  0  0  0  0  0  0  0
    4.6111   -4.6576    0.0000 C    0  0  0  0  0  0  0  0  0  0  0  0
    2.3056   -4.6576    0.0000 C    0  0  0  0  0  0  0  0  0  0  0  0
    4.6111   -5.9865    0.0000 C    0  0  0  0  0  0  0  0  0  0  0  0
    2.3056   -5.9865    0.0000 C    0  0  0  0  0  0  0  0  0  0  0  0
    3.4550   -6.6443    0.0000 N    0  0  0  0  0  0  0  0  0  0  0  0
    1.1495   -2.6577    0.0000 O    0  0  0  0  0  0  0  0  0  0  0  0
    0.0000   -1.9866    0.0000 C    0  0  0  0  0  0  0  0  0  0  0  0
    0.5581   -4.1128    0.0000 Cl   0  0  0  0  0  0  0  0  0  0  0  0
  1  2  1  0  0  0  0
  1  3  2  0  0  0  0
  2  4  2  0  0  0  0
  3  5  1  0  0  0  0
  4  6  1  0  0  0  0
  4  7  1  0  0  0  0
  5  6  2  0  0  0  0
  6 13  1  0  0  0  0
  7  8  1  0  0  0  0
  7  9  1  0  0  0  0
  8 10  1  0  0  0  0
  9 11  1  0  0  0  0
 10 12  1  0  0  0  0
 11 12  1  0  0  0  0
 13 14  1  0  0  0  0
M  END
> <ID>
14662

> <Formula>
C11H17ClN2O

> <FW>
228.7185 (192.2575+36.4609)

> <DSSTox_CID>
30037

> <DSSTox_RID>
81139

> <DSSTox_GSID>
51440

> <DSSTox_FileID_Sort>
5820

> <TS_ChemName>
1-(2-Methoxyphenyl)piperazine hydrochloride

> <TS_ChemName_Synonyms>


> <TS_CASRN>
5464-78-8

> <CASRN_ChemName_Relationship>
primary

> <TS_Description>
single chemical compound

> <ChemNote>


> <STRUCTURE_Shown>
tested chemical

> <STRUCTURE_Formula>
C11H17ClN2O

> <STRUCTURE_MW>
228.7185

> <STRUCTURE_ChemType>
defined organic

> <STRUCTURE_DefinedOrganicForm>
complex

> <STRUCTURE_IUPAC>
1-(2-methoxyphenyl)piperazine hydrochloride (1:1)

> <STRUCTURE_SMILES>
Cl.COc1ccccc1N2CCNCC2

> <STRUCTURE_SMILES_Desalt>
COc1ccccc1N2CCNCC2

> <Substance_modify_yyyymmdd>
20120927

$$$$
