5466-84-2
ChemmineR-0915142007XD

 14 15  0  0  0  0  0  0  0  0  2 V2000
    4.6038    0.0000    0.0000 O   0  0  0  0  0  0  0  0  0  0  0  0
    4.8816   -1.2985    0.0000 C   0  0  0  0  0  0  0  0  0  0  0  0
    6.0968   -1.8402    0.0000 O   0  0  0  0  0  0  0  0  0  0  0  0
    5.9579   -3.1595    0.0000 C   0  0  0  0  0  0  0  0  0  0  0  0
    6.9440   -4.0483    0.0000 O   0  0  0  0  0  0  0  0  0  0  0  0
    4.6525   -3.4373    0.0000 C   0  0  0  0  0  0  0  0  0  0  0  0
    3.9928   -4.5900    0.0000 C   0  0  0  0  0  0  0  0  0  0  0  0
    2.6595   -4.5900    0.0000 C   0  0  0  0  0  0  0  0  0  0  0  0
    1.9929   -3.4373    0.0000 C   0  0  0  0  0  0  0  0  0  0  0  0
    2.6595   -2.2846    0.0000 C   0  0  0  0  0  0  0  0  0  0  0  0
    3.9928   -2.2846    0.0000 C   0  0  0  0  0  0  0  0  0  0  0  0
    0.6666   -3.4373    0.0000 N   0  3  0  0  0  0  0  0  0  0  0  0
    0.0000   -4.5900    0.0000 O   0  0  0  0  0  0  0  0  0  0  0  0
    0.0000   -2.2846    0.0000 O   0  5  0  0  0  0  0  0  0  0  0  0
  1  2  2  0  0  0  0
  2  3  1  0  0  0  0
  2 11  1  0  0  0  0
  3  4  1  0  0  0  0
  4  5  2  0  0  0  0
  4  6  1  0  0  0  0
  6  7  2  0  0  0  0
  6 11  1  0  0  0  0
  7  8  1  0  0  0  0
  8  9  2  0  0  0  0
  9 10  1  0  0  0  0
  9 12  1  0  0  0  0
 10 11  2  0  0  0  0
 12 13  2  0  0  0  0
 12 14  1  0  0  0  0
M  END
> <ID>
4398

> <Formula>
C8H3NO5

> <FW>
193.1131

> <DSSTox_CID>
5775

> <DSSTox_RID>
77920

> <DSSTox_GSID>
25775

> <DSSTox_FileID_Sort>
2603

> <TS_ChemName>
4-Nitrophthalic anhydride

> <TS_ChemName_Synonyms>


> <TS_CASRN>
5466-84-2

> <CASRN_ChemName_Relationship>
primary

> <TS_Description>
single chemical compound

> <ChemNote>


> <STRUCTURE_Shown>
tested chemical

> <STRUCTURE_Formula>
C8H3NO5

> <STRUCTURE_MW>
193.1131

> <STRUCTURE_ChemType>
defined organic

> <STRUCTURE_DefinedOrganicForm>
parent

> <STRUCTURE_IUPAC>
5-nitro-2-benzofuran-1,3-dione

> <STRUCTURE_SMILES>
[O-][N+](=O)c1ccc2C(=O)OC(=O)c2c1

> <STRUCTURE_SMILES_Desalt>
[O-][N+](=O)c1ccc2C(=O)OC(=O)c2c1

> <Substance_modify_yyyymmdd>
20080429

$$$$
