54739-18-3
ChemmineR-0915142007XD

 22 22  0  0  0  0  0  0  0  0  1 V2000
    6.6505   -3.4643    0.0000 C   0  0  0  0  0  0  0  0  0  0  0  0
    7.3079   -2.3264    0.0000 C   0  0  0  0  0  0  0  0  0  0  0  0
    8.6481   -2.3264    0.0000 C   0  0  0  0  0  0  0  0  0  0  0  0
    9.3056   -1.1632    0.0000 C   0  0  0  0  0  0  0  0  0  0  0  0
   10.6458   -1.1632    0.0000 C   0  0  0  0  0  0  0  0  0  0  0  0
    7.3079   -4.6149    0.0000 N   0  0  0  0  0  0  0  0  0  0  0  0
   11.3159    0.0000    0.0000 O   0  0  0  0  0  0  0  0  0  0  0  0
   12.6435    0.0000    0.0000 C   0  0  0  0  0  0  0  0  0  0  0  0
    3.3379   -2.3264    0.0000 C   0  0  0  0  0  0  0  0  0  0  0  0
    2.6678   -3.4643    0.0000 C   0  0  0  0  0  0  0  0  0  0  0  0
    3.3379   -4.6149    0.0000 C   0  0  0  0  0  0  0  0  0  0  0  0
    4.6654   -4.6149    0.0000 C   0  0  0  0  0  0  0  0  0  0  0  0
    5.3355   -3.4643    0.0000 C   0  0  0  0  0  0  0  0  0  0  0  0
    4.6654   -2.3264    0.0000 C   0  0  0  0  0  0  0  0  0  0  0  0
    1.3276   -3.4643    0.0000 C   0  0  0  0  0  0  0  0  0  0  0  0
    1.3276   -4.8045    0.0000 F   0  0  0  0  0  0  0  0  0  0  0  0
    1.3276   -2.1494    0.0000 F   0  0  0  0  0  0  0  0  0  0  0  0
    0.0000   -3.4643    0.0000 F   0  0  0  0  0  0  0  0  0  0  0  0
    8.6481   -4.6149    0.0000 O   0  0  0  0  0  0  0  0  0  0  0  0
    9.3056   -5.7781    0.0000 C   0  0  0  0  0  0  0  0  0  0  0  0
   10.6458   -5.7781    0.0000 C   0  0  0  0  0  0  0  0  0  0  0  0
   11.3159   -6.9160    0.0000 N   0  0  0  0  0  0  0  0  0  0  0  0
  1  2  1  0  0  0  0
  1  6  2  0  0  0  0
  1 13  1  0  0  0  0
  2  3  1  0  0  0  0
  3  4  1  0  0  0  0
  4  5  1  0  0  0  0
  5  7  1  0  0  0  0
  6 19  1  0  0  0  0
  7  8  1  0  0  0  0
  9 14  2  0  0  0  0
  9 10  1  0  0  0  0
 10 11  2  0  0  0  0
 10 15  1  0  0  0  0
 11 12  1  0  0  0  0
 12 13  2  0  0  0  0
 13 14  1  0  0  0  0
 15 16  1  0  0  0  0
 15 17  1  0  0  0  0
 15 18  1  0  0  0  0
 19 20  1  0  0  0  0
 20 21  1  0  0  0  0
 21 22  1  0  0  0  0
M  END
> <ID>
9813

> <Formula>
C15H21F3N2O2

> <FW>
318.3346

> <DSSTox_CID>
24002

> <DSSTox_RID>
80097

> <DSSTox_GSID>
44002

> <DSSTox_FileID_Sort>
4779

> <TS_ChemName>
Fluvoxamine

> <TS_ChemName_Synonyms>


> <TS_CASRN>
54739-18-3

> <CASRN_ChemName_Relationship>
primary

> <TS_Description>
single chemical compound

> <ChemNote>
stereochem

> <STRUCTURE_Shown>
tested chemical

> <STRUCTURE_Formula>
C15H21F3N2O2

> <STRUCTURE_MW>
318.3346

> <STRUCTURE_ChemType>
defined organic

> <STRUCTURE_DefinedOrganicForm>
parent

> <STRUCTURE_IUPAC>
2-{[(E)-{5-methoxy-1-[4-(trifluoromethyl)phenyl]pentylidene}amino]oxy}ethanamine

> <STRUCTURE_SMILES>
FC(F)(F)c1ccc(cc1)C(\CCCCOC)=N\OCCN

> <STRUCTURE_SMILES_Desalt>
FC(F)(F)c1ccc(cc1)C(\CCCCOC)=N\OCCN

> <Substance_modify_yyyymmdd>
20090130

$$$$
