54767-75-8
ChemmineR-0915142007XD

 23 23  0  0  0  0  0  0  0  0  1 V2000
    0.0000   -6.9086    0.0000 C   0  0  0  0  0  0  0  0  0  0  0  0
    0.6587   -5.7523    0.0000 C   0  0  0  0  0  0  0  0  0  0  0  0
    1.9906   -5.7523    0.0000 C   0  0  0  0  0  0  0  0  0  0  0  0
    2.6639   -4.6106    0.0000 C   0  0  0  0  0  0  0  0  0  0  0  0
    3.9959   -4.6106    0.0000 C   0  0  0  0  0  0  0  0  0  0  0  0
    4.6545   -3.4543    0.0000 C   0  0  0  0  0  0  0  0  0  0  0  0
    5.9865   -3.4543    0.0000 C   0  0  0  0  0  0  0  0  0  0  0  0
    6.6598   -2.2980    0.0000 C   0  0  0  0  0  0  0  0  0  0  0  0
    7.9771   -2.2980    0.0000 N   0  0  0  0  0  0  0  0  0  0  0  0
    8.6504   -1.1417    0.0000 C   0  0  0  0  0  0  0  0  0  0  0  0
    7.9771    0.0000    0.0000 C   0  0  0  0  0  0  0  0  0  0  0  0
    9.9823   -1.1417    0.0000 C   0  0  0  0  0  0  0  0  0  0  0  0
   10.6410    0.0000    0.0000 O   0  0  0  0  0  0  0  0  0  0  0  0
   10.6410   -2.2980    0.0000 C   0  0  0  0  0  0  0  0  0  0  0  0
   11.9729   -2.2980    0.0000 C   0  0  0  0  0  0  0  0  0  0  0  0
   12.6462   -3.4543    0.0000 C   0  0  0  0  0  0  0  0  0  0  0  0
   11.9729   -4.6106    0.0000 C   0  0  0  0  0  0  0  0  0  0  0  0
   12.6462   -5.7523    0.0000 S   0  0  0  0  0  0  0  0  0  0  0  0
   13.9782   -5.7523    0.0000 C   0  0  0  0  0  0  0  0  0  0  0  0
   14.6368   -4.6106    0.0000 C   0  0  0  0  0  0  0  0  0  0  0  0
   14.6368   -6.9086    0.0000 C   0  0  0  0  0  0  0  0  0  0  0  0
   10.6410   -4.6106    0.0000 C   0  0  0  0  0  0  0  0  0  0  0  0
    9.9823   -3.4543    0.0000 C   0  0  0  0  0  0  0  0  0  0  0  0
  1  2  1  0  0  0  0
  2  3  1  0  0  0  0
  3  4  1  0  0  0  0
  4  5  1  0  0  0  0
  5  6  1  0  0  0  0
  6  7  1  0  0  0  0
  7  8  1  0  0  0  0
  8  9  1  0  0  0  0
  9 10  1  0  0  0  0
 10 11  1  0  0  0  0
 10 12  1  0  0  0  0
 12 13  1  0  0  0  0
 12 14  1  0  0  0  0
 14 15  2  0  0  0  0
 14 23  1  0  0  0  0
 15 16  1  0  0  0  0
 16 17  2  0  0  0  0
 17 18  1  0  0  0  0
 17 22  1  0  0  0  0
 18 19  1  0  0  0  0
 19 20  1  0  0  0  0
 19 21  1  0  0  0  0
 22 23  2  0  0  0  0
M  END
> <ID>
11087

> <Formula>
C20H35NOS

> <FW>
337.563

> <DSSTox_CID>
25638

> <DSSTox_RID>
81019

> <DSSTox_GSID>
45638

> <DSSTox_FileID_Sort>
5700

> <TS_ChemName>
Suloctdil

> <TS_ChemName_Synonyms>


> <TS_CASRN>
54767-75-8

> <CASRN_ChemName_Relationship>
primary

> <TS_Description>
single chemical compound

> <ChemNote>
stereochem

> <STRUCTURE_Shown>
tested chemical

> <STRUCTURE_Formula>
C20H35NOS

> <STRUCTURE_MW>
337.563

> <STRUCTURE_ChemType>
defined organic

> <STRUCTURE_DefinedOrganicForm>
parent

> <STRUCTURE_IUPAC>
2-(octylamino)-1-[4-(propan-2-ylsulfanyl)phenyl]propan-1-ol

> <STRUCTURE_SMILES>
CC(C)Sc1ccc(cc1)C(O)C(C)NCCCCCCCC

> <STRUCTURE_SMILES_Desalt>
CC(C)Sc1ccc(cc1)C(O)C(C)NCCCCCCCC

> <Substance_modify_yyyymmdd>
20100107

$$$$
