548-66-3
ChemmineR-0915142007XD

 24 24  0  0  0  0  0  0  0  0  1 V2000
   12.0597   -2.3637    0.0000 Cl   0  0  0  0  0  0  0  0  0  0  0  0
    3.4491   -0.6633    0.0000 C    0  0  0  0  0  0  0  0  0  0  0  0
    3.4491   -2.0260    0.0000 C    0  0  0  0  0  0  0  0  0  0  0  0
    2.3034    0.0000    0.0000 O    0  0  0  0  0  0  0  0  0  0  0  0
    4.6068   -2.6893    0.0000 C    0  0  0  0  0  0  0  0  0  0  0  0
    2.3034   -2.6652    0.0000 C    0  0  0  0  0  0  0  0  0  0  0  0
    4.6068   -0.0241    0.0000 O    0  0  0  0  0  0  0  0  0  0  0  0
    8.0559   -0.6874    0.0000 N    0  0  0  0  0  0  0  0  0  0  0  0
    5.7525   -0.6633    0.0000 C    0  0  0  0  0  0  0  0  0  0  0  0
    6.9102   -0.0241    0.0000 C    0  0  0  0  0  0  0  0  0  0  0  0
    4.6068   -4.0279    0.0000 C    0  0  0  0  0  0  0  0  0  0  0  0
    5.7525   -2.0260    0.0000 C    0  0  0  0  0  0  0  0  0  0  0  0
    9.2136   -0.0241    0.0000 C    0  0  0  0  0  0  0  0  0  0  0  0
    8.0559   -2.0381    0.0000 C    0  0  0  0  0  0  0  0  0  0  0  0
    1.1457   -2.0260    0.0000 C    0  0  0  0  0  0  0  0  0  0  0  0
    2.3034   -4.0279    0.0000 C    0  0  0  0  0  0  0  0  0  0  0  0
   10.3593   -0.6633    0.0000 C    0  0  0  0  0  0  0  0  0  0  0  0
    9.2618   -2.7014    0.0000 C    0  0  0  0  0  0  0  0  0  0  0  0
    6.9102   -2.6893    0.0000 C    0  0  0  0  0  0  0  0  0  0  0  0
    5.7525   -4.6671    0.0000 C    0  0  0  0  0  0  0  0  0  0  0  0
    0.0000   -2.6893    0.0000 C    0  0  0  0  0  0  0  0  0  0  0  0
    1.1457   -4.6671    0.0000 C    0  0  0  0  0  0  0  0  0  0  0  0
    0.0000   -3.9917    0.0000 C    0  0  0  0  0  0  0  0  0  0  0  0
    6.9102   -4.0279    0.0000 C    0  0  0  0  0  0  0  0  0  0  0  0
  2  3  1  0  0  0  0
  2  4  2  0  0  0  0
  2  7  1  0  0  0  0
  3  5  1  0  0  0  0
  3  6  1  0  0  0  0
  5 11  2  0  0  0  0
  5 12  1  0  0  0  0
  6 15  1  0  0  0  0
  6 16  1  0  0  0  0
  7  9  1  0  0  0  0
  8 10  1  0  0  0  0
  8 13  1  0  0  0  0
  8 14  1  0  0  0  0
  9 10  1  0  0  0  0
 11 20  1  0  0  0  0
 12 19  2  0  0  0  0
 13 17  1  0  0  0  0
 14 18  1  0  0  0  0
 15 21  1  0  0  0  0
 16 22  1  0  0  0  0
 19 24  1  0  0  0  0
 20 24  2  0  0  0  0
 21 23  1  0  0  0  0
 22 23  1  0  0  0  0
M  END
> <ID>
11247

> <Formula>
C20H32ClNO2

> <FW>
353.9266 (36.4609+317.4656)

> <DSSTox_CID>
25859

> <DSSTox_RID>
81179

> <DSSTox_GSID>
45859

> <DSSTox_FileID_Sort>
5860

> <TS_ChemName>
Drofenine hydrochloride

> <TS_ChemName_Synonyms>


> <TS_CASRN>
548-66-3

> <CASRN_ChemName_Relationship>
primary

> <TS_Description>
single chemical compound

> <ChemNote>
parent [1679-76-1]

> <STRUCTURE_Shown>
tested chemical

> <STRUCTURE_Formula>
C20H32ClNO2

> <STRUCTURE_MW>
353.9266

> <STRUCTURE_ChemType>
defined organic

> <STRUCTURE_DefinedOrganicForm>
complex

> <STRUCTURE_IUPAC>
2-(diethylamino)ethyl cyclohexyl(phenyl)acetate hydrochloride (1:1)

> <STRUCTURE_SMILES>
Cl.CCN(CC)CCOC(=O)C(c1ccccc1)C2CCCCC2

> <STRUCTURE_SMILES_Desalt>
CCN(CC)CCOC(=O)C(c1ccccc1)C2CCCCC2

> <Substance_modify_yyyymmdd>
20110922

$$$$
