548-73-2
ChemmineR-0915142007XD

 28 31  0  0  0  0  0  0  0  0  1 V2000
    0.6602   -5.1289    0.0000 C   0  0  0  0  0  0  0  0  0  0  0  0
    0.0000   -3.9737    0.0000 C   0  0  0  0  0  0  0  0  0  0  0  0
    0.6602   -2.8311    0.0000 C   0  0  0  0  0  0  0  0  0  0  0  0
    1.9932   -2.8311    0.0000 C   0  0  0  0  0  0  0  0  0  0  0  0
    2.6660   -3.9737    0.0000 C   0  0  0  0  0  0  0  0  0  0  0  0
    1.9932   -5.1289    0.0000 C   0  0  0  0  0  0  0  0  0  0  0  0
    3.9610   -3.7070    0.0000 N   0  0  0  0  0  0  0  0  0  0  0  0
    4.9512   -4.5957    0.0000 C   0  0  0  0  0  0  0  0  0  0  0  0
    6.2207   -4.1768    0.0000 C   0  0  0  0  0  0  0  0  0  0  0  0
    7.1983   -5.0655    0.0000 C   0  0  0  0  0  0  0  0  0  0  0  0
    6.9317   -6.3731    0.0000 N   0  0  0  0  0  0  0  0  0  0  0  0
    7.9092   -7.2618    0.0000 C   0  0  0  0  0  0  0  0  0  0  0  0
    9.1788   -6.8555    0.0000 C   0  0  0  0  0  0  0  0  0  0  0  0
    9.4581   -5.5479    0.0000 C   0  0  0  0  0  0  0  0  0  0  0  0
   10.7276   -5.1416    0.0000 C   0  0  0  0  0  0  0  0  0  0  0  0
   11.6670   -6.0811    0.0000 O   0  0  0  0  0  0  0  0  0  0  0  0
   11.0704   -3.8594    0.0000 C   0  0  0  0  0  0  0  0  0  0  0  0
   10.1309   -2.9072    0.0000 C   0  0  0  0  0  0  0  0  0  0  0  0
   10.4737   -1.6250    0.0000 C   0  0  0  0  0  0  0  0  0  0  0  0
   11.7559   -1.2822    0.0000 C   0  0  0  0  0  0  0  0  0  0  0  0
   12.0987    0.0000    0.0000 F   0  0  0  0  0  0  0  0  0  0  0  0
   12.6954   -2.2217    0.0000 C   0  0  0  0  0  0  0  0  0  0  0  0
   12.3526   -3.5039    0.0000 C   0  0  0  0  0  0  0  0  0  0  0  0
    5.6621   -6.7793    0.0000 C   0  0  0  0  0  0  0  0  0  0  0  0
    4.6719   -5.8907    0.0000 C   0  0  0  0  0  0  0  0  0  0  0  0
    4.1006   -2.3740    0.0000 C   0  0  0  0  0  0  0  0  0  0  0  0
    5.2559   -1.7139    0.0000 O   0  0  0  0  0  0  0  0  0  0  0  0
    2.8818   -1.8408    0.0000 N   0  0  0  0  0  0  0  0  0  0  0  0
  1  2  2  0  0  0  0
  1  6  1  0  0  0  0
  2  3  1  0  0  0  0
  3  4  2  0  0  0  0
  4  5  1  0  0  0  0
  4 28  1  0  0  0  0
  5  6  2  0  0  0  0
  5  7  1  0  0  0  0
  7  8  1  0  0  0  0
  7 26  1  0  0  0  0
  8  9  1  0  0  0  0
  8 25  2  0  0  0  0
  9 10  1  0  0  0  0
 10 11  1  0  0  0  0
 11 12  1  0  0  0  0
 11 24  1  0  0  0  0
 12 13  1  0  0  0  0
 13 14  1  0  0  0  0
 14 15  1  0  0  0  0
 15 16  2  0  0  0  0
 15 17  1  0  0  0  0
 17 18  2  0  0  0  0
 17 23  1  0  0  0  0
 18 19  1  0  0  0  0
 19 20  2  0  0  0  0
 20 21  1  0  0  0  0
 20 22  1  0  0  0  0
 22 23  2  0  0  0  0
 24 25  1  0  0  0  0
 26 27  2  0  0  0  0
 26 28  1  0  0  0  0
M  END
> <ID>
2676

> <Formula>
C22H22FN3O2

> <FW>
379.4274

> <DSSTox_CID>
2973

> <DSSTox_RID>
76811

> <DSSTox_GSID>
22973

> <DSSTox_FileID_Sort>
1495

> <TS_ChemName>
Droperidol

> <TS_ChemName_Synonyms>


> <TS_CASRN>
548-73-2

> <CASRN_ChemName_Relationship>
primary

> <TS_Description>
single chemical compound

> <ChemNote>


> <STRUCTURE_Shown>
tested chemical

> <STRUCTURE_Formula>
C22H22FN3O2

> <STRUCTURE_MW>
379.4274

> <STRUCTURE_ChemType>
defined organic

> <STRUCTURE_DefinedOrganicForm>
parent

> <STRUCTURE_IUPAC>
1-{1-[4-(4-fluorophenyl)-4-oxobutyl]-1,2,3,6-tetrahydropyridin-4-yl}-1,3-dihydro-2H-benzimidazol-2-one

> <STRUCTURE_SMILES>
Fc1ccc(cc1)C(=O)CCCN2CC=C(CC2)N3c4ccccc4NC3=O

> <STRUCTURE_SMILES_Desalt>
Fc1ccc(cc1)C(=O)CCCN2CC=C(CC2)N3c4ccccc4NC3=O

> <Substance_modify_yyyymmdd>
20080429

$$$$
