548-00-5
ChemmineR-0915142007XD

 30 33  0  0  0  0  0  0  0  0  1 V2000
    0.8009    0.0000    0.0000 C   0  0  0  0  0  0  0  0  0  0  0  0
    2.1537   -0.0541    0.0000 C   0  0  0  0  0  0  0  0  0  0  0  0
    2.7598   -1.2230    0.0000 O   0  0  0  0  0  0  0  0  0  0  0  0
    4.0693   -1.3637    0.0000 C   0  0  0  0  0  0  0  0  0  0  0  0
    4.5564   -0.1190    0.0000 O   0  0  0  0  0  0  0  0  0  0  0  0
    4.7512   -2.5325    0.0000 C   0  0  0  0  0  0  0  0  0  0  0  0
    6.0932   -2.5000    0.0000 C   0  0  0  0  0  0  0  0  0  0  0  0
    6.8832   -3.5498    0.0000 C   0  0  0  0  0  0  0  0  0  0  0  0
    6.8291   -4.8486    0.0000 O   0  0  0  0  0  0  0  0  0  0  0  0
    8.2253   -3.5498    0.0000 C   0  0  0  0  0  0  0  0  0  0  0  0
    8.8638   -2.3918    0.0000 C   0  0  0  0  0  0  0  0  0  0  0  0
    8.1170   -1.3204    0.0000 O   0  0  0  0  0  0  0  0  0  0  0  0
    6.7642   -1.3528    0.0000 C   0  0  0  0  0  0  0  0  0  0  0  0
    6.4287   -0.0649    0.0000 O   0  0  0  0  0  0  0  0  0  0  0  0
   10.1950   -2.4568    0.0000 C   0  0  0  0  0  0  0  0  0  0  0  0
   10.8227   -3.6256    0.0000 C   0  0  0  0  0  0  0  0  0  0  0  0
   10.1625   -4.7836    0.0000 C   0  0  0  0  0  0  0  0  0  0  0  0
    8.8530   -4.7295    0.0000 C   0  0  0  0  0  0  0  0  0  0  0  0
    4.0910   -3.7230    0.0000 C   0  0  0  0  0  0  0  0  0  0  0  0
    2.7381   -3.7230    0.0000 C   0  0  0  0  0  0  0  0  0  0  0  0
    1.8074   -2.7814    0.0000 O   0  0  0  0  0  0  0  0  0  0  0  0
    2.0238   -4.8594    0.0000 C   0  0  0  0  0  0  0  0  0  0  0  0
    2.5974   -6.0499    0.0000 C   0  0  0  0  0  0  0  0  0  0  0  0
    3.8529   -6.0282    0.0000 O   0  0  0  0  0  0  0  0  0  0  0  0
    4.6213   -4.9460    0.0000 C   0  0  0  0  0  0  0  0  0  0  0  0
    5.5953   -5.8551    0.0000 O   0  0  0  0  0  0  0  0  0  0  0  0
    1.9589   -7.2187    0.0000 C   0  0  0  0  0  0  0  0  0  0  0  0
    0.6061   -7.1754    0.0000 C   0  0  0  0  0  0  0  0  0  0  0  0
    0.0000   -5.9850    0.0000 C   0  0  0  0  0  0  0  0  0  0  0  0
    0.6927   -4.8486    0.0000 C   0  0  0  0  0  0  0  0  0  0  0  0
  1  2  1  0  0  0  0
  2  3  1  0  0  0  0
  3  4  1  0  0  0  0
  4  5  2  0  0  0  0
  4  6  1  0  0  0  0
  6  7  1  0  0  0  0
  6 19  1  0  0  0  0
  7  8  2  0  0  0  0
  7 13  1  0  0  0  0
  8  9  1  0  0  0  0
  8 10  1  0  0  0  0
 10 11  2  0  0  0  0
 10 18  1  0  0  0  0
 11 12  1  0  0  0  0
 11 15  1  0  0  0  0
 12 13  1  0  0  0  0
 13 14  2  0  0  0  0
 15 16  2  0  0  0  0
 16 17  1  0  0  0  0
 17 18  2  0  0  0  0
 19 20  2  0  0  0  0
 19 25  1  0  0  0  0
 20 21  1  0  0  0  0
 20 22  1  0  0  0  0
 22 23  2  0  0  0  0
 22 30  1  0  0  0  0
 23 24  1  0  0  0  0
 23 27  1  0  0  0  0
 24 25  1  0  0  0  0
 25 26  2  0  0  0  0
 27 28  2  0  0  0  0
 28 29  1  0  0  0  0
 29 30  2  0  0  0  0
M  END
> <ID>
16170

> <Formula>
C22H16O8

> <FW>
408.3576

> <DSSTox_CID>
31560

> <DSSTox_RID>
97445

> <DSSTox_GSID>
57771

> <DSSTox_FileID_Sort>
8512

> <TS_ChemName>
Ethyl biscoumacetate

> <TS_ChemName_Synonyms>


> <TS_CASRN>
548-00-5

> <CASRN_ChemName_Relationship>
primary

> <TS_Description>
single chemical compound

> <ChemNote>


> <STRUCTURE_Shown>
tested chemical

> <STRUCTURE_Formula>
C22H16O8

> <STRUCTURE_MW>
408.3576

> <STRUCTURE_ChemType>
defined organic

> <STRUCTURE_DefinedOrganicForm>
parent

> <STRUCTURE_IUPAC>
ethyl bis(4-hydroxy-2-oxo-2H-chromen-3-yl)acetate

> <STRUCTURE_SMILES>
OC=1c4ccccc4OC(=O)C=1C(C2=C(O)c3ccccc3OC2=O)C(=O)OCC

> <STRUCTURE_SMILES_Desalt>
OC=1c4ccccc4OC(=O)C=1C(C2=C(O)c3ccccc3OC2=O)C(=O)OCC

> <Substance_modify_yyyymmdd>
20131018

$$$$
