548-62-9
ChemmineR-0915142007XD

 29 30  0  0  0  0  0  0  0  0  2 V2000
    5.7725   -5.3677    0.0000 C    0  0  0  0  0  0  0  0  0  0  0  0
    5.7725   -9.3587    0.0000 N    0  3  0  0  0  0  0  0  0  0  0  0
    5.7725   -4.0257    0.0000 C    0  0  0  0  0  0  0  0  0  0  0  0
    5.7725   -8.0168    0.0000 C    0  0  0  0  0  0  0  0  0  0  0  0
    6.9178   -6.0270    0.0000 C    0  0  0  0  0  0  0  0  0  0  0  0
    4.6157   -6.0270    0.0000 C    0  0  0  0  0  0  0  0  0  0  0  0
    4.6157   -7.3343    0.0000 C    0  0  0  0  0  0  0  0  0  0  0  0
    6.9178   -7.3343    0.0000 C    0  0  0  0  0  0  0  0  0  0  0  0
    4.6157   -3.3664    0.0000 C    0  0  0  0  0  0  0  0  0  0  0  0
    6.9525   -3.3664    0.0000 C    0  0  0  0  0  0  0  0  0  0  0  0
    2.3252   -2.0476    0.0000 C    0  0  0  0  0  0  0  0  0  0  0  0
    9.2430   -2.0360    0.0000 C    0  0  0  0  0  0  0  0  0  0  0  0
   10.4345   -1.3188    0.0000 N    0  0  0  0  0  0  0  0  0  0  0  0
    1.1337   -1.3882    0.0000 N    0  0  0  0  0  0  0  0  0  0  0  0
    8.0862   -4.0257    0.0000 C    0  0  0  0  0  0  0  0  0  0  0  0
    4.6157   -2.0476    0.0000 C    0  0  0  0  0  0  0  0  0  0  0  0
    6.9525   -2.0360    0.0000 C    0  0  0  0  0  0  0  0  0  0  0  0
    3.4820   -4.0257    0.0000 C    0  0  0  0  0  0  0  0  0  0  0  0
    3.4820   -1.3882    0.0000 C    0  0  0  0  0  0  0  0  0  0  0  0
    8.0862   -1.3651    0.0000 C    0  0  0  0  0  0  0  0  0  0  0  0
    2.3252   -3.3664    0.0000 C    0  0  0  0  0  0  0  0  0  0  0  0
    9.2430   -3.3664    0.0000 C    0  0  0  0  0  0  0  0  0  0  0  0
    4.6157  -10.0181    0.0000 C    0  0  0  0  0  0  0  0  0  0  0  0
    6.9178  -10.0181    0.0000 C    0  0  0  0  0  0  0  0  0  0  0  0
    1.1337   -0.0463    0.0000 C    0  0  0  0  0  0  0  0  0  0  0  0
   10.4345    0.0000    0.0000 C    0  0  0  0  0  0  0  0  0  0  0  0
    0.0000   -2.0591    0.0000 C    0  0  0  0  0  0  0  0  0  0  0  0
   11.5682   -2.0013    0.0000 C    0  0  0  0  0  0  0  0  0  0  0  0
    9.1967   -9.0464    0.0000 Cl   0  5  0  0  0  0  0  0  0  0  0  0
  1  3  2  0  0  0  0
  1  5  1  0  0  0  0
  1  6  1  0  0  0  0
  2  4  2  0  0  0  0
  2 23  1  0  0  0  0
  2 24  1  0  0  0  0
  3  9  1  0  0  0  0
  3 10  1  0  0  0  0
  4  7  1  0  0  0  0
  4  8  1  0  0  0  0
  5  8  2  0  0  0  0
  6  7  2  0  0  0  0
  9 16  2  0  0  0  0
  9 18  1  0  0  0  0
 10 15  2  0  0  0  0
 10 17  1  0  0  0  0
 11 21  1  0  0  0  0
 11 14  1  0  0  0  0
 11 19  2  0  0  0  0
 12 20  1  0  0  0  0
 12 13  1  0  0  0  0
 12 22  2  0  0  0  0
 13 26  1  0  0  0  0
 13 28  1  0  0  0  0
 14 25  1  0  0  0  0
 14 27  1  0  0  0  0
 15 22  1  0  0  0  0
 16 19  1  0  0  0  0
 17 20  2  0  0  0  0
 18 21  2  0  0  0  0
M  END
> <ID>
628

> <Formula>
C25H30ClN3

> <FW>
407.9788 (372.5253+35.4535)

> <DSSTox_CID>
653

> <DSSTox_RID>
75713

> <DSSTox_GSID>
20653

> <DSSTox_FileID_Sort>
397

> <TS_ChemName>
Gentian violet

> <TS_ChemName_Synonyms>
Hexamethyl-p-rosaniline chloride (Gentian violet) (Crystal violet) (Methanaminium,N-[4-[bis[4-(dimethylamino)phenyl]methylene]-2,5-cyclohexadien-1-ylidene]-N-methyl-,chloride)

> <TS_CASRN>
548-62-9

> <CASRN_ChemName_Relationship>
primary

> <TS_Description>
single chemical compound

> <ChemNote>
ammonium; C.I. 42555; parent [14426-25-6]

> <STRUCTURE_Shown>
tested chemical

> <STRUCTURE_Formula>
C25H30ClN3

> <STRUCTURE_MW>
407.9788

> <STRUCTURE_ChemType>
defined organic

> <STRUCTURE_DefinedOrganicForm>
salt

> <STRUCTURE_IUPAC>
4-{bis[4-(dimethylamino)phenyl]methylidene}-N,N-dimethylcyclohexa-2,5-dien-1-iminium chloride

> <STRUCTURE_SMILES>
[Cl-].C/[N+](C)=C1\C=C\C(C=C1)=C(/c2ccc(cc2)N(C)C)c3ccc(cc3)N(C)C

> <STRUCTURE_SMILES_Desalt>
C/[N+](C)=C1\C=C\C(C=C1)=C(/c2ccc(cc2)N(C)C)c3ccc(cc3)N(C)C

> <Substance_modify_yyyymmdd>
20080429

$$$$
