54827-17-7
ChemmineR-0915142007XD

 18 19  0  0  0  0  0  0  0  0  1 V2000
    9.3137   -2.3098    0.0000 N   0  0  0  0  0  0  0  0  0  0  0  0
    7.9819   -2.3098    0.0000 C   0  0  0  0  0  0  0  0  0  0  0  0
    7.3206   -3.4554    0.0000 C   0  0  0  0  0  0  0  0  0  0  0  0
    5.9887   -3.4554    0.0000 C   0  0  0  0  0  0  0  0  0  0  0  0
    5.3182   -2.3098    0.0000 C   0  0  0  0  0  0  0  0  0  0  0  0
    3.9956   -2.3098    0.0000 C   0  0  0  0  0  0  0  0  0  0  0  0
    3.3250   -3.4554    0.0000 C   0  0  0  0  0  0  0  0  0  0  0  0
    1.9931   -3.4554    0.0000 C   0  0  0  0  0  0  0  0  0  0  0  0
    1.3319   -2.3098    0.0000 C   0  0  0  0  0  0  0  0  0  0  0  0
    0.0000   -2.3098    0.0000 N   0  0  0  0  0  0  0  0  0  0  0  0
    1.9931   -1.1549    0.0000 C   0  0  0  0  0  0  0  0  0  0  0  0
    1.3319    0.0000    0.0000 C   0  0  0  0  0  0  0  0  0  0  0  0
    1.3319   -4.6103    0.0000 C   0  0  0  0  0  0  0  0  0  0  0  0
    3.3250   -1.1549    0.0000 C   0  0  0  0  0  0  0  0  0  0  0  0
    5.9887   -1.1549    0.0000 C   0  0  0  0  0  0  0  0  0  0  0  0
    7.9819   -4.6103    0.0000 C   0  0  0  0  0  0  0  0  0  0  0  0
    7.3206   -1.1549    0.0000 C   0  0  0  0  0  0  0  0  0  0  0  0
    7.9819    0.0000    0.0000 C   0  0  0  0  0  0  0  0  0  0  0  0
  1  2  1  0  0  0  0
  2  3  2  0  0  0  0
  2 17  1  0  0  0  0
  3  4  1  0  0  0  0
  3 16  1  0  0  0  0
  4  5  2  0  0  0  0
  5  6  1  0  0  0  0
  5 15  1  0  0  0  0
  6  7  2  0  0  0  0
  6 14  1  0  0  0  0
  7  8  1  0  0  0  0
  8  9  2  0  0  0  0
  8 13  1  0  0  0  0
  9 10  1  0  0  0  0
  9 11  1  0  0  0  0
 11 12  1  0  0  0  0
 11 14  2  0  0  0  0
 15 17  2  0  0  0  0
 17 18  1  0  0  0  0
M  END
> <ID>
4552

> <Formula>
C16H20N2

> <FW>
240.3434

> <DSSTox_CID>
6120

> <DSSTox_RID>
78025

> <DSSTox_GSID>
26120

> <DSSTox_FileID_Sort>
2708

> <TS_ChemName>
3,3',5,5'-Tetramethylbenzidine

> <TS_ChemName_Synonyms>


> <TS_CASRN>
54827-17-7

> <CASRN_ChemName_Relationship>
primary

> <TS_Description>
single chemical compound

> <ChemNote>


> <STRUCTURE_Shown>
tested chemical

> <STRUCTURE_Formula>
C16H20N2

> <STRUCTURE_MW>
240.3434

> <STRUCTURE_ChemType>
defined organic

> <STRUCTURE_DefinedOrganicForm>
parent

> <STRUCTURE_IUPAC>
3,3',5,5'-tetramethylbiphenyl-4,4'-diamine

> <STRUCTURE_SMILES>
Cc1cc(cc(C)c1N)c2cc(C)c(N)c(C)c2

> <STRUCTURE_SMILES_Desalt>
Cc1cc(cc(C)c1N)c2cc(C)c(N)c(C)c2

> <Substance_modify_yyyymmdd>
20080429

$$$$
