5486-77-1
ChemmineR-0915142007XD

 21 21  0  0  0  0  0  0  0  0  1 V2000
    6.9087   -1.9992    0.0000 C    0  0  0  0  0  0  0  0  0  0  0  0
    8.0602   -2.6572    0.0000 C    0  0  0  0  0  0  0  0  0  0  0  0
    6.9087   -0.6706    0.0000 C    0  0  0  0  0  0  0  0  0  0  0  0
    5.7446   -2.6572    0.0000 C    0  0  0  0  0  0  0  0  0  0  0  0
    8.0602   -3.9858    0.0000 C    0  0  0  0  0  0  0  0  0  0  0  0
    8.0602    0.0000    0.0000 O    0  0  0  0  0  0  0  0  0  0  0  0
    5.7446    0.0000    0.0000 N    0  0  0  0  0  0  0  0  0  0  0  0
    6.9087   -4.6564    0.0000 C    0  0  0  0  0  0  0  0  0  0  0  0
   11.5019   -1.9992    0.0000 C    0  0  0  0  0  0  0  0  0  0  0  0
   12.6534   -2.6572    0.0000 C    0  0  0  0  0  0  0  0  0  0  0  0
    5.7446   -3.9858    0.0000 C    0  0  0  0  0  0  0  0  0  0  0  0
    9.2117   -1.9992    0.0000 O    0  0  0  0  0  0  0  0  0  0  0  0
    2.2903   -0.6706    0.0000 N    0  0  0  0  0  0  0  0  0  0  0  0
    6.9087   -5.9850    0.0000 Cl   0  0  0  0  0  0  0  0  0  0  0  0
    4.5932   -0.6706    0.0000 C    0  0  0  0  0  0  0  0  0  0  0  0
   10.3631   -2.6572    0.0000 C    0  0  0  0  0  0  0  0  0  0  0  0
    3.4417    0.0000    0.0000 C    0  0  0  0  0  0  0  0  0  0  0  0
    1.1388    0.0000    0.0000 C    0  0  0  0  0  0  0  0  0  0  0  0
    2.2903   -1.9992    0.0000 C    0  0  0  0  0  0  0  0  0  0  0  0
    0.0000   -0.6706    0.0000 C    0  0  0  0  0  0  0  0  0  0  0  0
    3.4417   -2.6572    0.0000 C    0  0  0  0  0  0  0  0  0  0  0  0
  1  2  1  0  0  0  0
  1  3  1  0  0  0  0
  1  4  2  0  0  0  0
  2  5  2  0  0  0  0
  2 12  1  0  0  0  0
  3  6  2  0  0  0  0
  3  7  1  0  0  0  0
  4 11  1  0  0  0  0
  5  8  1  0  0  0  0
  7 15  1  0  0  0  0
  8 11  2  0  0  0  0
  8 14  1  0  0  0  0
  9 16  1  0  0  0  0
  9 10  2  0  0  0  0
 12 16  1  0  0  0  0
 13 17  1  0  0  0  0
 13 18  1  0  0  0  0
 13 19  1  0  0  0  0
 15 17  1  0  0  0  0
 18 20  1  0  0  0  0
 19 21  1  0  0  0  0
M  END
> <ID>
13842

> <Formula>
C16H23ClN2O2

> <FW>
310.819

> <DSSTox_CID>
28779

> <DSSTox_RID>
83048

> <DSSTox_GSID>
48853

> <DSSTox_FileID_Sort>
7725

> <TS_ChemName>
Alloclamide

> <TS_ChemName_Synonyms>


> <TS_CASRN>
5486-77-1

> <CASRN_ChemName_Relationship>
primary

> <TS_Description>
single chemical compound

> <ChemNote>


> <STRUCTURE_Shown>
tested chemical

> <STRUCTURE_Formula>
C16H23ClN2O2

> <STRUCTURE_MW>
310.819

> <STRUCTURE_ChemType>
defined organic

> <STRUCTURE_DefinedOrganicForm>
parent

> <STRUCTURE_IUPAC>
4-chloro-N-[2-(diethylamino)ethyl]-2-(prop-2-en-1-yloxy)benzamide

> <STRUCTURE_SMILES>
O=C(NCCN(CC)CC)c1ccc(Cl)cc1OCC=C

> <STRUCTURE_SMILES_Desalt>
O=C(NCCN(CC)CC)c1ccc(Cl)cc1OCC=C

> <Substance_modify_yyyymmdd>
20111204

$$$$
