5486-03-3
ChemmineR-0915142007XD

 26 27  0  0  0  0  0  0  0  0  1 V2000
    9.2147   -3.3462    0.0000 C   0  0  0  0  0  0  0  0  0  0  0  0
    6.9078   -3.3462    0.0000 C   0  0  0  0  0  0  0  0  0  0  0  0
    8.0613   -4.0053    0.0000 C   0  0  0  0  0  0  0  0  0  0  0  0
    6.9078   -2.0153    0.0000 C   0  0  0  0  0  0  0  0  0  0  0  0
    8.0613   -1.3435    0.0000 N   0  0  0  0  0  0  0  0  0  0  0  0
    5.7671   -4.0053    0.0000 C   0  0  0  0  0  0  0  0  0  0  0  0
   10.3681   -4.0180    0.0000 C   0  0  0  0  0  0  0  0  0  0  0  0
    9.2147   -2.0153    0.0000 C   0  0  0  0  0  0  0  0  0  0  0  0
    5.7671   -1.3435    0.0000 C   0  0  0  0  0  0  0  0  0  0  0  0
    4.6137   -3.3462    0.0000 C   0  0  0  0  0  0  0  0  0  0  0  0
    4.6137   -2.0153    0.0000 C   0  0  0  0  0  0  0  0  0  0  0  0
    3.4603   -4.0180    0.0000 O   0  0  0  0  0  0  0  0  0  0  0  0
    3.4603   -1.3309    0.0000 O   0  0  0  0  0  0  0  0  0  0  0  0
   10.3681   -5.3488    0.0000 O   0  0  0  0  0  0  0  0  0  0  0  0
    8.0613   -5.3361    0.0000 O   0  0  0  0  0  0  0  0  0  0  0  0
   11.5215   -3.3589    0.0000 O   0  0  0  0  0  0  0  0  0  0  0  0
    2.3068   -1.9900    0.0000 C   0  0  0  0  0  0  0  0  0  0  0  0
    2.3068   -3.3589    0.0000 C   0  0  0  0  0  0  0  0  0  0  0  0
    1.1534   -1.3309    0.0000 C   0  0  0  0  0  0  0  0  0  0  0  0
    1.1534   -4.0180    0.0000 C   0  0  0  0  0  0  0  0  0  0  0  0
   11.5215   -2.0407    0.0000 C   0  0  0  0  0  0  0  0  0  0  0  0
    1.1534    0.0000    0.0000 C   0  0  0  0  0  0  0  0  0  0  0  0
    0.0000   -3.3589    0.0000 C   0  0  0  0  0  0  0  0  0  0  0  0
    1.1534   -5.3488    0.0000 C   0  0  0  0  0  0  0  0  0  0  0  0
    0.0000   -1.9900    0.0000 C   0  0  0  0  0  0  0  0  0  0  0  0
   12.6749   -1.3689    0.0000 C   0  0  0  0  0  0  0  0  0  0  0  0
  1  3  2  0  0  0  0
  1  7  1  0  0  0  0
  1  8  1  0  0  0  0
  2  3  1  0  0  0  0
  2  6  1  0  0  0  0
  2  4  2  0  0  0  0
  3 15  1  0  0  0  0
  4  5  1  0  0  0  0
  4  9  1  0  0  0  0
  5  8  2  0  0  0  0
  6 10  2  0  0  0  0
  7 14  2  0  0  0  0
  7 16  1  0  0  0  0
  9 11  2  0  0  0  0
 10 12  1  0  0  0  0
 10 11  1  0  0  0  0
 11 13  1  0  0  0  0
 12 18  1  0  0  0  0
 13 17  1  0  0  0  0
 16 21  1  0  0  0  0
 17 19  1  0  0  0  0
 18 20  1  0  0  0  0
 19 22  1  0  0  0  0
 19 25  1  0  0  0  0
 20 23  1  0  0  0  0
 20 24  1  0  0  0  0
 21 26  1  0  0  0  0
M  END
> <ID>
8645

> <Formula>
C20H27NO5

> <FW>
361.4321

> <DSSTox_CID>
21689

> <DSSTox_RID>
79820

> <DSSTox_GSID>
41689

> <DSSTox_FileID_Sort>
4502

> <TS_ChemName>
Buquinolate

> <TS_ChemName_Synonyms>


> <TS_CASRN>
5486-03-3

> <CASRN_ChemName_Relationship>
primary

> <TS_Description>
single chemical compound

> <ChemNote>
tautomers

> <STRUCTURE_Shown>
tested chemical

> <STRUCTURE_Formula>
C20H27NO5

> <STRUCTURE_MW>
361.4321

> <STRUCTURE_ChemType>
defined organic

> <STRUCTURE_DefinedOrganicForm>
parent

> <STRUCTURE_IUPAC>
ethyl 4-hydroxy-6,7-bis(2-methylpropoxy)quinoline-3-carboxylate

> <STRUCTURE_SMILES>
CC(C)COc1cc2ncc(c(O)c2cc1OCC(C)C)C(=O)OCC

> <STRUCTURE_SMILES_Desalt>
CC(C)COc1cc2ncc(c(O)c2cc1OCC(C)C)C(=O)OCC

> <Substance_modify_yyyymmdd>
20080825

$$$$
