549-68-8
ChemmineR-0915142007XD

 29 31  0  0  0  0  0  0  0  0  1 V2000
    5.7600   -4.6668    0.0000 C   0  0  0  0  0  0  0  0  0  0  0  0
    4.6117   -6.6511    0.0000 C   0  0  0  0  0  0  0  0  0  0  0  0
    5.7600   -5.9897    0.0000 C   0  0  0  0  0  0  0  0  0  0  0  0
    5.7600   -1.9935    0.0000 C   0  0  0  0  0  0  0  0  0  0  0  0
    3.4634   -5.9897    0.0000 C   0  0  0  0  0  0  0  0  0  0  0  0
    6.9083   -2.6549    0.0000 C   0  0  0  0  0  0  0  0  0  0  0  0
    4.6117   -2.6549    0.0000 C   0  0  0  0  0  0  0  0  0  0  0  0
    4.6117   -3.9962    0.0000 C   0  0  0  0  0  0  0  0  0  0  0  0
    6.9083   -3.9962    0.0000 C   0  0  0  0  0  0  0  0  0  0  0  0
    4.6117   -8.0016    0.0000 C   0  0  0  0  0  0  0  0  0  0  0  0
    2.2967   -6.6787    0.0000 C   0  0  0  0  0  0  0  0  0  0  0  0
    2.2967   -7.9832    0.0000 C   0  0  0  0  0  0  0  0  0  0  0  0
    3.4634   -8.6722    0.0000 C   0  0  0  0  0  0  0  0  0  0  0  0
    6.9083   -6.6787    0.0000 N   0  0  0  0  0  0  0  0  0  0  0  0
    5.7600   -0.6614    0.0000 O   0  0  0  0  0  0  0  0  0  0  0  0
    3.4634   -1.9935    0.0000 O   0  0  0  0  0  0  0  0  0  0  0  0
    8.0567   -1.9935    0.0000 O   0  0  0  0  0  0  0  0  0  0  0  0
    6.9083   -7.9832    0.0000 C   0  0  0  0  0  0  0  0  0  0  0  0
    1.1483   -6.0264    0.0000 O   0  0  0  0  0  0  0  0  0  0  0  0
    1.1483   -8.6538    0.0000 O   0  0  0  0  0  0  0  0  0  0  0  0
    5.7600   -8.6722    0.0000 C   0  0  0  0  0  0  0  0  0  0  0  0
    6.8900    0.0000    0.0000 C   0  0  0  0  0  0  0  0  0  0  0  0
    3.4634   -0.6614    0.0000 C   0  0  0  0  0  0  0  0  0  0  0  0
    9.1866   -2.6549    0.0000 C   0  0  0  0  0  0  0  0  0  0  0  0
    0.0000   -6.6787    0.0000 C   0  0  0  0  0  0  0  0  0  0  0  0
    0.0000   -7.9740    0.0000 C   0  0  0  0  0  0  0  0  0  0  0  0
    4.6392    0.0000    0.0000 C   0  0  0  0  0  0  0  0  0  0  0  0
    8.0567   -0.6339    0.0000 C   0  0  0  0  0  0  0  0  0  0  0  0
    9.1866   -3.9962    0.0000 C   0  0  0  0  0  0  0  0  0  0  0  0
  1  3  1  0  0  0  0
  1  8  2  0  0  0  0
  1  9  1  0  0  0  0
  2  3  1  0  0  0  0
  2  5  1  0  0  0  0
  2 10  2  0  0  0  0
  3 14  2  0  0  0  0
  4  6  1  0  0  0  0
  4 15  1  0  0  0  0
  4  7  2  0  0  0  0
  5 11  2  0  0  0  0
  6  9  2  0  0  0  0
  6 17  1  0  0  0  0
  7  8  1  0  0  0  0
  7 16  1  0  0  0  0
 10 13  1  0  0  0  0
 10 21  1  0  0  0  0
 11 19  1  0  0  0  0
 11 12  1  0  0  0  0
 12 13  2  0  0  0  0
 12 20  1  0  0  0  0
 14 18  1  0  0  0  0
 15 22  1  0  0  0  0
 16 23  1  0  0  0  0
 17 24  1  0  0  0  0
 18 21  2  0  0  0  0
 19 25  1  0  0  0  0
 20 26  1  0  0  0  0
 22 28  1  0  0  0  0
 23 27  1  0  0  0  0
 24 29  1  0  0  0  0
M  END
> <ID>
11508

> <Formula>
C23H27NO5

> <FW>
397.4642

> <DSSTox_CID>
26213

> <DSSTox_RID>
81441

> <DSSTox_GSID>
46213

> <DSSTox_FileID_Sort>
6122

> <TS_ChemName>
Octaverine

> <TS_ChemName_Synonyms>


> <TS_CASRN>
549-68-8

> <CASRN_ChemName_Relationship>
primary

> <TS_Description>
single chemical compound

> <ChemNote>


> <STRUCTURE_Shown>
tested chemical

> <STRUCTURE_Formula>
C23H27NO5

> <STRUCTURE_MW>
397.4642

> <STRUCTURE_ChemType>
defined organic

> <STRUCTURE_DefinedOrganicForm>
parent

> <STRUCTURE_IUPAC>
6,7-dimethoxy-1-(3,4,5-triethoxyphenyl)isoquinoline

> <STRUCTURE_SMILES>
CCOc1cc(cc(OCC)c1OCC)c3nccc2cc(OC)c(cc23)OC

> <STRUCTURE_SMILES_Desalt>
CCOc1cc(cc(OCC)c1OCC)c3nccc2cc(OC)c(cc23)OC

> <Substance_modify_yyyymmdd>
20110817

$$$$
