5490-27-7
ChemmineR-0915142007XD

 95 96  0  0  1  0  0  0  0  0  1 V2000
   21.6777   -6.7818    0.0000 C   0  0  0  0  0  0  0  0  0  0  0  0
   22.0713   -5.5405    0.0000 O   0  0  0  0  0  0  0  0  0  0  0  0
   22.7071   -7.5690    0.0000 C   0  0  0  0  0  0  0  0  0  0  0  0
   23.3731   -5.5405    0.0000 C   0  0  0  0  0  0  0  0  0  0  0  0
   23.7970   -6.7818    0.0000 C   0  0  0  0  0  0  0  0  0  0  0  0
   26.8852   -3.4515    0.0000 C   0  0  0  0  0  0  0  0  0  0  0  0
   25.7347   -4.1478    0.0000 C   0  0  0  0  0  0  0  0  0  0  0  0
   26.8852   -2.1496    0.0000 C   0  0  0  0  0  0  0  0  0  0  0  0
   24.5842   -3.4515    0.0000 C   0  0  0  0  0  0  0  0  0  0  0  0
   25.7347   -1.4835    0.0000 C   0  0  0  0  0  0  0  0  0  0  0  0
   24.5842   -2.1496    0.0000 C   0  0  0  0  0  0  0  0  0  0  0  0
   28.0356   -4.0570    0.0000 O   0  0  0  0  0  0  0  0  0  0  0  0
   25.7649   -5.4194    0.0000 O   0  0  0  0  0  0  0  0  0  0  0  0
   23.4942   -4.0570    0.0000 O   0  0  0  0  0  0  0  0  0  0  0  0
   23.2218   -1.3624    0.0000 N   0  0  0  0  0  0  0  0  0  0  0  0
   25.7347   -0.1514    0.0000 O   0  0  0  0  0  0  0  0  0  0  0  0
   28.0054   -1.4230    0.0000 N   0  0  0  0  0  0  0  0  0  0  0  0
   29.1559   -2.0588    0.0000 C   0  0  0  0  0  0  0  0  0  0  0  0
   30.2761   -1.4230    0.0000 N   0  0  0  0  0  0  0  0  0  0  0  0
   29.1559   -3.3909    0.0000 N   0  0  0  0  0  0  0  0  0  0  0  0
   21.8896   -1.3624    0.0000 C   0  0  0  0  0  0  0  0  0  0  0  0
   21.2538   -0.2422    0.0000 N   0  0  0  0  0  0  0  0  0  0  0  0
   21.2538   -2.5129    0.0000 N   0  0  0  0  0  0  0  0  0  0  0  0
   25.2200   -7.2360    0.0000 O   0  0  0  0  0  0  0  0  0  0  0  0
   22.8282   -8.8709    0.0000 O   0  0  0  0  0  0  0  0  0  0  0  0
   20.4364   -7.2663    0.0000 C   0  0  0  0  0  0  0  0  0  0  0  0
   21.5566   -8.2351    0.0000 C   0  0  0  0  0  0  0  0  0  0  0  0
   21.5566   -9.5672    0.0000 O   0  0  0  0  0  0  0  0  0  0  0  0
   25.2200   -8.5379    0.0000 C   0  0  0  0  0  0  0  0  0  0  0  0
   26.3705   -9.2039    0.0000 C   0  0  0  0  0  0  0  0  0  0  0  0
   24.0998   -9.2039    0.0000 O   0  0  0  0  0  0  0  0  0  0  0  0
   26.3705  -10.5361    0.0000 C   0  0  0  0  0  0  0  0  0  0  0  0
   24.0998  -10.5361    0.0000 C   0  0  0  0  0  0  0  0  0  0  0  0
   25.2502  -11.2021    0.0000 C   0  0  0  0  0  0  0  0  0  0  0  0
   27.5210   -8.5076    0.0000 N   0  0  0  0  0  0  0  0  0  0  0  0
   27.5210  -11.1719    0.0000 O   0  0  0  0  0  0  0  0  0  0  0  0
   25.2502  -12.5040    0.0000 O   0  0  0  0  0  0  0  0  0  0  0  0
   22.9795  -11.2021    0.0000 C   0  0  0  0  0  0  0  0  0  0  0  0
   22.9795  -12.5343    0.0000 O   0  0  0  0  0  0  0  0  0  0  0  0
   28.6714   -9.2039    0.0000 C   0  0  0  0  0  0  0  0  0  0  0  0
    1.2413   -6.6607    0.0000 C   0  0  0  0  0  0  0  0  0  0  0  0
    1.6046   -5.3891    0.0000 O   0  0  0  0  0  0  0  0  0  0  0  0
    2.2707   -7.4176    0.0000 C   0  0  0  0  0  0  0  0  0  0  0  0
    2.9368   -5.3891    0.0000 C   0  0  0  0  0  0  0  0  0  0  0  0
    3.3304   -6.6607    0.0000 C   0  0  0  0  0  0  0  0  0  0  0  0
    6.4185   -3.3304    0.0000 C   0  0  0  0  0  0  0  0  0  0  0  0
    5.2680   -3.9964    0.0000 C   0  0  0  0  0  0  0  0  0  0  0  0
    6.4185   -1.9982    0.0000 C   0  0  0  0  0  0  0  0  0  0  0  0
    4.1478   -3.3304    0.0000 C   0  0  0  0  0  0  0  0  0  0  0  0
    5.2680   -1.3624    0.0000 C   0  0  0  0  0  0  0  0  0  0  0  0
    4.1478   -1.9982    0.0000 C   0  0  0  0  0  0  0  0  0  0  0  0
    7.5993   -3.9359    0.0000 O   0  0  0  0  0  0  0  0  0  0  0  0
    5.2983   -5.2680    0.0000 O   0  0  0  0  0  0  0  0  0  0  0  0
    3.0276   -3.9359    0.0000 O   0  0  0  0  0  0  0  0  0  0  0  0
    2.7854   -1.2110    0.0000 N   0  0  0  0  0  0  0  0  0  0  0  0
    5.2680    0.0000    0.0000 O   0  0  0  0  0  0  0  0  0  0  0  0
    7.5690   -1.3019    0.0000 N   0  0  0  0  0  0  0  0  0  0  0  0
    8.6892   -1.9074    0.0000 C   0  0  0  0  0  0  0  0  0  0  0  0
    9.8397   -1.2716    0.0000 N   0  0  0  0  0  0  0  0  0  0  0  0
    8.6892   -3.2395    0.0000 N   0  0  0  0  0  0  0  0  0  0  0  0
    1.4533   -1.2110    0.0000 C   0  0  0  0  0  0  0  0  0  0  0  0
    0.7872   -0.0908    0.0000 N   0  0  0  0  0  0  0  0  0  0  0  0
    0.7872   -2.3615    0.0000 N   0  0  0  0  0  0  0  0  0  0  0  0
    4.7836   -7.0846    0.0000 O   0  0  0  0  0  0  0  0  0  0  0  0
    2.3918   -8.7498    0.0000 O   0  0  0  0  0  0  0  0  0  0  0  0
    0.0000   -7.1149    0.0000 C   0  0  0  0  0  0  0  0  0  0  0  0
    1.0899   -8.0837    0.0000 C   0  0  0  0  0  0  0  0  0  0  0  0
    1.0899   -9.4159    0.0000 O   0  0  0  0  0  0  0  0  0  0  0  0
    4.7836   -8.4167    0.0000 C   0  0  0  0  0  0  0  0  0  0  0  0
    5.9341   -9.0525    0.0000 C   0  0  0  0  0  0  0  0  0  0  0  0
    3.6634   -9.0828    0.0000 O   0  0  0  0  0  0  0  0  0  0  0  0
    5.9341  -10.3847    0.0000 C   0  0  0  0  0  0  0  0  0  0  0  0
    3.6634  -10.3847    0.0000 C   0  0  0  0  0  0  0  0  0  0  0  0
    4.8139  -11.0508    0.0000 C   0  0  0  0  0  0  0  0  0  0  0  0
    7.0543   -8.3865    0.0000 N   0  0  0  0  0  0  0  0  0  0  0  0
    7.0846  -11.0205    0.0000 O   0  0  0  0  0  0  0  0  0  0  0  0
    4.8139  -12.3526    0.0000 O   0  0  0  0  0  0  0  0  0  0  0  0
    2.5432  -11.0508    0.0000 C   0  0  0  0  0  0  0  0  0  0  0  0
    2.5432  -12.3829    0.0000 O   0  0  0  0  0  0  0  0  0  0  0  0
    8.2048   -9.0525    0.0000 C   0  0  0  0  0  0  0  0  0  0  0  0
   14.0178   -3.7240    0.0000 O   0  0  0  0  0  0  0  0  0  0  0  0
   14.0178   -2.3918    0.0000 S   0  0  0  0  0  0  0  0  0  0  0  0
   12.6857   -2.3918    0.0000 O   0  0  0  0  0  0  0  0  0  0  0  0
   14.0178   -1.0899    0.0000 O   0  0  0  0  0  0  0  0  0  0  0  0
   15.3197   -2.3918    0.0000 O   0  0  0  0  0  0  0  0  0  0  0  0
   14.0481   -8.7498    0.0000 O   0  0  0  0  0  0  0  0  0  0  0  0
   14.0481   -7.4176    0.0000 S   0  0  0  0  0  0  0  0  0  0  0  0
   12.7160   -7.4176    0.0000 O   0  0  0  0  0  0  0  0  0  0  0  0
   14.0481   -6.1158    0.0000 O   0  0  0  0  0  0  0  0  0  0  0  0
   15.3802   -7.4176    0.0000 O   0  0  0  0  0  0  0  0  0  0  0  0
   14.2903  -13.0793    0.0000 O   0  0  0  0  0  0  0  0  0  0  0  0
   14.2903  -11.7471    0.0000 S   0  0  0  0  0  0  0  0  0  0  0  0
   12.9582  -11.7471    0.0000 O   0  0  0  0  0  0  0  0  0  0  0  0
   14.2903  -10.4452    0.0000 O   0  0  0  0  0  0  0  0  0  0  0  0
   15.6225  -11.7471    0.0000 O   0  0  0  0  0  0  0  0  0  0  0  0
  1  2  1  0  0  0  0
  1  3  1  0  0  0  0
  1 26  1  6  0  0  0
  2  4  1  0  0  0  0
  3  5  1  0  0  0  0
  3 25  1  6  0  0  0
  3 27  1  1  0  0  0
  4  5  1  0  0  0  0
  4 14  1  1  0  0  0
  5 24  1  6  0  0  0
  6  7  1  0  0  0  0
  6  8  1  0  0  0  0
  6 12  1  6  0  0  0
  7  9  1  0  0  0  0
  7 13  1  1  0  0  0
  8 10  1  0  0  0  0
  8 17  1  1  0  0  0
  9 11  1  0  0  0  0
  9 14  1  6  0  0  0
 10 11  1  0  0  0  0
 10 16  1  6  0  0  0
 11 15  1  1  0  0  0
 15 21  1  0  0  0  0
 17 18  1  0  0  0  0
 18 19  2  0  0  0  0
 18 20  1  0  0  0  0
 21 22  1  0  0  0  0
 21 23  2  0  0  0  0
 29 24  1  1  0  0  0
 27 28  1  0  0  0  0
 29 30  1  0  0  0  0
 29 31  1  0  0  0  0
 30 32  1  0  0  0  0
 30 35  1  1  0  0  0
 31 33  1  0  0  0  0
 32 34  1  0  0  0  0
 32 36  1  6  0  0  0
 33 34  1  0  0  0  0
 33 38  1  6  0  0  0
 34 37  1  1  0  0  0
 35 40  1  0  0  0  0
 38 39  1  0  0  0  0
 41 42  1  0  0  0  0
 41 43  1  0  0  0  0
 41 66  1  6  0  0  0
 42 44  1  0  0  0  0
 43 45  1  0  0  0  0
 43 65  1  6  0  0  0
 43 67  1  1  0  0  0
 44 45  1  0  0  0  0
 44 54  1  1  0  0  0
 45 64  1  6  0  0  0
 46 47  1  0  0  0  0
 46 48  1  0  0  0  0
 46 52  1  6  0  0  0
 47 49  1  0  0  0  0
 47 53  1  1  0  0  0
 48 50  1  0  0  0  0
 48 57  1  1  0  0  0
 49 51  1  0  0  0  0
 49 54  1  6  0  0  0
 50 51  1  0  0  0  0
 50 56  1  6  0  0  0
 51 55  1  1  0  0  0
 55 61  1  0  0  0  0
 57 58  1  0  0  0  0
 58 59  2  0  0  0  0
 58 60  1  0  0  0  0
 61 62  1  0  0  0  0
 61 63  2  0  0  0  0
 69 64  1  1  0  0  0
 67 68  1  0  0  0  0
 69 70  1  0  0  0  0
 69 71  1  0  0  0  0
 70 72  1  0  0  0  0
 70 75  1  1  0  0  0
 71 73  1  0  0  0  0
 72 74  1  0  0  0  0
 72 76  1  6  0  0  0
 73 74  1  0  0  0  0
 73 78  1  6  0  0  0
 74 77  1  1  0  0  0
 75 80  1  0  0  0  0
 78 79  1  0  0  0  0
 81 82  1  0  0  0  0
 82 83  1  0  0  0  0
 82 84  2  0  0  0  0
 82 85  2  0  0  0  0
 86 87  1  0  0  0  0
 87 88  1  0  0  0  0
 87 89  2  0  0  0  0
 87 90  2  0  0  0  0
 91 92  1  0  0  0  0
 92 93  1  0  0  0  0
 92 94  2  0  0  0  0
 92 95  2  0  0  0  0
M  END
> <ID>
11223

> <Formula>
C42H88N14O36S3

> <FW>
1461.4153 (583.5899+583.5899+98.0785+98.0785+98.0785)

> <DSSTox_CID>
25824

> <DSSTox_RID>
81155

> <DSSTox_GSID>
45824

> <DSSTox_FileID_Sort>
5836

> <TS_ChemName>
Dihydrostreptomycin sulfate

> <TS_ChemName_Synonyms>


> <TS_CASRN>
5490-27-7

> <CASRN_ChemName_Relationship>
primary

> <TS_Description>
single chemical compound

> <ChemNote>
stereochem; parent [128-46-1]

> <STRUCTURE_Shown>
tested chemical

> <STRUCTURE_Formula>
C42H88N14O36S3

> <STRUCTURE_MW>
1461.4153

> <STRUCTURE_ChemType>
defined organic

> <STRUCTURE_DefinedOrganicForm>
complex

> <STRUCTURE_IUPAC>
1,1'-[(1R,2R,3S,4R,5R,6S)-4-({5-deoxy-2-O-[2-deoxy-2-(methylamino)-alpha-L-glucopyranosyl]-3-C-(hydroxymethyl)-alpha-L-lyxofuranosyl}oxy)-2,5,6-trihydroxycyclohexane-1,3-diyl]diguanidine sulfate (2:3)

> <STRUCTURE_SMILES>
O=S(=O)(O)O.O=S(=O)(O)O.O=S(=O)(O)O.N=C(N)N[C@H]3[C@H](O)[C@@H](NC(=N)N)[C@H](O)[C@@H](O)[C@@H]3O[C@@H]2O[C@@H](C)[C@](O)(CO)[C@H]2O[C@@H]1O[C@@H](CO)[C@H](O)[C@@H](O)[C@@H]1NC.N=C(N)N[C@H]3[C@H](O)[C@@H](NC(=N)N)[C@H](O)[C@@H](O)[C@@H]3O[C@@H]2O[C@@H](C)

> <STRUCTURE_SMILES_Desalt>
N=C(N)N[C@H]3[C@H](O)[C@@H](NC(=N)N)[C@H](O)[C@@H](O)[C@@H]3O[C@@H]2O[C@@H](C)[C@](O)(CO)[C@H]2O[C@@H]1O[C@@H](CO)[C@H](O)[C@@H](O)[C@@H]1NC

> <Substance_modify_yyyymmdd>
20110909

$$$$
