54914-85-1
ChemmineR-0915142007XD

 18 19  0  0  0  0  0  0  0  0  1 V2000
    3.4498   -2.6635    0.0000 C   0  0  0  0  0  0  0  0  0  0  0  0
    3.4498   -3.9952    0.0000 C   0  0  0  0  0  0  0  0  0  0  0  0
    2.2956   -4.6674    0.0000 C   0  0  0  0  0  0  0  0  0  0  0  0
    1.1542   -3.9952    0.0000 C   0  0  0  0  0  0  0  0  0  0  0  0
    1.1542   -2.6635    0.0000 C   0  0  0  0  0  0  0  0  0  0  0  0
    2.2956   -2.0039    0.0000 C   0  0  0  0  0  0  0  0  0  0  0  0
    0.0000   -2.0039    0.0000 C   0  0  0  0  0  0  0  0  0  0  0  0
    9.2333   -2.0039    0.0000 C   0  0  0  0  0  0  0  0  0  0  0  0
    9.2333   -0.6722    0.0000 C   0  0  0  0  0  0  0  0  0  0  0  0
   10.3875    0.0000    0.0000 C   0  0  0  0  0  0  0  0  0  0  0  0
   11.5416   -0.6722    0.0000 C   0  0  0  0  0  0  0  0  0  0  0  0
   11.5416   -2.0039    0.0000 C   0  0  0  0  0  0  0  0  0  0  0  0
   10.3875   -2.6635    0.0000 C   0  0  0  0  0  0  0  0  0  0  0  0
   12.6831   -2.6635    0.0000 C   0  0  0  0  0  0  0  0  0  0  0  0
    6.9250   -2.0039    0.0000 C   0  0  0  0  0  0  0  0  0  0  0  0
    5.7581   -2.6635    0.0000 C   0  0  0  0  0  0  0  0  0  0  0  0
    8.0792   -2.6635    0.0000 O   0  0  0  0  0  0  0  0  0  0  0  0
    4.6040   -2.0039    0.0000 O   0  0  0  0  0  0  0  0  0  0  0  0
  1  2  2  0  0  0  0
  1  6  1  0  0  0  0
  1 18  1  0  0  0  0
  2  3  1  0  0  0  0
  3  4  2  0  0  0  0
  4  5  1  0  0  0  0
  5  6  2  0  0  0  0
  5  7  1  0  0  0  0
  8  9  2  0  0  0  0
  8 13  1  0  0  0  0
  8 17  1  0  0  0  0
  9 10  1  0  0  0  0
 10 11  2  0  0  0  0
 11 12  1  0  0  0  0
 12 13  2  0  0  0  0
 12 14  1  0  0  0  0
 15 16  1  0  0  0  0
 15 17  1  0  0  0  0
 16 18  1  0  0  0  0
M  END
> <ID>
10342

> <Formula>
C16H18O2

> <FW>
242.3129

> <DSSTox_CID>
24690

> <DSSTox_RID>
80399

> <DSSTox_GSID>
44690

> <DSSTox_FileID_Sort>
5081

> <TS_ChemName>
1,1'-[Ethane-1,2-diylbis(oxy)]bis(3-methylbenzene)

> <TS_ChemName_Synonyms>
Benzene, 1,1'-[1,2-ethanediylbis(oxy)]bis[3-methyl-

> <TS_CASRN>
54914-85-1

> <CASRN_ChemName_Relationship>
primary

> <TS_Description>
single chemical compound

> <ChemNote>


> <STRUCTURE_Shown>
tested chemical

> <STRUCTURE_Formula>
C16H18O2

> <STRUCTURE_MW>
242.3129

> <STRUCTURE_ChemType>
defined organic

> <STRUCTURE_DefinedOrganicForm>
parent

> <STRUCTURE_IUPAC>
1,1'-[ethane-1,2-diylbis(oxy)]bis(3-methylbenzene)

> <STRUCTURE_SMILES>
Cc1cc(ccc1)OCCOc2cc(C)ccc2

> <STRUCTURE_SMILES_Desalt>
Cc1cc(ccc1)OCCOc2cc(C)ccc2

> <Substance_modify_yyyymmdd>
20091116

$$$$
