5495-84-1
ChemmineR-0915142007XD

 18 20  0  0  0  0  0  0  0  0  1 V2000
    3.4376    0.0000    0.0000 S   0  0  0  0  0  0  0  0  0  0  0  0
    4.5957   -0.6985    0.0000 C   0  0  0  0  0  0  0  0  0  0  0  0
    2.2703   -0.6985    0.0000 C   0  0  0  0  0  0  0  0  0  0  0  0
    4.5957   -2.0129    0.0000 C   0  0  0  0  0  0  0  0  0  0  0  0
    2.2703   -2.0129    0.0000 C   0  0  0  0  0  0  0  0  0  0  0  0
    3.4376   -2.6747    0.0000 C   0  0  0  0  0  0  0  0  0  0  0  0
    1.1122    0.0000    0.0000 C   0  0  0  0  0  0  0  0  0  0  0  0
    5.7814    0.0000    0.0000 C   0  0  0  0  0  0  0  0  0  0  0  0
    5.7814   -2.6747    0.0000 C   0  0  0  0  0  0  0  0  0  0  0  0
    1.1122   -2.6747    0.0000 C   0  0  0  0  0  0  0  0  0  0  0  0
    0.0000   -0.6985    0.0000 C   0  0  0  0  0  0  0  0  0  0  0  0
    6.8660   -2.0129    0.0000 C   0  0  0  0  0  0  0  0  0  0  0  0
    6.8660   -0.6985    0.0000 C   0  0  0  0  0  0  0  0  0  0  0  0
    0.0000   -2.0129    0.0000 C   0  0  0  0  0  0  0  0  0  0  0  0
    3.4376   -4.0258    0.0000 O   0  0  0  0  0  0  0  0  0  0  0  0
    8.0517   -2.6655    0.0000 C   0  0  0  0  0  0  0  0  0  0  0  0
    9.1914   -1.9486    0.0000 C   0  0  0  0  0  0  0  0  0  0  0  0
    8.0517   -3.9799    0.0000 C   0  0  0  0  0  0  0  0  0  0  0  0
  1  2  1  0  0  0  0
  1  3  1  0  0  0  0
  2  4  2  0  0  0  0
  2  8  1  0  0  0  0
  3  5  2  0  0  0  0
  3  7  1  0  0  0  0
  4  6  1  0  0  0  0
  4  9  1  0  0  0  0
  5  6  1  0  0  0  0
  5 10  1  0  0  0  0
  6 15  2  0  0  0  0
  7 11  2  0  0  0  0
  8 13  2  0  0  0  0
  9 12  2  0  0  0  0
 10 14  2  0  0  0  0
 11 14  1  0  0  0  0
 12 13  1  0  0  0  0
 12 16  1  0  0  0  0
 16 17  1  0  0  0  0
 16 18  1  0  0  0  0
M  END
> <ID>
10343

> <Formula>
C16H14OS

> <FW>
254.3468

> <DSSTox_CID>
24691

> <DSSTox_RID>
80400

> <DSSTox_GSID>
44691

> <DSSTox_FileID_Sort>
5082

> <TS_ChemName>
2-(Propan-2-yl)-9H-thioxanthen-9-one

> <TS_ChemName_Synonyms>
2-(Propan-2-yl)-9H-thioxanthen-9-one (9H-Thioxanthen-9-one, 2-(1-methylethyl)-)

> <TS_CASRN>
5495-84-1

> <CASRN_ChemName_Relationship>
primary

> <TS_Description>
single chemical compound

> <ChemNote>


> <STRUCTURE_Shown>
tested chemical

> <STRUCTURE_Formula>
C16H14OS

> <STRUCTURE_MW>
254.3468

> <STRUCTURE_ChemType>
defined organic

> <STRUCTURE_DefinedOrganicForm>
parent

> <STRUCTURE_IUPAC>
2-(propan-2-yl)-9H-thioxanthen-9-one

> <STRUCTURE_SMILES>
CC(C)c1cc2C(=O)c3ccccc3Sc2cc1

> <STRUCTURE_SMILES_Desalt>
CC(C)c1cc2C(=O)c3ccccc3Sc2cc1

> <Substance_modify_yyyymmdd>
20091116

$$$$
