5496-10-6
ChemmineR-0915142007XD

  9  9  0  0  0  0  0  0  0  0  1 V2000
    1.9952   -1.4579    0.0000 C   0  0  0  0  0  0  0  0  0  0  0  0
    0.9039   -2.1869    0.0000 C   0  0  0  0  0  0  0  0  0  0  0  0
    0.8706   -3.4990    0.0000 C   0  0  0  0  0  0  0  0  0  0  0  0
    2.0411   -4.1654    0.0000 C   0  0  0  0  0  0  0  0  0  0  0  0
    3.1657   -3.4531    0.0000 C   0  0  0  0  0  0  0  0  0  0  0  0
    3.1657   -2.1244    0.0000 C   0  0  0  0  0  0  0  0  0  0  0  0
    1.2205   -0.3499    0.0000 C   0  0  0  0  0  0  0  0  0  0  0  0
    0.0000    0.0000    0.0000 N   0  0  0  0  0  0  0  0  0  0  0  0
    2.8991   -0.4290    0.0000 N   0  0  0  0  0  0  0  0  0  0  0  0
  1  2  1  0  0  0  0
  1  6  1  0  0  0  0
  1  7  1  0  0  0  0
  1  9  1  0  0  0  0
  2  3  1  0  0  0  0
  3  4  1  0  0  0  0
  4  5  1  0  0  0  0
  5  6  1  0  0  0  0
  7  8  3  0  0  0  0
M  END
> <ID>
10143

> <Formula>
C7H12N2

> <FW>
124.1836

> <DSSTox_CID>
24488

> <DSSTox_RID>
80264

> <DSSTox_GSID>
44488

> <DSSTox_FileID_Sort>
4946

> <TS_ChemName>
1-Aminocyclohexanecarbonitrile

> <TS_ChemName_Synonyms>
Cyclohexanecarbonitrile, 1-amino-

> <TS_CASRN>
5496-10-6

> <CASRN_ChemName_Relationship>
primary

> <TS_Description>
single chemical compound

> <ChemNote>


> <STRUCTURE_Shown>
tested chemical

> <STRUCTURE_Formula>
C7H12N2

> <STRUCTURE_MW>
124.1836

> <STRUCTURE_ChemType>
defined organic

> <STRUCTURE_DefinedOrganicForm>
parent

> <STRUCTURE_IUPAC>
1-aminocyclohexanecarbonitrile

> <STRUCTURE_SMILES>
N#CC1(N)CCCCC1

> <STRUCTURE_SMILES_Desalt>
N#CC1(N)CCCCC1

> <Substance_modify_yyyymmdd>
20091116

$$$$
