54965-24-1
ChemmineR-0915142007XD

 41 42  0  0  0  0  0  0  0  0  1 V2000
    3.9906   -4.5693    0.0000 C   0  0  0  0  0  0  0  0  0  0  0  0
    2.6538   -4.5693    0.0000 C   0  0  0  0  0  0  0  0  0  0  0  0
    4.6491   -3.4519    0.0000 C   0  0  0  0  0  0  0  0  0  0  0  0
    4.6491   -5.7864    0.0000 C   0  0  0  0  0  0  0  0  0  0  0  0
    1.9953   -3.4519    0.0000 C   0  0  0  0  0  0  0  0  0  0  0  0
    3.9906   -2.3146    0.0000 C   0  0  0  0  0  0  0  0  0  0  0  0
    5.9859   -3.4519    0.0000 C   0  0  0  0  0  0  0  0  0  0  0  0
    9.9766   -1.1972    0.0000 N   0  0  0  0  0  0  0  0  0  0  0  0
    5.9859   -1.1972    0.0000 C   0  0  0  0  0  0  0  0  0  0  0  0
    4.6491   -1.1972    0.0000 C   0  0  0  0  0  0  0  0  0  0  0  0
    6.6643   -2.3146    0.0000 C   0  0  0  0  0  0  0  0  0  0  0  0
    1.9953   -5.7864    0.0000 C   0  0  0  0  0  0  0  0  0  0  0  0
    6.6643    0.0000    0.0000 O   0  0  0  0  0  0  0  0  0  0  0  0
    7.9812    0.0000    0.0000 C   0  0  0  0  0  0  0  0  0  0  0  0
    8.6397   -1.1972    0.0000 C   0  0  0  0  0  0  0  0  0  0  0  0
    0.6585   -3.4519    0.0000 C   0  0  0  0  0  0  0  0  0  0  0  0
    2.6538   -2.3146    0.0000 C   0  0  0  0  0  0  0  0  0  0  0  0
    5.9859   -5.7864    0.0000 C   0  0  0  0  0  0  0  0  0  0  0  0
    3.9906   -6.9237    0.0000 C   0  0  0  0  0  0  0  0  0  0  0  0
   10.6350   -2.3146    0.0000 C   0  0  0  0  0  0  0  0  0  0  0  0
   10.6350    0.0000    0.0000 C   0  0  0  0  0  0  0  0  0  0  0  0
    2.6538   -6.9237    0.0000 C   0  0  0  0  0  0  0  0  0  0  0  0
    4.6491   -8.1010    0.0000 C   0  0  0  0  0  0  0  0  0  0  0  0
    0.0000   -2.3146    0.0000 C   0  0  0  0  0  0  0  0  0  0  0  0
    1.9953   -1.1972    0.0000 C   0  0  0  0  0  0  0  0  0  0  0  0
    6.6643   -6.9237    0.0000 C   0  0  0  0  0  0  0  0  0  0  0  0
    0.6585   -1.1972    0.0000 C   0  0  0  0  0  0  0  0  0  0  0  0
    5.9859   -8.1010    0.0000 C   0  0  0  0  0  0  0  0  0  0  0  0
   16.6409   -4.1702    0.0000 C   0  0  0  0  0  0  0  0  0  0  0  0
   17.9578   -4.1702    0.0000 C   0  0  0  0  0  0  0  0  0  0  0  0
   15.3040   -4.1702    0.0000 C   0  0  0  0  0  0  0  0  0  0  0  0
   16.6409   -5.5071    0.0000 C   0  0  0  0  0  0  0  0  0  0  0  0
   15.5036   -6.1655    0.0000 O   0  0  0  0  0  0  0  0  0  0  0  0
   14.6456   -3.0329    0.0000 C   0  0  0  0  0  0  0  0  0  0  0  0
   13.2888   -3.0329    0.0000 O   0  0  0  0  0  0  0  0  0  0  0  0
   15.3040   -1.9155    0.0000 O   0  0  0  0  0  0  0  0  0  0  0  0
   18.6163   -3.0329    0.0000 C   0  0  0  0  0  0  0  0  0  0  0  0
   17.9578   -1.8556    0.0000 O   0  0  0  0  0  0  0  0  0  0  0  0
   19.9531   -3.0329    0.0000 O   0  0  0  0  0  0  0  0  0  0  0  0
   16.6409   -2.8533    0.0000 O   0  0  0  0  0  0  0  0  0  0  0  0
   17.8381   -6.1655    0.0000 O   0  0  0  0  0  0  0  0  0  0  0  0
  1  2  2  0  0  0  0
  1  3  1  0  0  0  0
  1  4  1  0  0  0  0
  2  5  1  0  0  0  0
  2 12  1  0  0  0  0
  3  6  1  0  0  0  0
  3  7  2  0  0  0  0
  4 18  2  0  0  0  0
  4 19  1  0  0  0  0
  5 16  1  0  0  0  0
  5 17  2  0  0  0  0
  6 10  2  0  0  0  0
  7 11  1  0  0  0  0
  8 15  1  0  0  0  0
  8 20  1  0  0  0  0
  8 21  1  0  0  0  0
  9 11  2  0  0  0  0
  9 13  1  0  0  0  0
  9 10  1  0  0  0  0
 12 22  1  0  0  0  0
 13 14  1  0  0  0  0
 14 15  1  0  0  0  0
 16 24  2  0  0  0  0
 17 25  1  0  0  0  0
 18 26  1  0  0  0  0
 19 23  2  0  0  0  0
 23 28  1  0  0  0  0
 24 27  1  0  0  0  0
 25 27  2  0  0  0  0
 26 28  2  0  0  0  0
 29 32  1  0  0  0  0
 29 31  1  0  0  0  0
 29 40  1  0  0  0  0
 29 30  1  0  0  0  0
 30 37  1  0  0  0  0
 31 34  1  0  0  0  0
 32 33  1  0  0  0  0
 32 41  2  0  0  0  0
 34 35  1  0  0  0  0
 34 36  2  0  0  0  0
 37 38  2  0  0  0  0
 37 39  1  0  0  0  0
M  END
> <ID>
1251

> <Formula>
C32H37NO8

> <FW>
563.6381 (371.5146+192.1235)

> <DSSTox_CID>
1301

> <DSSTox_RID>
76068

> <DSSTox_GSID>
21301

> <DSSTox_FileID_Sort>
752

> <TS_ChemName>
Tamoxifen citrate

> <TS_ChemName_Synonyms>


> <TS_CASRN>
54965-24-1

> <CASRN_ChemName_Relationship>
primary

> <TS_Description>
single chemical compound

> <ChemNote>
stereochem; parent [10540-29-1]

> <STRUCTURE_Shown>
tested chemical

> <STRUCTURE_Formula>
C32H37NO8

> <STRUCTURE_MW>
563.6381

> <STRUCTURE_ChemType>
defined organic

> <STRUCTURE_DefinedOrganicForm>
complex

> <STRUCTURE_IUPAC>
2-{4-[(1Z)-1,2-diphenylbut-1-en-1-yl]phenoxy}-N,N-dimethylethanamine 2-hydroxypropane-1,2,3-tricarboxylate (1:1)

> <STRUCTURE_SMILES>
O=C(O)C(O)(CC(=O)O)CC(=O)O.CN(C)CCOc1ccc(cc1)/C(c2ccccc2)=C(/CC)c3ccccc3

> <STRUCTURE_SMILES_Desalt>
CN(C)CCOc1ccc(cc1)/C(c2ccccc2)=C(/CC)c3ccccc3

> <Substance_modify_yyyymmdd>
20080429

$$$$
