54982-83-1
ChemmineR-0915142007XD

 18 18  0  0  0  0  0  0  0  0  1 V2000
    4.5848   -1.9833    0.0000 O   0  0  0  0  0  0  0  0  0  0  0  0
    3.4446   -1.3409    0.0000 C   0  0  0  0  0  0  0  0  0  0  0  0
    2.3285   -1.9833    0.0000 C   0  0  0  0  0  0  0  0  0  0  0  0
    2.3285   -3.3563    0.0000 O   0  0  0  0  0  0  0  0  0  0  0  0
    1.1482   -3.9184    0.0000 C   0  0  0  0  0  0  0  0  0  0  0  0
    1.1482   -5.2593    0.0000 C   0  0  0  0  0  0  0  0  0  0  0  0
    2.3285   -5.9418    0.0000 C   0  0  0  0  0  0  0  0  0  0  0  0
    3.4446   -5.2593    0.0000 C   0  0  0  0  0  0  0  0  0  0  0  0
    4.5848   -5.9418    0.0000 C   0  0  0  0  0  0  0  0  0  0  0  0
    5.7812   -5.2593    0.0000 C   0  0  0  0  0  0  0  0  0  0  0  0
    6.8652   -5.9418    0.0000 C   0  0  0  0  0  0  0  0  0  0  0  0
    8.0295   -5.2593    0.0000 C   0  0  0  0  0  0  0  0  0  0  0  0
    8.0295   -3.9184    0.0000 C   0  0  0  0  0  0  0  0  0  0  0  0
    6.8652   -3.3563    0.0000 C   0  0  0  0  0  0  0  0  0  0  0  0
    6.8652   -1.9833    0.0000 C   0  0  0  0  0  0  0  0  0  0  0  0
    5.7812   -1.3409    0.0000 C   0  0  0  0  0  0  0  0  0  0  0  0
    0.0000   -3.2118    0.0000 O   0  0  0  0  0  0  0  0  0  0  0  0
    5.7812    0.0000    0.0000 O   0  0  0  0  0  0  0  0  0  0  0  0
  1  2  1  0  0  0  0
  1 16  1  0  0  0  0
  2  3  1  0  0  0  0
  3  4  1  0  0  0  0
  4  5  1  0  0  0  0
  5  6  1  0  0  0  0
  5 17  2  0  0  0  0
  6  7  1  0  0  0  0
  7  8  1  0  0  0  0
  8  9  1  0  0  0  0
  9 10  1  0  0  0  0
 10 11  1  0  0  0  0
 11 12  1  0  0  0  0
 12 13  1  0  0  0  0
 13 14  1  0  0  0  0
 14 15  1  0  0  0  0
 15 16  1  0  0  0  0
 16 18  2  0  0  0  0
M  END
> <ID>
10222

> <Formula>
C14H24O4

> <FW>
256.338

> <DSSTox_CID>
24568

> <DSSTox_RID>
80318

> <DSSTox_GSID>
44568

> <DSSTox_FileID_Sort>
5000

> <TS_ChemName>
1,4-Dioxacyclohexadecane-5,16-dione

> <TS_ChemName_Synonyms>


> <TS_CASRN>
54982-83-1

> <CASRN_ChemName_Relationship>
primary

> <TS_Description>
single chemical compound

> <ChemNote>


> <STRUCTURE_Shown>
tested chemical

> <STRUCTURE_Formula>
C14H24O4

> <STRUCTURE_MW>
256.338

> <STRUCTURE_ChemType>
defined organic

> <STRUCTURE_DefinedOrganicForm>
parent

> <STRUCTURE_IUPAC>
1,4-dioxacyclohexadecane-5,16-dione

> <STRUCTURE_SMILES>
O=C1CCCCCCCCCCC(=O)OCCO1

> <STRUCTURE_SMILES_Desalt>
O=C1CCCCCCCCCCC(=O)OCCO1

> <Substance_modify_yyyymmdd>
20091116

$$$$
