55-06-1
ChemmineR-0915142007XD

 24 24  0  0  1  0  0  0  0  0  2 V2000
    5.7546   -3.2956    0.0000 C    0  0  0  0  0  0  0  0  0  0  0  0
    6.9208   -3.9674    0.0000 C    0  0  0  0  0  0  0  0  0  0  0  0
    5.7546   -1.9647    0.0000 C    0  0  0  0  0  0  0  0  0  0  0  0
   11.5092   -1.3056    0.0000 C    0  0  0  0  0  0  0  0  0  0  0  0
    4.6012   -3.9674    0.0000 O    0  0  0  0  0  0  0  0  0  0  0  0
    8.0742   -1.9647    0.0000 C    0  0  0  0  0  0  0  0  0  0  0  0
    1.1661   -3.2956    0.0000 C    0  0  0  0  0  0  0  0  0  0  0  0
    2.3069   -3.9674    0.0000 C    0  0  0  0  0  0  0  0  0  0  0  0
   10.3685   -1.9647    0.0000 C    0  0  0  0  0  0  0  0  0  0  0  0
    8.0742   -3.2956    0.0000 C    0  0  0  0  0  0  0  0  0  0  0  0
    6.9208   -1.3056    0.0000 C    0  0  0  0  0  0  0  0  0  0  0  0
    3.4604   -3.2956    0.0000 C    0  0  0  0  0  0  0  0  0  0  0  0
    9.2150   -1.3056    0.0000 C    0  0  0  0  0  0  0  0  0  0  0  0
    1.1661   -1.9647    0.0000 C    0  0  0  0  0  0  0  0  0  0  0  0
   11.5092    0.0000    0.0000 O    0  0  0  0  0  0  0  0  0  0  0  0
    2.3069   -1.3056    0.0000 C    0  0  0  0  0  0  0  0  0  0  0  0
    4.6012   -1.3056    0.0000 I    0  0  0  0  0  0  0  0  0  0  0  0
    6.9208   -5.2983    0.0000 I    0  0  0  0  0  0  0  0  0  0  0  0
    0.0000   -3.9674    0.0000 I    0  0  0  0  0  0  0  0  0  0  0  0
   10.3685   -3.2956    0.0000 N    0  0  0  0  0  0  0  0  0  0  0  0
   12.6754   -1.9647    0.0000 O    0  5  0  0  0  0  0  0  0  0  0  0
    3.4604   -1.9647    0.0000 C    0  0  0  0  0  0  0  0  0  0  0  0
    0.0000   -1.3056    0.0000 O    0  0  0  0  0  0  0  0  0  0  0  0
   12.4852   -3.7392    0.0000 Na   0  3  0  0  0  0  0  0  0  0  0  0
  1  2  1  0  0  0  0
  1  3  2  0  0  0  0
  1  5  1  0  0  0  0
  2 10  2  0  0  0  0
  2 18  1  0  0  0  0
  3 11  1  0  0  0  0
  3 17  1  0  0  0  0
  4  9  1  0  0  0  0
  4 15  2  0  0  0  0
  4 21  1  0  0  0  0
  5 12  1  0  0  0  0
  6 11  2  0  0  0  0
  6 13  1  0  0  0  0
  6 10  1  0  0  0  0
  7  8  1  0  0  0  0
  7 19  1  0  0  0  0
  7 14  2  0  0  0  0
  8 12  2  0  0  0  0
  9 13  1  0  0  0  0
  9 20  1  1  0  0  0
 12 22  1  0  0  0  0
 14 16  1  0  0  0  0
 14 23  1  0  0  0  0
 16 22  2  0  0  0  0
M  END
> <ID>
12632

> <Formula>
C15H11I3NNaO4

> <FW>
672.9553 (649.9661+22.9892)

> <DSSTox_CID>
27505

> <DSSTox_RID>
82385

> <DSSTox_GSID>
47505

> <DSSTox_FileID_Sort>
7066

> <TS_ChemName>
3,3',5-Triiodo-l-thyronine sodium salt

> <TS_ChemName_Synonyms>


> <TS_CASRN>
55-06-1

> <CASRN_ChemName_Relationship>
primary

> <TS_Description>
single chemical compound

> <ChemNote>
stereochem; parent [6893-02-3]

> <STRUCTURE_Shown>
tested chemical

> <STRUCTURE_Formula>
C15H11I3NNaO4

> <STRUCTURE_MW>
672.9553

> <STRUCTURE_ChemType>
defined organic

> <STRUCTURE_DefinedOrganicForm>
salt

> <STRUCTURE_IUPAC>
sodium (2S)-2-amino-3-[4-(4-hydroxy-3-iodophenoxy)-3,5-diiodophenyl]propanoate

> <STRUCTURE_SMILES>
[Na+].[O-]C(=O)[C@@H](N)Cc2cc(I)c(Oc1cc(I)c(O)cc1)c(I)c2

> <STRUCTURE_SMILES_Desalt>
O=C(O)[C@@H](N)Cc2cc(I)c(Oc1cc(I)c(O)cc1)c(I)c2

> <Substance_modify_yyyymmdd>
20100704

$$$$
