55-48-1
ChemmineR-0915142007XD

 49 52  0  0  1  0  0  0  0  0  1 V2000
    1.3581   -1.6929    0.0000 N   0  0  0  0  0  0  0  0  0  0  0  0
    4.8742   -2.3627    0.0000 O   0  0  0  0  0  0  0  0  0  0  0  0
    4.5579   -0.7441    0.0000 H   0  0  0  0  0  0  0  0  0  0  0  0
    6.0090   -0.3535    0.0000 O   0  0  0  0  0  0  0  0  0  0  0  0
    6.0090   -1.6929    0.0000 C   0  0  0  0  0  0  0  0  0  0  0  0
    1.8046   -0.1674    0.0000 C   0  0  0  0  0  0  0  0  0  0  0  0
    3.1254   -0.4837    0.0000 C   0  0  0  0  0  0  0  0  0  0  0  0
    3.7021   -1.6929    0.0000 C   0  0  0  0  0  0  0  0  0  0  0  0
    3.1254   -2.9022    0.0000 C   0  0  0  0  0  0  0  0  0  0  0  0
    0.7628   -1.0046    0.0000 C   0  0  0  0  0  0  0  0  0  0  0  0
    1.8046   -3.1998    0.0000 C   0  0  0  0  0  0  0  0  0  0  0  0
    0.7628   -2.3627    0.0000 C   0  0  0  0  0  0  0  0  0  0  0  0
    6.0090   -4.3719    0.0000 C   0  0  0  0  0  0  0  0  0  0  0  0
    7.1624   -3.6835    0.0000 C   0  0  0  0  0  0  0  0  0  0  0  0
    8.3531   -4.3719    0.0000 C   0  0  0  0  0  0  0  0  0  0  0  0
    8.3531   -5.6927    0.0000 C   0  0  0  0  0  0  0  0  0  0  0  0
    7.1624   -6.3811    0.0000 C   0  0  0  0  0  0  0  0  0  0  0  0
    6.0090   -5.6927    0.0000 C   0  0  0  0  0  0  0  0  0  0  0  0
    0.0000   -1.6371    0.0000 C   0  0  0  0  0  0  0  0  0  0  0  0
    7.1624   -2.3627    0.0000 C   0  0  0  0  0  0  0  0  0  0  0  0
    8.3531   -1.6929    0.0000 C   0  0  0  0  0  0  0  0  0  0  0  0
    8.3531   -0.2232    0.0000 O   0  0  0  0  0  0  0  0  0  0  0  0
   11.4971   -5.3579    0.0000 S   0  0  0  0  0  0  0  0  0  0  0  0
   11.4971   -4.1300    0.0000 O   0  0  0  0  0  0  0  0  0  0  0  0
   10.2506   -5.3579    0.0000 O   0  0  0  0  0  0  0  0  0  0  0  0
   11.4971   -6.6043    0.0000 O   0  0  0  0  0  0  0  0  0  0  0  0
   12.7435   -5.3579    0.0000 O   0  0  0  0  0  0  0  0  0  0  0  0
   11.8505   -1.4511    0.0000 N   0  0  0  0  0  0  0  0  0  0  0  0
   15.2550   -2.1208    0.0000 O   0  0  0  0  0  0  0  0  0  0  0  0
   14.9388   -0.5395    0.0000 H   0  0  0  0  0  0  0  0  0  0  0  0
   16.3712   -0.1674    0.0000 O   0  0  0  0  0  0  0  0  0  0  0  0
   16.3712   -1.4325    0.0000 C   0  0  0  0  0  0  0  0  0  0  0  0
   12.3156    0.0000    0.0000 C   0  0  0  0  0  0  0  0  0  0  0  0
   13.5621   -0.3163    0.0000 C   0  0  0  0  0  0  0  0  0  0  0  0
   14.1388   -1.4325    0.0000 C   0  0  0  0  0  0  0  0  0  0  0  0
   13.5621   -2.6231    0.0000 C   0  0  0  0  0  0  0  0  0  0  0  0
   11.3110   -0.8186    0.0000 C   0  0  0  0  0  0  0  0  0  0  0  0
   12.3156   -2.9022    0.0000 C   0  0  0  0  0  0  0  0  0  0  0  0
   11.3110   -2.1022    0.0000 C   0  0  0  0  0  0  0  0  0  0  0  0
   16.3712   -4.0370    0.0000 C   0  0  0  0  0  0  0  0  0  0  0  0
   17.5061   -3.4231    0.0000 C   0  0  0  0  0  0  0  0  0  0  0  0
   18.6037   -4.0370    0.0000 C   0  0  0  0  0  0  0  0  0  0  0  0
   18.6037   -5.3393    0.0000 C   0  0  0  0  0  0  0  0  0  0  0  0
   17.4503   -5.9718    0.0000 C   0  0  0  0  0  0  0  0  0  0  0  0
   16.3526   -5.3393    0.0000 C   0  0  0  0  0  0  0  0  0  0  0  0
   10.5483   -1.4139    0.0000 C   0  0  0  0  0  0  0  0  0  0  0  0
   17.5061   -2.1208    0.0000 C   0  0  0  0  0  0  0  0  0  0  0  0
   18.6037   -1.4511    0.0000 C   0  0  0  0  0  0  0  0  0  0  0  0
   18.6037   -0.1488    0.0000 O   0  0  0  0  0  0  0  0  0  0  0  0
 11  1  1  1  0  0  0
  6  1  1  1  0  0  0
  1 19  1  0  0  0  0
  2  5  1  0  0  0  0
  8  2  1  6  0  0  0
  3  8  1  0  0  0  0
  4  5  2  0  0  0  0
  5 20  1  0  0  0  0
  6  7  1  0  0  0  0
  6 10  1  0  0  0  0
  7  8  1  0  0  0  0
  8  9  1  0  0  0  0
  9 11  1  0  0  0  0
 10 12  1  0  0  0  0
 11 12  1  0  0  0  0
 13 14  2  0  0  0  0
 13 18  1  0  0  0  0
 14 15  1  0  0  0  0
 14 20  1  0  0  0  0
 15 16  2  0  0  0  0
 16 17  1  0  0  0  0
 17 18  2  0  0  0  0
 20 21  1  0  0  0  0
 21 22  1  0  0  0  0
 23 24  2  0  0  0  0
 23 25  1  0  0  0  0
 23 26  2  0  0  0  0
 23 27  1  0  0  0  0
 38 28  1  1  0  0  0
 33 28  1  1  0  0  0
 28 46  1  0  0  0  0
 29 32  1  0  0  0  0
 35 29  1  6  0  0  0
 30 35  1  0  0  0  0
 31 32  2  0  0  0  0
 32 47  1  0  0  0  0
 33 34  1  0  0  0  0
 33 37  1  0  0  0  0
 34 35  1  0  0  0  0
 35 36  1  0  0  0  0
 36 38  1  0  0  0  0
 37 39  1  0  0  0  0
 38 39  1  0  0  0  0
 40 41  2  0  0  0  0
 40 45  1  0  0  0  0
 41 42  1  0  0  0  0
 41 47  1  0  0  0  0
 42 43  2  0  0  0  0
 43 44  1  0  0  0  0
 44 45  2  0  0  0  0
 47 48  1  0  0  0  0
 48 49  1  0  0  0  0
M  END
> <ID>
14283

> <Formula>
C34H48N2O10S

> <FW>
676.8173 (289.3694+98.0785+289.3694)

> <DSSTox_CID>
29379

> <DSSTox_RID>
83494

> <DSSTox_GSID>
49419

> <DSSTox_FileID_Sort>
8169

> <TS_ChemName>
Atropine sulfate anhydrous (2:1) salt

> <TS_ChemName_Synonyms>


> <TS_CASRN>
55-48-1

> <CASRN_ChemName_Relationship>
primary

> <TS_Description>
single chemical compound

> <ChemNote>


> <STRUCTURE_Shown>
tested chemical

> <STRUCTURE_Formula>
C34H48N2O10S

> <STRUCTURE_MW>
676.8173

> <STRUCTURE_ChemType>
defined organic

> <STRUCTURE_DefinedOrganicForm>
salt

> <STRUCTURE_IUPAC>
(3-endo)-8-methyl-8-azabicyclo[3.2.1]oct-3-yl 3-hydroxy-2-phenylpropanoate sulfate (2:1)

> <STRUCTURE_SMILES>
CN3[C@@H]1CC[C@H]3C[C@H](C1)OC(=O)C(CO)c2ccccc2.O=S(=O)(O)O.OCC(c1ccccc1)C(=O)O[C@H]2C[C@H]3CC[C@@H](C2)N3C

> <STRUCTURE_SMILES_Desalt>
CN3[C@@H]1CC[C@H]3C[C@H](C1)OC(=O)C(CO)c2ccccc2

> <Substance_modify_yyyymmdd>
20111204

$$$$
