55-55-0
ChemmineR-0915142007XD

 23 22  0  0  0  0  0  0  0  0  1 V2000
    2.6629   -0.1133    0.0000 C   0  0  0  0  0  0  0  0  0  0  0  0
    3.9849   -0.1133    0.0000 C   0  0  0  0  0  0  0  0  0  0  0  0
    4.6648   -1.2654    0.0000 C   0  0  0  0  0  0  0  0  0  0  0  0
    3.9849   -2.4174    0.0000 C   0  0  0  0  0  0  0  0  0  0  0  0
    2.6629   -2.4174    0.0000 C   0  0  0  0  0  0  0  0  0  0  0  0
    2.0019   -1.2654    0.0000 C   0  0  0  0  0  0  0  0  0  0  0  0
    0.6799   -1.2654    0.0000 N   0  0  0  0  0  0  0  0  0  0  0  0
    0.0000   -2.4174    0.0000 C   0  0  0  0  0  0  0  0  0  0  0  0
    5.9869   -1.2654    0.0000 O   0  0  0  0  0  0  0  0  0  0  0  0
   15.5621   -0.1700    0.0000 C   0  0  0  0  0  0  0  0  0  0  0  0
   16.9030   -0.1700    0.0000 C   0  0  0  0  0  0  0  0  0  0  0  0
   17.5640   -1.3220    0.0000 C   0  0  0  0  0  0  0  0  0  0  0  0
   16.9030   -2.4741    0.0000 C   0  0  0  0  0  0  0  0  0  0  0  0
   15.5621   -2.4741    0.0000 C   0  0  0  0  0  0  0  0  0  0  0  0
   14.9011   -1.3220    0.0000 C   0  0  0  0  0  0  0  0  0  0  0  0
   13.5602   -1.3220    0.0000 N   0  0  0  0  0  0  0  0  0  0  0  0
   12.9180   -2.4741    0.0000 C   0  0  0  0  0  0  0  0  0  0  0  0
   18.8860   -1.3220    0.0000 O   0  0  0  0  0  0  0  0  0  0  0  0
    9.8585   -1.3409    0.0000 S   0  0  0  0  0  0  0  0  0  0  0  0
    8.5176   -1.3409    0.0000 O   0  0  0  0  0  0  0  0  0  0  0  0
    9.8585   -2.6629    0.0000 O   0  0  0  0  0  0  0  0  0  0  0  0
    9.8585    0.0000    0.0000 O   0  0  0  0  0  0  0  0  0  0  0  0
   11.1805   -1.3409    0.0000 O   0  0  0  0  0  0  0  0  0  0  0  0
  1  2  2  0  0  0  0
  1  6  1  0  0  0  0
  2  3  1  0  0  0  0
  3  4  2  0  0  0  0
  3  9  1  0  0  0  0
  4  5  1  0  0  0  0
  5  6  2  0  0  0  0
  6  7  1  0  0  0  0
  7  8  1  0  0  0  0
 10 11  2  0  0  0  0
 10 15  1  0  0  0  0
 11 12  1  0  0  0  0
 12 13  2  0  0  0  0
 12 18  1  0  0  0  0
 13 14  1  0  0  0  0
 14 15  2  0  0  0  0
 15 16  1  0  0  0  0
 16 17  1  0  0  0  0
 19 20  1  0  0  0  0
 19 21  2  0  0  0  0
 19 22  2  0  0  0  0
 19 23  1  0  0  0  0
M  END
> <ID>
4268

> <Formula>
C14H20N2O6S

> <FW>
344.3834 (123.1525+123.1525+98.0785)

> <DSSTox_CID>
5565

> <DSSTox_RID>
77831

> <DSSTox_GSID>
25565

> <DSSTox_FileID_Sort>
2514

> <TS_ChemName>
N-Methyl-p-aminophenol sulfate

> <TS_ChemName_Synonyms>
N-Methyl-p-aminophenol sulfate (2:1)

> <TS_CASRN>
55-55-0

> <CASRN_ChemName_Relationship>
primary

> <TS_Description>
single chemical compound

> <ChemNote>
parent [150-75-4]

> <STRUCTURE_Shown>
tested chemical

> <STRUCTURE_Formula>
C14H20N2O6S

> <STRUCTURE_MW>
344.3834

> <STRUCTURE_ChemType>
defined organic

> <STRUCTURE_DefinedOrganicForm>
complex

> <STRUCTURE_IUPAC>
4-(methylamino)phenol sulfate (2:1)

> <STRUCTURE_SMILES>
CNc1ccc(O)cc1.O=S(=O)(O)O.CNc1ccc(O)cc1

> <STRUCTURE_SMILES_Desalt>
CNc1ccc(O)cc1

> <Substance_modify_yyyymmdd>
20080429

$$$$
