55-86-7
ChemmineR-0915142007XD

  9  7  0  0  0  0  0  0  0  0  1 V2000
    3.4524   -1.3292    0.0000 N    0  0  0  0  0  0  0  0  0  0  0  0
    3.4524    0.0000    0.0000 C    0  0  0  0  0  0  0  0  0  0  0  0
    4.6031   -1.9966    0.0000 C    0  0  0  0  0  0  0  0  0  0  0  0
    5.7539   -1.3292    0.0000 C    0  0  0  0  0  0  0  0  0  0  0  0
    5.7539    0.0000    0.0000 Cl   0  0  0  0  0  0  0  0  0  0  0  0
    2.3016   -1.9966    0.0000 C    0  0  0  0  0  0  0  0  0  0  0  0
    1.1508   -1.3292    0.0000 C    0  0  0  0  0  0  0  0  0  0  0  0
    0.0000   -1.9966    0.0000 Cl   0  0  0  0  0  0  0  0  0  0  0  0
    5.0117   -3.8781    0.0000 Cl   0  0  0  0  0  0  0  0  0  0  0  0
  1  2  1  0  0  0  0
  1  3  1  0  0  0  0
  1  6  1  0  0  0  0
  3  4  1  0  0  0  0
  4  5  1  0  0  0  0
  6  7  1  0  0  0  0
  7  8  1  0  0  0  0
M  END
> <ID>
4386

> <Formula>
C5H12Cl3N

> <FW>
192.5145 (156.0535+36.4609)

> <DSSTox_CID>
5757

> <DSSTox_RID>
77910

> <DSSTox_GSID>
25757

> <DSSTox_FileID_Sort>
2593

> <TS_ChemName>
Nitrogen mustard hydrochloride

> <TS_ChemName_Synonyms>
Nitrogen mustard hydrochloride (2-Chloro-N-(2-chloroethyl)-N-methylethanamine hydrochloride)

> <TS_CASRN>
55-86-7

> <CASRN_ChemName_Relationship>
primary

> <TS_Description>
single chemical compound

> <ChemNote>
parent [51-75-2]

> <STRUCTURE_Shown>
tested chemical

> <STRUCTURE_Formula>
C5H12Cl3N

> <STRUCTURE_MW>
192.5145

> <STRUCTURE_ChemType>
defined organic

> <STRUCTURE_DefinedOrganicForm>
complex

> <STRUCTURE_IUPAC>
2-chloro-N-(2-chloroethyl)-N-methylethanamine hydrochloride (1:1)

> <STRUCTURE_SMILES>
Cl.ClCCN(C)CCCl

> <STRUCTURE_SMILES_Desalt>
ClCCN(C)CCCl

> <Substance_modify_yyyymmdd>
20080429

$$$$
