55-91-4
ChemmineR-0915142007XD

 11 10  0  0  0  0  0  0  0  0  1 V2000
    3.4565   -1.3300    0.0000 P   0  0  0  0  0  0  0  0  0  0  0  0
    3.4565    0.0000    0.0000 O   0  0  0  0  0  0  0  0  0  0  0  0
    4.6202   -1.9880    0.0000 O   0  0  0  0  0  0  0  0  0  0  0  0
    2.3067   -1.9880    0.0000 O   0  0  0  0  0  0  0  0  0  0  0  0
    5.7632   -1.3300    0.0000 C   0  0  0  0  0  0  0  0  0  0  0  0
    1.1429   -1.3300    0.0000 C   0  0  0  0  0  0  0  0  0  0  0  0
    5.7632    0.0000    0.0000 C   0  0  0  0  0  0  0  0  0  0  0  0
    0.0000   -1.9880    0.0000 C   0  0  0  0  0  0  0  0  0  0  0  0
    6.9269   -1.9880    0.0000 C   0  0  0  0  0  0  0  0  0  0  0  0
    1.1429    0.0000    0.0000 C   0  0  0  0  0  0  0  0  0  0  0  0
    2.7985   -2.4937    0.0000 F   0  0  0  0  0  0  0  0  0  0  0  0
  1  2  2  0  0  0  0
  1  3  1  0  0  0  0
  1  4  1  0  0  0  0
  1 11  1  0  0  0  0
  3  5  1  0  0  0  0
  4  6  1  0  0  0  0
  5  7  1  0  0  0  0
  5  9  1  0  0  0  0
  6  8  1  0  0  0  0
  6 10  1  0  0  0  0
M  END
> <ID>
7868

> <Formula>
C6H14FO3P

> <FW>
184.1457

> <DSSTox_CID>
20667

> <DSSTox_RID>
79530

> <DSSTox_GSID>
40667

> <DSSTox_FileID_Sort>
4212

> <TS_ChemName>
Diisopropyl fluorophosphate

> <TS_ChemName_Synonyms>


> <TS_CASRN>
55-91-4

> <CASRN_ChemName_Relationship>
primary

> <TS_Description>
single chemical compound

> <ChemNote>


> <STRUCTURE_Shown>
tested chemical

> <STRUCTURE_Formula>
C6H14FO3P

> <STRUCTURE_MW>
184.1457

> <STRUCTURE_ChemType>
defined organic

> <STRUCTURE_DefinedOrganicForm>
parent

> <STRUCTURE_IUPAC>
dipropan-2-yl phosphorofluoridate

> <STRUCTURE_SMILES>
FP(=O)(OC(C)C)OC(C)C

> <STRUCTURE_SMILES_Desalt>
FP(=O)(OC(C)C)OC(C)C

> <Substance_modify_yyyymmdd>
20080429

$$$$
