550-99-2
ChemmineR-0915142007XD

 17 18  0  0  0  0  0  0  0  0  1 V2000
    4.5256   -3.9937    0.0000 Cl   0  0  0  0  0  0  0  0  0  0  0  0
    8.3481   -0.3967    0.0000 C    0  0  0  0  0  0  0  0  0  0  0  0
    9.0152   -1.5506    0.0000 C    0  0  0  0  0  0  0  0  0  0  0  0
    8.1227   -2.5423    0.0000 N    0  0  0  0  0  0  0  0  0  0  0  0
    6.9147   -2.0014    0.0000 C    0  0  0  0  0  0  0  0  0  0  0  0
    5.7607   -2.6595    0.0000 C    0  0  0  0  0  0  0  0  0  0  0  0
    4.6068   -2.0014    0.0000 C    0  0  0  0  0  0  0  0  0  0  0  0
    3.4528   -2.6595    0.0000 C    0  0  0  0  0  0  0  0  0  0  0  0
    2.3079   -2.0014    0.0000 C    0  0  0  0  0  0  0  0  0  0  0  0
    1.1539   -2.6595    0.0000 C    0  0  0  0  0  0  0  0  0  0  0  0
    0.0000   -2.0014    0.0000 C    0  0  0  0  0  0  0  0  0  0  0  0
    0.0000   -0.6671    0.0000 C    0  0  0  0  0  0  0  0  0  0  0  0
    1.1539    0.0000    0.0000 C    0  0  0  0  0  0  0  0  0  0  0  0
    2.3079   -0.6671    0.0000 C    0  0  0  0  0  0  0  0  0  0  0  0
    3.4528    0.0000    0.0000 C    0  0  0  0  0  0  0  0  0  0  0  0
    4.6068   -0.6671    0.0000 C    0  0  0  0  0  0  0  0  0  0  0  0
    7.0499   -0.6761    0.0000 N    0  0  0  0  0  0  0  0  0  0  0  0
  2  3  1  0  0  0  0
  2 17  1  0  0  0  0
  3  4  1  0  0  0  0
  4  5  2  0  0  0  0
  5  6  1  0  0  0  0
  5 17  1  0  0  0  0
  6  7  1  0  0  0  0
  7  8  2  0  0  0  0
  7 16  1  0  0  0  0
  8  9  1  0  0  0  0
  9 10  2  0  0  0  0
  9 14  1  0  0  0  0
 10 11  1  0  0  0  0
 11 12  2  0  0  0  0
 12 13  1  0  0  0  0
 13 14  2  0  0  0  0
 14 15  1  0  0  0  0
 15 16  2  0  0  0  0
M  END
> <ID>
11197

> <Formula>
C14H15ClN2

> <FW>
246.7353 (36.4609+210.2744)

> <DSSTox_CID>
25788

> <DSSTox_RID>
81129

> <DSSTox_GSID>
45788

> <DSSTox_FileID_Sort>
5810

> <TS_ChemName>
Naphazoline hydrochloride

> <TS_ChemName_Synonyms>


> <TS_CASRN>
550-99-2

> <CASRN_ChemName_Relationship>
primary

> <TS_Description>
single chemical compound

> <ChemNote>
parent [835-31-4]

> <STRUCTURE_Shown>
tested chemical

> <STRUCTURE_Formula>
C14H15ClN2

> <STRUCTURE_MW>
246.7353

> <STRUCTURE_ChemType>
defined organic

> <STRUCTURE_DefinedOrganicForm>
complex

> <STRUCTURE_IUPAC>
2-(naphthalen-2-ylmethyl)-4,5-dihydro-1H-imidazole hydrochloride (1:1)

> <STRUCTURE_SMILES>
Cl.c2cc(CC1=NCCN1)cc3ccccc23

> <STRUCTURE_SMILES_Desalt>
c2cc(CC1=NCCN1)cc3ccccc23

> <Substance_modify_yyyymmdd>
20110902

$$$$
