550-83-4
ChemmineR-0915142007XD

 22 21  0  0  0  0  0  0  0  0  1 V2000
    3.4498   -2.6819    0.0000 C    0  0  0  0  0  0  0  0  0  0  0  0
    3.4498   -3.9999    0.0000 C    0  0  0  0  0  0  0  0  0  0  0  0
    4.6303   -1.9713    0.0000 C    0  0  0  0  0  0  0  0  0  0  0  0
    2.3037   -2.0171    0.0000 C    0  0  0  0  0  0  0  0  0  0  0  0
    2.3037   -4.6532    0.0000 C    0  0  0  0  0  0  0  0  0  0  0  0
    9.1803   -1.9713    0.0000 N    0  0  0  0  0  0  0  0  0  0  0  0
    4.6303   -0.6304    0.0000 O    0  0  0  0  0  0  0  0  0  0  0  0
    1.1690   -3.9999    0.0000 C    0  0  0  0  0  0  0  0  0  0  0  0
    5.7420   -2.6475    0.0000 O    0  0  0  0  0  0  0  0  0  0  0  0
    1.1690   -2.6819    0.0000 C    0  0  0  0  0  0  0  0  0  0  0  0
    4.6303   -4.6876    0.0000 O    0  0  0  0  0  0  0  0  0  0  0  0
    0.0000   -4.6876    0.0000 N    0  0  0  0  0  0  0  0  0  0  0  0
    8.0342   -2.6475    0.0000 C    0  0  0  0  0  0  0  0  0  0  0  0
    6.8996   -1.9713    0.0000 C    0  0  0  0  0  0  0  0  0  0  0  0
   10.3150   -2.6475    0.0000 C    0  0  0  0  0  0  0  0  0  0  0  0
    9.1803   -0.6533    0.0000 C    0  0  0  0  0  0  0  0  0  0  0  0
    5.7764   -4.0114    0.0000 C    0  0  0  0  0  0  0  0  0  0  0  0
    6.9225   -4.6876    0.0000 C    0  0  0  0  0  0  0  0  0  0  0  0
   11.4611   -1.9713    0.0000 C    0  0  0  0  0  0  0  0  0  0  0  0
    8.0342    0.0000    0.0000 C    0  0  0  0  0  0  0  0  0  0  0  0
    8.0800   -4.0114    0.0000 C    0  0  0  0  0  0  0  0  0  0  0  0
   10.7390   -0.5731    0.0000 Cl   0  0  0  0  0  0  0  0  0  0  0  0
  1  2  1  0  0  0  0
  1  3  1  0  0  0  0
  1  4  2  0  0  0  0
  2  5  2  0  0  0  0
  2 11  1  0  0  0  0
  3  7  2  0  0  0  0
  3  9  1  0  0  0  0
  4 10  1  0  0  0  0
  5  8  1  0  0  0  0
  6 13  1  0  0  0  0
  6 15  1  0  0  0  0
  6 16  1  0  0  0  0
  8 10  2  0  0  0  0
  8 12  1  0  0  0  0
  9 14  1  0  0  0  0
 11 17  1  0  0  0  0
 13 14  1  0  0  0  0
 15 19  1  0  0  0  0
 16 20  1  0  0  0  0
 17 18  1  0  0  0  0
 18 21  1  0  0  0  0
M  END
> <ID>
10874

> <Formula>
C16H27ClN2O3

> <FW>
330.8502 (294.3892+36.4609)

> <DSSTox_CID>
25325

> <DSSTox_RID>
80804

> <DSSTox_GSID>
45325

> <DSSTox_FileID_Sort>
5485

> <TS_ChemName>
Propoxycaine hydrochloride

> <TS_ChemName_Synonyms>


> <TS_CASRN>
550-83-4

> <CASRN_ChemName_Relationship>
primary

> <TS_Description>
single chemical compound

> <ChemNote>
parent [86-43-1]

> <STRUCTURE_Shown>
tested chemical

> <STRUCTURE_Formula>
C16H27ClN2O3

> <STRUCTURE_MW>
330.8502

> <STRUCTURE_ChemType>
defined organic

> <STRUCTURE_DefinedOrganicForm>
complex

> <STRUCTURE_IUPAC>
2-(diethylamino)ethyl 4-amino-2-propoxybenzoate hydrochloride (1:1)

> <STRUCTURE_SMILES>
Cl.CCN(CC)CCOC(=O)c1ccc(N)cc1OCCC

> <STRUCTURE_SMILES_Desalt>
CCN(CC)CCOC(=O)c1ccc(N)cc1OCCC

> <Substance_modify_yyyymmdd>
20110605

$$$$
