5502-78-3
ChemmineR-0915142007XD

 12 13  0  0  0  0  0  0  0  0  1 V2000
    5.1348    0.0000    0.0000 C   0  0  0  0  0  0  0  0  0  0  0  0
    5.5035   -2.3445    0.0000 C   0  0  0  0  0  0  0  0  0  0  0  0
    3.4507   -3.0049    0.0000 C   0  0  0  0  0  0  0  0  0  0  0  0
    3.4507   -1.6896    0.0000 C   0  0  0  0  0  0  0  0  0  0  0  0
    2.3115   -3.6763    0.0000 C   0  0  0  0  0  0  0  0  0  0  0  0
    1.1557   -1.6896    0.0000 C   0  0  0  0  0  0  0  0  0  0  0  0
    0.0000   -1.0126    0.0000 N   0  0  0  0  0  0  0  0  0  0  0  0
    4.7165   -3.4177    0.0000 N   0  0  0  0  0  0  0  0  0  0  0  0
    2.3115   -1.0126    0.0000 N   0  0  0  0  0  0  0  0  0  0  0  0
    1.1557   -3.0049    0.0000 N   0  0  0  0  0  0  0  0  0  0  0  0
    4.7165   -1.2713    0.0000 N   0  0  0  0  0  0  0  0  0  0  0  0
    2.3115   -5.0082    0.0000 O   0  0  0  0  0  0  0  0  0  0  0  0
  1 11  1  0  0  0  0
  2  8  2  0  0  0  0
  2 11  1  0  0  0  0
  3  4  2  0  0  0  0
  3  5  1  0  0  0  0
  3  8  1  0  0  0  0
  4  9  1  0  0  0  0
  4 11  1  0  0  0  0
  5 10  1  0  0  0  0
  5 12  2  0  0  0  0
  6  7  1  0  0  0  0
  6  9  1  0  0  0  0
  6 10  2  0  0  0  0
M  END
> <ID>
14182

> <Formula>
C6H7N5O

> <FW>
165.1527

> <DSSTox_CID>
29274

> <DSSTox_RID>
83393

> <DSSTox_GSID>
49318

> <DSSTox_FileID_Sort>
8068

> <TS_ChemName>
9-Methylguanine

> <TS_ChemName_Synonyms>


> <TS_CASRN>
5502-78-3

> <CASRN_ChemName_Relationship>
primary

> <TS_Description>
single chemical compound

> <ChemNote>
stereochem

> <STRUCTURE_Shown>
tested chemical

> <STRUCTURE_Formula>
C6H7N5O

> <STRUCTURE_MW>
165.1527

> <STRUCTURE_ChemType>
defined organic

> <STRUCTURE_DefinedOrganicForm>
parent

> <STRUCTURE_IUPAC>
2-amino-9-methyl-3,9-dihydro-6H-purin-6-one

> <STRUCTURE_SMILES>
NC=2Nc1c(ncn1C)C(=O)N=2

> <STRUCTURE_SMILES_Desalt>
NC=2Nc1c(ncn1C)C(=O)N=2

> <Substance_modify_yyyymmdd>
20111204

$$$$
