55028-72-3
ChemmineR-0915142007XD

 30 30  0  0  1  0  0  0  0  0  2 V2000
    2.0441   -5.3642    0.0000 C    0  0  0  0  0  0  0  0  0  0  0  0
    0.0000   -4.6952    0.0000 C    0  0  0  0  0  0  0  0  0  0  0  0
    2.0441   -4.0386    0.0000 C    0  0  0  0  0  0  0  0  0  0  0  0
    0.7805   -5.7730    0.0000 C    0  0  0  0  0  0  0  0  0  0  0  0
    0.7805   -3.6298    0.0000 C    0  0  0  0  0  0  0  0  0  0  0  0
    0.3840   -2.3538    0.0000 O    0  0  0  0  0  0  0  0  0  0  0  0
    0.3840   -7.0242    0.0000 O    0  0  0  0  0  0  0  0  0  0  0  0
    3.1962   -6.0084    0.0000 C    0  0  0  0  0  0  0  0  0  0  0  0
    4.3483   -5.3642    0.0000 C    0  0  0  0  0  0  0  0  0  0  0  0
    3.1962   -3.3696    0.0000 C    0  0  0  0  0  0  0  0  0  0  0  0
    4.3483   -4.0386    0.0000 C    0  0  0  0  0  0  0  0  0  0  0  0
    5.4880   -6.0084    0.0000 C    0  0  0  0  0  0  0  0  0  0  0  0
    6.6278   -5.3642    0.0000 C    0  0  0  0  0  0  0  0  0  0  0  0
    5.4757   -3.3696    0.0000 C    0  0  0  0  0  0  0  0  0  0  0  0
    7.7799   -6.0084    0.0000 O    0  0  0  0  0  0  0  0  0  0  0  0
    8.9196   -5.3394    0.0000 C    0  0  0  0  0  0  0  0  0  0  0  0
    8.9196   -4.0386    0.0000 C    0  0  0  0  0  0  0  0  0  0  0  0
   10.0717   -6.0084    0.0000 C    0  0  0  0  0  0  0  0  0  0  0  0
   11.2239   -5.3394    0.0000 C    0  0  0  0  0  0  0  0  0  0  0  0
   10.0717   -3.3696    0.0000 C    0  0  0  0  0  0  0  0  0  0  0  0
   11.2239   -4.0386    0.0000 C    0  0  0  0  0  0  0  0  0  0  0  0
   12.3884   -6.0331    0.0000 Cl   0  0  0  0  0  0  0  0  0  0  0  0
    5.4880   -7.3711    0.0000 O    0  0  0  0  0  0  0  0  0  0  0  0
    5.4757   -2.0193    0.0000 C    0  0  0  0  0  0  0  0  0  0  0  0
    6.6526   -1.3503    0.0000 C    0  0  0  0  0  0  0  0  0  0  0  0
    7.8171   -2.0193    0.0000 C    0  0  0  0  0  0  0  0  0  0  0  0
    8.9940   -1.3503    0.0000 C    0  0  0  0  0  0  0  0  0  0  0  0
   10.1585   -2.0193    0.0000 O    0  5  0  0  0  0  0  0  0  0  0  0
    8.9940    0.0000    0.0000 O    0  0  0  0  0  0  0  0  0  0  0  0
   10.5177   -0.6690    0.0000 Na   0  3  0  0  0  0  0  0  0  0  0  0
  1  4  1  0  0  0  0
  1  8  1  1  0  0  0
  1  3  1  0  0  0  0
  2  4  1  0  0  0  0
  2  5  1  0  0  0  0
  3  5  1  0  0  0  0
  3 10  1  6  0  0  0
  4  7  1  6  0  0  0
  5  6  1  6  0  0  0
  8  9  2  0  0  0  0
  9 12  1  0  0  0  0
 10 11  1  0  0  0  0
 11 14  2  0  0  0  0
 12 13  1  0  0  0  0
 12 23  1  6  0  0  0
 13 15  1  0  0  0  0
 14 24  1  0  0  0  0
 15 16  1  0  0  0  0
 16 18  1  0  0  0  0
 16 17  2  0  0  0  0
 17 20  1  0  0  0  0
 18 19  2  0  0  0  0
 19 21  1  0  0  0  0
 19 22  1  0  0  0  0
 20 21  2  0  0  0  0
 24 25  1  0  0  0  0
 25 26  1  0  0  0  0
 26 27  1  0  0  0  0
 27 28  1  0  0  0  0
 27 29  2  0  0  0  0
M  END
> <ID>
11735

> <Formula>
C22H28ClNaO6

> <FW>
446.8969 (423.9077+22.9892)

> <DSSTox_CID>
26500

> <DSSTox_RID>
81669

> <DSSTox_GSID>
46500

> <DSSTox_FileID_Sort>
6350

> <TS_ChemName>
Cloprostenol sodium

> <TS_ChemName_Synonyms>


> <TS_CASRN>
55028-72-3

> <CASRN_ChemName_Relationship>
primary

> <TS_Description>
single chemical compound

> <ChemNote>
stereochem; parent [40665-92-7]

> <STRUCTURE_Shown>
tested chemical

> <STRUCTURE_Formula>
C22H28ClNaO6

> <STRUCTURE_MW>
446.8969

> <STRUCTURE_ChemType>
defined organic

> <STRUCTURE_DefinedOrganicForm>
salt

> <STRUCTURE_IUPAC>
sodium (5Z)-7-{(1R,2R,3R,5S)-2-[(1E,3R)-4-(3-chlorophenoxy)-3-hydroxybut-1-en-1-yl]-3,5-dihydroxycyclopentyl}hept-5-enoate

> <STRUCTURE_SMILES>
[Na+].O[C@H]2C[C@@H](O)[C@H](/C=C/[C@@H](O)COc1cccc(Cl)c1)[C@H]2C\C=C/CCCC([O-])=O

> <STRUCTURE_SMILES_Desalt>
O[C@H]2C[C@@H](O)[C@H](/C=C/[C@@H](O)COc1cccc(Cl)c1)[C@H]2C\C=C/CCCC(=O)O

> <Substance_modify_yyyymmdd>
20110812

$$$$
