55066-56-3
ChemmineR-0915142007XD

 14 14  0  0  0  0  0  0  0  0  1 V2000
    3.4635   -2.0081    0.0000 C   0  0  0  0  0  0  0  0  0  0  0  0
    4.6149   -2.6621    0.0000 O   0  0  0  0  0  0  0  0  0  0  0  0
    5.7663   -2.0081    0.0000 C   0  0  0  0  0  0  0  0  0  0  0  0
    6.9085   -2.6621    0.0000 C   0  0  0  0  0  0  0  0  0  0  0  0
    8.0599   -2.0081    0.0000 C   0  0  0  0  0  0  0  0  0  0  0  0
    9.2113   -2.6621    0.0000 C   0  0  0  0  0  0  0  0  0  0  0  0
    8.0599   -0.6724    0.0000 C   0  0  0  0  0  0  0  0  0  0  0  0
    5.7663   -0.6724    0.0000 O   0  0  0  0  0  0  0  0  0  0  0  0
    3.4635   -0.6724    0.0000 C   0  0  0  0  0  0  0  0  0  0  0  0
    2.3028    0.0000    0.0000 C   0  0  0  0  0  0  0  0  0  0  0  0
    1.1514   -0.6724    0.0000 C   0  0  0  0  0  0  0  0  0  0  0  0
    0.0000    0.0000    0.0000 C   0  0  0  0  0  0  0  0  0  0  0  0
    1.1514   -2.0081    0.0000 C   0  0  0  0  0  0  0  0  0  0  0  0
    2.3028   -2.6621    0.0000 C   0  0  0  0  0  0  0  0  0  0  0  0
  1  2  1  0  0  0  0
  1  9  1  0  0  0  0
  1 14  2  0  0  0  0
  2  3  1  0  0  0  0
  3  4  1  0  0  0  0
  3  8  2  0  0  0  0
  4  5  1  0  0  0  0
  5  6  1  0  0  0  0
  5  7  1  0  0  0  0
  9 10  2  0  0  0  0
 10 11  1  0  0  0  0
 11 12  1  0  0  0  0
 11 13  2  0  0  0  0
 13 14  1  0  0  0  0
M  END
> <ID>
12307

> <Formula>
C12H16O2

> <FW>
192.2542

> <DSSTox_CID>
27159

> <DSSTox_RID>
82160

> <DSSTox_GSID>
47159

> <DSSTox_FileID_Sort>
6841

> <TS_ChemName>
4-Methylphenyl 3-methylbutanoate

> <TS_ChemName_Synonyms>
Isovaleric Acid p-Tolyl Ester

> <TS_CASRN>
55066-56-3

> <CASRN_ChemName_Relationship>
primary

> <TS_Description>
single chemical compound

> <ChemNote>


> <STRUCTURE_Shown>
tested chemical

> <STRUCTURE_Formula>
C12H16O2

> <STRUCTURE_MW>
192.2542

> <STRUCTURE_ChemType>
defined organic

> <STRUCTURE_DefinedOrganicForm>
parent

> <STRUCTURE_IUPAC>
4-methylphenyl 3-methylbutanoate

> <STRUCTURE_SMILES>
O=C(Oc1ccc(C)cc1)CC(C)C

> <STRUCTURE_SMILES_Desalt>
O=C(Oc1ccc(C)cc1)CC(C)C

> <Substance_modify_yyyymmdd>
20100502

$$$$
