55066-48-3
ChemmineR-0915142007XD

 13 13  0  0  0  0  0  0  0  0  1 V2000
    2.3079   -1.9677    0.0000 C   0  0  0  0  0  0  0  0  0  0  0  0
    1.1494   -1.2229    0.0000 C   0  0  0  0  0  0  0  0  0  0  0  0
    0.0000   -1.9677    0.0000 C   0  0  0  0  0  0  0  0  0  0  0  0
    0.0000   -3.2550    0.0000 C   0  0  0  0  0  0  0  0  0  0  0  0
    1.1494   -3.9355    0.0000 C   0  0  0  0  0  0  0  0  0  0  0  0
    2.3079   -3.2550    0.0000 C   0  0  0  0  0  0  0  0  0  0  0  0
    8.0364   -1.3241    0.0000 C   0  0  0  0  0  0  0  0  0  0  0  0
    6.8870   -2.0137    0.0000 C   0  0  0  0  0  0  0  0  0  0  0  0
    5.7469   -1.3241    0.0000 C   0  0  0  0  0  0  0  0  0  0  0  0
    4.5975   -1.9677    0.0000 C   0  0  0  0  0  0  0  0  0  0  0  0
    3.4481   -1.3241    0.0000 C   0  0  0  0  0  0  0  0  0  0  0  0
    9.1950   -2.0137    0.0000 O   0  0  0  0  0  0  0  0  0  0  0  0
    5.7469    0.0000    0.0000 C   0  0  0  0  0  0  0  0  0  0  0  0
  1  2  2  0  0  0  0
  1  6  1  0  0  0  0
  1 11  1  0  0  0  0
  2  3  1  0  0  0  0
  3  4  2  0  0  0  0
  4  5  1  0  0  0  0
  5  6  2  0  0  0  0
  7  8  1  0  0  0  0
  7 12  1  0  0  0  0
  8  9  1  0  0  0  0
  9 10  1  0  0  0  0
  9 13  1  0  0  0  0
 10 11  1  0  0  0  0
M  END
> <ID>
10470

> <Formula>
C12H18O

> <FW>
178.2707

> <DSSTox_CID>
24822

> <DSSTox_RID>
80503

> <DSSTox_GSID>
44822

> <DSSTox_FileID_Sort>
5185

> <TS_ChemName>
3-Methyl-5-phenylpentan-1-ol

> <TS_ChemName_Synonyms>
3-Methyl-5-phenylpentan-1-ol (Benzenepentanol, .gamma.-methyl-)

> <TS_CASRN>
55066-48-3

> <CASRN_ChemName_Relationship>
primary

> <TS_Description>
single chemical compound

> <ChemNote>


> <STRUCTURE_Shown>
tested chemical

> <STRUCTURE_Formula>
C12H18O

> <STRUCTURE_MW>
178.2707

> <STRUCTURE_ChemType>
defined organic

> <STRUCTURE_DefinedOrganicForm>
parent

> <STRUCTURE_IUPAC>
3-methyl-5-phenylpentan-1-ol

> <STRUCTURE_SMILES>
CC(CCc1ccccc1)CCO

> <STRUCTURE_SMILES_Desalt>
CC(CCc1ccccc1)CCO

> <Substance_modify_yyyymmdd>
20091116

$$$$
