55077-30-0
ChemmineR-0915142007XD

 48 47  0  0  0  0  0  0  0  0  2 V2000
    6.1601   -6.4319    0.0000 C   0  0  0  0  0  0  0  0  0  0  0  0
    4.8918   -6.4319    0.0000 C   0  0  0  0  0  0  0  0  0  0  0  0
    6.7813   -5.3318    0.0000 C   0  0  0  0  0  0  0  0  0  0  0  0
    6.7813   -7.5319    0.0000 C   0  0  0  0  0  0  0  0  0  0  0  0
    4.2577   -7.5319    0.0000 C   0  0  0  0  0  0  0  0  0  0  0  0
    4.2577   -5.3318    0.0000 C   0  0  0  0  0  0  0  0  0  0  0  0
    6.1601   -4.2448    0.0000 C   0  0  0  0  0  0  0  0  0  0  0  0
    8.0236   -5.3318    0.0000 S   0  0  0  0  0  0  0  0  0  0  0  0
    6.1601   -8.6060    0.0000 C   0  0  0  0  0  0  0  0  0  0  0  0
    4.8918   -8.6060    0.0000 C   0  0  0  0  0  0  0  0  0  0  0  0
    3.0024   -7.5319    0.0000 S   0  0  0  0  0  0  0  0  0  0  0  0
    4.8918   -4.2448    0.0000 C   0  0  0  0  0  0  0  0  0  0  0  0
    8.0236   -4.0765    0.0000 O   0  0  0  0  0  0  0  0  0  0  0  0
    8.0236   -6.6001    0.0000 O   0  0  0  0  0  0  0  0  0  0  0  0
    9.2789   -5.3318    0.0000 O   0  5  0  0  0  0  0  0  0  0  0  0
    3.0024   -6.2377    0.0000 O   0  0  0  0  0  0  0  0  0  0  0  0
    3.0024   -8.7613    0.0000 O   0  0  0  0  0  0  0  0  0  0  0  0
    1.7471   -7.5319    0.0000 O   0  5  0  0  0  0  0  0  0  0  0  0
    0.6600  -10.8966    0.0000 C   0  0  0  0  0  0  0  0  0  0  0  0
    1.8506  -11.6084    0.0000 N   0  3  0  0  0  0  0  0  0  0  0  0
    3.0153  -10.8966    0.0000 C   0  0  0  0  0  0  0  0  0  0  0  0
    1.8506  -12.9414    0.0000 C   0  0  0  0  0  0  0  0  0  0  0  0
    4.2059  -11.6084    0.0000 C   0  0  0  0  0  0  0  0  0  0  0  0
    5.3448  -10.8966    0.0000 O   0  0  0  0  0  0  0  0  0  0  0  0
    6.5483  -11.6084    0.0000 C   0  0  0  0  0  0  0  0  0  0  0  0
    7.7389  -10.8966    0.0000 C   0  0  0  0  0  0  0  0  0  0  0  0
    6.5483  -12.9414    0.0000 O   0  0  0  0  0  0  0  0  0  0  0  0
    8.9166  -11.6084    0.0000 O   0  0  0  0  0  0  0  0  0  0  0  0
    7.7389   -9.5637    0.0000 C   0  0  0  0  0  0  0  0  0  0  0  0
   10.0813  -10.8966    0.0000 C   0  0  0  0  0  0  0  0  0  0  0  0
   10.0813   -9.5637    0.0000 C   0  0  0  0  0  0  0  0  0  0  0  0
   11.2849  -11.6084    0.0000 O   0  0  0  0  0  0  0  0  0  0  0  0
    2.6271  -10.2625    0.0000 C   0  0  0  0  0  0  0  0  0  0  0  0
   10.6249   -2.0447    0.0000 C   0  0  0  0  0  0  0  0  0  0  0  0
    9.4472   -1.3330    0.0000 N   0  3  0  0  0  0  0  0  0  0  0  0
    8.2695   -2.0447    0.0000 C   0  0  0  0  0  0  0  0  0  0  0  0
    9.4472    0.0000    0.0000 C   0  0  0  0  0  0  0  0  0  0  0  0
    7.0660   -1.3330    0.0000 C   0  0  0  0  0  0  0  0  0  0  0  0
    5.8883   -2.0447    0.0000 O   0  0  0  0  0  0  0  0  0  0  0  0
    4.7236   -1.3330    0.0000 C   0  0  0  0  0  0  0  0  0  0  0  0
    3.5459   -2.0447    0.0000 C   0  0  0  0  0  0  0  0  0  0  0  0
    4.7236    0.0000    0.0000 O   0  0  0  0  0  0  0  0  0  0  0  0
    2.3424   -1.3330    0.0000 O   0  0  0  0  0  0  0  0  0  0  0  0
    3.5459   -3.3777    0.0000 C   0  0  0  0  0  0  0  0  0  0  0  0
    1.1906   -2.0447    0.0000 C   0  0  0  0  0  0  0  0  0  0  0  0
    1.1906   -3.3777    0.0000 C   0  0  0  0  0  0  0  0  0  0  0  0
    0.0000   -1.3330    0.0000 O   0  0  0  0  0  0  0  0  0  0  0  0
    8.6707   -2.6789    0.0000 C   0  0  0  0  0  0  0  0  0  0  0  0
  1  2  1  0  0  0  0
  1  3  1  0  0  0  0
  1  4  2  0  0  0  0
  2  5  2  0  0  0  0
  2  6  1  0  0  0  0
  3  7  2  0  0  0  0
  3  8  1  0  0  0  0
  4  9  1  0  0  0  0
  5 10  1  0  0  0  0
  5 11  1  0  0  0  0
  6 12  2  0  0  0  0
  7 12  1  0  0  0  0
  8 13  2  0  0  0  0
  8 14  2  0  0  0  0
  8 15  1  0  0  0  0
  9 10  2  0  0  0  0
 11 16  2  0  0  0  0
 11 17  2  0  0  0  0
 11 18  1  0  0  0  0
 19 20  1  0  0  0  0
 20 21  1  0  0  0  0
 20 22  1  0  0  0  0
 20 33  1  0  0  0  0
 21 23  1  0  0  0  0
 23 24  1  0  0  0  0
 24 25  1  0  0  0  0
 25 26  1  0  0  0  0
 25 27  2  0  0  0  0
 26 28  1  0  0  0  0
 26 29  1  0  0  0  0
 28 30  1  0  0  0  0
 30 31  1  0  0  0  0
 30 32  2  0  0  0  0
 34 35  1  0  0  0  0
 35 36  1  0  0  0  0
 35 37  1  0  0  0  0
 35 48  1  0  0  0  0
 36 38  1  0  0  0  0
 38 39  1  0  0  0  0
 39 40  1  0  0  0  0
 40 41  1  0  0  0  0
 40 42  2  0  0  0  0
 41 43  1  0  0  0  0
 41 44  1  0  0  0  0
 43 45  1  0  0  0  0
 45 46  1  0  0  0  0
 45 47  2  0  0  0  0
M  END
> <ID>
13660

> <Formula>
C30H46N2O14S2

> <FW>
722.8212 (286.2821+218.2696+218.2696)

> <DSSTox_CID>
28591

> <DSSTox_RID>
82862

> <DSSTox_GSID>
48665

> <DSSTox_FileID_Sort>
7539

> <TS_ChemName>
Aclatonium napadisilate

> <TS_ChemName_Synonyms>


> <TS_CASRN>
55077-30-0

> <CASRN_ChemName_Relationship>
primary

> <TS_Description>
single chemical compound

> <ChemNote>


> <STRUCTURE_Shown>
tested chemical

> <STRUCTURE_Formula>
C30H46N2O14S2

> <STRUCTURE_MW>
722.8212

> <STRUCTURE_ChemType>
defined organic

> <STRUCTURE_DefinedOrganicForm>
complex

> <STRUCTURE_IUPAC>
bis(2-{[2-(acetyloxy)propanoyl]oxy}-N,N,N-trimethylethanaminium) naphthalene-1,5-disulfonate

> <STRUCTURE_SMILES>
C[N+](C)(C)CCOC(=O)C(C)OC(C)=O.C[N+](C)(C)CCOC(=O)C(C)OC(C)=O.[O-]S(=O)(=O)c2cccc1c2cccc1S([O-])(=O)=O

> <STRUCTURE_SMILES_Desalt>
O=S(=O)(O)c2cccc1c2cccc1S(=O)(=O)O

> <Substance_modify_yyyymmdd>
20111204

$$$$
