5508-58-7
ChemmineR-0915142007XD

 26 28  0  0  1  0  0  0  0  0  1 V2000
    3.5407   -6.1242    0.0000 C   0  0  0  0  0  0  0  0  0  0  0  0
    5.8154   -2.1100    0.0000 C   0  0  0  0  0  0  0  0  0  0  0  0
    3.5407   -7.4725    0.0000 C   0  0  0  0  0  0  0  0  0  0  0  0
    2.3673   -8.1518    0.0000 C   0  0  0  0  0  0  0  0  0  0  0  0
    6.8138   -1.2660    0.0000 C   0  0  0  0  0  0  0  0  0  0  0  0
    5.8154   -3.4378    0.0000 C   0  0  0  0  0  0  0  0  0  0  0  0
    4.6729   -5.4757    0.0000 C   0  0  0  0  0  0  0  0  0  0  0  0
    6.3506    0.0000    0.0000 O   0  0  0  0  0  0  0  0  0  0  0  0
    5.8463   -6.1242    0.0000 C   0  0  0  0  0  0  0  0  0  0  0  0
    4.6729   -4.1068    0.0000 C   0  0  0  0  0  0  0  0  0  0  0  0
    2.3673   -5.4757    0.0000 C   0  0  0  0  0  0  0  0  0  0  0  0
    4.6729   -8.1518    0.0000 C   0  0  0  0  0  0  0  0  0  0  0  0
    4.6729   -1.3278    0.0000 C   0  0  0  0  0  0  0  0  0  0  0  0
    1.1837   -7.4725    0.0000 C   0  0  0  0  0  0  0  0  0  0  0  0
    5.8463   -7.4725    0.0000 C   0  0  0  0  0  0  0  0  0  0  0  0
    5.0537    0.0000    0.0000 C   0  0  0  0  0  0  0  0  0  0  0  0
    8.1518   -1.6057    0.0000 O   0  0  0  0  0  0  0  0  0  0  0  0
    1.1837   -6.1242    0.0000 C   0  0  0  0  0  0  0  0  0  0  0  0
    7.0299   -5.4346    0.0000 C   0  0  0  0  0  0  0  0  0  0  0  0
    3.4378   -8.9650    0.0000 C   0  0  0  0  0  0  0  0  0  0  0  0
    3.5407   -4.8582    0.0000 C   0  0  0  0  0  0  0  0  0  0  0  0
    1.2969   -8.8003    0.0000 C   0  0  0  0  0  0  0  0  0  0  0  0
    3.3554   -1.8012    0.0000 O   0  0  0  0  0  0  0  0  0  0  0  0
    0.0000   -8.1518    0.0000 O   0  0  0  0  0  0  0  0  0  0  0  0
    3.4378  -10.2927    0.0000 O   0  0  0  0  0  0  0  0  0  0  0  0
    3.5407   -8.4915    0.0000 H   0  0  0  0  0  0  0  0  0  0  0  0
  1  3  1  0  0  0  0
  1  7  1  0  0  0  0
  1 11  1  0  0  0  0
  1 21  1  6  0  0  0
  2  6  2  0  0  0  0
  2  5  1  0  0  0  0
  2 13  1  0  0  0  0
  3  4  1  0  0  0  0
  3 12  1  0  0  0  0
  3 26  1  1  0  0  0
  4 20  1  6  0  0  0
  4 22  1  1  0  0  0
  4 14  1  0  0  0  0
  5  8  1  0  0  0  0
  5 17  2  0  0  0  0
  6 10  1  0  0  0  0
  7  9  1  0  0  0  0
  7 10  1  6  0  0  0
  8 16  1  0  0  0  0
  9 15  1  0  0  0  0
  9 19  2  0  0  0  0
 11 18  1  0  0  0  0
 12 15  1  0  0  0  0
 13 16  1  0  0  0  0
 13 23  1  6  0  0  0
 14 18  1  0  0  0  0
 14 24  1  6  0  0  0
 20 25  1  0  0  0  0
M  END
> <ID>
11338

> <Formula>
C20H30O5

> <FW>
350.4492

> <DSSTox_CID>
25980

> <DSSTox_RID>
81270

> <DSSTox_GSID>
45980

> <DSSTox_FileID_Sort>
5951

> <TS_ChemName>
Andrographolide

> <TS_ChemName_Synonyms>


> <TS_CASRN>
5508-58-7

> <CASRN_ChemName_Relationship>
primary

> <TS_Description>
single chemical compound

> <ChemNote>
stereochem

> <STRUCTURE_Shown>
tested chemical

> <STRUCTURE_Formula>
C20H30O5

> <STRUCTURE_MW>
350.4492

> <STRUCTURE_ChemType>
defined organic

> <STRUCTURE_DefinedOrganicForm>
parent

> <STRUCTURE_IUPAC>
(3E,4S)-4-hydroxy-3-{2-[(1R,4aS,5R,6R,8aS)-6-hydroxy-5-(hydroxymethyl)-5,8a-dimethyl-2-methylidenedecahydronaphthalen-1-yl]ethylidene}dihydrofuran-2(3H)-one

> <STRUCTURE_SMILES>
O[C@@H]3COC(=O)\C3=C\C[C@@H]1C(=C)CC[C@@H]2[C@](C)(CO)[C@H](O)CC[C@@]12C

> <STRUCTURE_SMILES_Desalt>
O[C@@H]3COC(=O)\C3=C\C[C@@H]1C(=C)CC[C@@H]2[C@](C)(CO)[C@H](O)CC[C@@]12C

> <Substance_modify_yyyymmdd>
20110825

$$$$
