55096-26-9
ChemmineR-0915142007XD

 25 30  0  0  1  0  0  0  0  0  1 V2000
    2.2643   -3.8735    0.0000 C   0  0  0  0  0  0  0  0  0  0  0  0
    3.3394   -4.5001    0.0000 C   0  0  0  0  0  0  0  0  0  0  0  0
    2.2643   -2.5776    0.0000 C   0  0  0  0  0  0  0  0  0  0  0  0
    1.1393   -4.5428    0.0000 C   0  0  0  0  0  0  0  0  0  0  0  0
    1.1393   -1.9723    0.0000 C   0  0  0  0  0  0  0  0  0  0  0  0
    0.3560   -3.1899    0.0000 O   0  0  0  0  0  0  0  0  0  0  0  0
    4.4645   -3.8735    0.0000 C   0  0  0  0  0  0  0  0  0  0  0  0
    5.1053   -4.4716    0.0000 N   0  0  0  0  0  0  0  0  0  0  0  0
    3.3394   -1.9510    0.0000 C   0  0  0  0  0  0  0  0  0  0  0  0
    4.4645   -2.5776    0.0000 C   0  0  0  0  0  0  0  0  0  0  0  0
    1.1393   -5.8458    0.0000 C   0  0  0  0  0  0  0  0  0  0  0  0
    2.2785   -5.1694    0.0000 C   0  0  0  0  0  0  0  0  0  0  0  0
    3.3394   -5.8102    0.0000 C   0  0  0  0  0  0  0  0  0  0  0  0
    6.3371   -4.4716    0.0000 C   0  0  0  0  0  0  0  0  0  0  0  0
    1.1393   -0.6551    0.0000 C   0  0  0  0  0  0  0  0  0  0  0  0
    4.7137   -5.1694    0.0000 C   0  0  0  0  0  0  0  0  0  0  0  0
    6.3371   -3.1543    0.0000 C   0  0  0  0  0  0  0  0  0  0  0  0
    7.1203   -2.0151    0.0000 C   0  0  0  0  0  0  0  0  0  0  0  0
    5.4186   -2.0151    0.0000 C   0  0  0  0  0  0  0  0  0  0  0  0
    2.2785   -6.4795    0.0000 C   0  0  0  0  0  0  0  0  0  0  0  0
    3.3394   -0.6551    0.0000 C   0  0  0  0  0  0  0  0  0  0  0  0
    3.3394   -3.2825    0.0000 O   0  0  0  0  0  0  0  0  0  0  0  0
    2.2785   -0.0214    0.0000 C   0  0  0  0  0  0  0  0  0  0  0  0
    0.0498   -6.5294    0.0000 C   0  0  0  0  0  0  0  0  0  0  0  0
    0.0000    0.0000    0.0000 O   0  0  0  0  0  0  0  0  0  0  0  0
  1  2  1  0  0  0  0
  1  3  1  0  0  0  0
  1  4  1  0  0  0  0
  1 12  1  1  0  0  0
  2  7  1  0  0  0  0
  2 13  1  0  0  0  0
  2 22  1  1  0  0  0
  3  5  1  0  0  0  0
  3  9  2  0  0  0  0
  4  6  1  6  0  0  0
  4 11  1  0  0  0  0
  5 15  2  0  0  0  0
  5  6  1  0  0  0  0
  7  8  1  1  0  0  0
  7 10  1  0  0  0  0
  8 16  1  0  0  0  0
  8 14  1  0  0  0  0
  9 10  1  0  0  0  0
  9 21  1  0  0  0  0
 11 20  1  0  0  0  0
 11 24  2  0  0  0  0
 12 16  1  0  0  0  0
 13 20  1  0  0  0  0
 14 17  1  0  0  0  0
 15 25  1  0  0  0  0
 15 23  1  0  0  0  0
 17 18  1  0  0  0  0
 17 19  1  0  0  0  0
 18 19  1  0  0  0  0
 21 23  2  0  0  0  0
M  END
> <ID>
3003

> <Formula>
C21H25NO3

> <FW>
339.4281

> <DSSTox_CID>
3347

> <DSSTox_RID>
76985

> <DSSTox_GSID>
23347

> <DSSTox_FileID_Sort>
1669

> <TS_ChemName>
Nalmefene

> <TS_ChemName_Synonyms>


> <TS_CASRN>
55096-26-9

> <CASRN_ChemName_Relationship>
primary

> <TS_Description>
single chemical compound

> <ChemNote>
stereochem

> <STRUCTURE_Shown>
tested chemical

> <STRUCTURE_Formula>
C21H25NO3

> <STRUCTURE_MW>
339.4281

> <STRUCTURE_ChemType>
defined organic

> <STRUCTURE_DefinedOrganicForm>
parent

> <STRUCTURE_IUPAC>
(5alpha)-17-(cyclopropylmethyl)-6-methylidene-4,5-epoxymorphinan-3,14-diol

> <STRUCTURE_SMILES>
C=C1CC[C@@]6(O)[C@H]3Cc5ccc(O)c4O[C@@H]1[C@]6(CCN3CC2CC2)c45

> <STRUCTURE_SMILES_Desalt>
C=C1CC[C@@]6(O)[C@H]3Cc5ccc(O)c4O[C@@H]1[C@]6(CCN3CC2CC2)c45

> <Substance_modify_yyyymmdd>
20080429

$$$$
