55096-75-8
ChemmineR-0915142007XD

 28 28  0  0  1  0  0  0  0  0  1 V2000
    4.7735   -7.9559    0.0000 Cl   0  0  0  0  0  0  0  0  0  0  0  0
    5.3384   -3.6836    0.0000 C    0  0  0  0  0  0  0  0  0  0  0  0
    1.1616   -6.1738    0.0000 C    0  0  0  0  0  0  0  0  0  0  0  0
    0.0000   -6.8421    0.0000 C    0  0  0  0  0  0  0  0  0  0  0  0
    2.3311   -6.8421    0.0000 O    0  0  0  0  0  0  0  0  0  0  0  0
    1.1616   -4.8372    0.0000 O    0  0  0  0  0  0  0  0  0  0  0  0
    2.3311   -4.1530    0.0000 C    0  0  0  0  0  0  0  0  0  0  0  0
    1.6628   -2.9914    0.0000 H    0  0  0  0  0  0  0  0  0  0  0  0
    3.4926   -3.4926    0.0000 C    0  0  0  0  0  0  0  0  0  0  0  0
    2.8164   -2.3311    0.0000 C    0  0  0  0  0  0  0  0  0  0  0  0
    1.4718   -2.3311    0.0000 C    0  0  0  0  0  0  0  0  0  0  0  0
    0.8115   -1.1616    0.0000 C    0  0  0  0  0  0  0  0  0  0  0  0
    1.4718    0.0000    0.0000 C    0  0  0  0  0  0  0  0  0  0  0  0
    2.8164    0.0000    0.0000 C    0  0  0  0  0  0  0  0  0  0  0  0
    3.4926   -1.1616    0.0000 C    0  0  0  0  0  0  0  0  0  0  0  0
    4.6542   -2.8164    0.0000 C    0  0  0  0  0  0  0  0  0  0  0  0
    4.6542   -1.4718    0.0000 C    0  0  0  0  0  0  0  0  0  0  0  0
    5.8237   -0.8115    0.0000 C    0  0  0  0  0  0  0  0  0  0  0  0
    6.9853   -1.4718    0.0000 C    0  0  0  0  0  0  0  0  0  0  0  0
    6.9853   -2.8164    0.0000 C    0  0  0  0  0  0  0  0  0  0  0  0
    5.8237   -3.4926    0.0000 C    0  0  0  0  0  0  0  0  0  0  0  0
    4.1530   -4.6383    0.0000 C    0  0  0  0  0  0  0  0  0  0  0  0
    5.4975   -4.6383    0.0000 C    0  0  0  0  0  0  0  0  0  0  0  0
    5.4975   -5.9828    0.0000 H    0  0  0  0  0  0  0  0  0  0  0  0
    6.8421   -4.6383    0.0000 N    0  0  0  0  0  0  0  0  0  0  0  0
    7.5183   -5.8078    0.0000 C    0  0  0  0  0  0  0  0  0  0  0  0
    3.0073   -5.3225    0.0000 C    0  0  0  0  0  0  0  0  0  0  0  0
    4.3519   -5.3225    0.0000 C    0  0  0  0  0  0  0  0  0  0  0  0
  2 23  1  0  0  0  0
  3  4  1  0  0  0  0
  3  5  2  0  0  0  0
  3  6  1  0  0  0  0
  7  6  1  6  0  0  0
  7  8  1  1  0  0  0
  7  9  1  0  0  0  0
  7 27  1  0  0  0  0
  9 10  1  0  0  0  0
  9 16  1  0  0  0  0
  9 22  1  0  0  0  0
 10 11  1  0  0  0  0
 10 15  2  0  0  0  0
 11 12  2  0  0  0  0
 12 13  1  0  0  0  0
 13 14  2  0  0  0  0
 14 15  1  0  0  0  0
 16 17  1  0  0  0  0
 16 21  2  0  0  0  0
 17 18  2  0  0  0  0
 18 19  1  0  0  0  0
 19 20  2  0  0  0  0
 20 21  1  0  0  0  0
 22 23  1  0  0  0  0
 23 24  1  1  0  0  0
 23 25  1  1  0  0  0
 25 26  1  0  0  0  0
 27 28  1  0  0  0  0
M  END
> <ID>
13909

> <Formula>
C22H30ClNO2

> <FW>
375.9321 (36.4609+339.4712)

> <DSSTox_CID>
28846

> <DSSTox_RID>
83115

> <DSSTox_GSID>
48920

> <DSSTox_FileID_Sort>
7792

> <TS_ChemName>
L-alpha-Acetyl-N-normethadol hydrochloride

> <TS_ChemName_Synonyms>
(-)-?-Acetyl-N-normethadol hydrochloride

> <TS_CASRN>
55096-75-8

> <CASRN_ChemName_Relationship>
primary

> <TS_Description>
single chemical compound

> <ChemNote>
stereochem

> <STRUCTURE_Shown>
tested chemical

> <STRUCTURE_Formula>
C22H30ClNO2

> <STRUCTURE_MW>
375.9321

> <STRUCTURE_ChemType>
defined organic

> <STRUCTURE_DefinedOrganicForm>
complex

> <STRUCTURE_IUPAC>
(3S)-6-(methylamino)-4,4-diphenylheptan-3-yl acetate hydrochloride (1:1)

> <STRUCTURE_SMILES>
Cl.C[C@@H](NC)CC(c1ccccc1)(c2ccccc2)[C@@H](OC(C)=O)CC

> <STRUCTURE_SMILES_Desalt>
C[C@@H](NC)CC(c1ccccc1)(c2ccccc2)[C@@H](OC(C)=O)CC

> <Substance_modify_yyyymmdd>
20111204

$$$$
