551-16-6
ChemmineR-0915142007XD

 16 17  0  0  1  0  0  0  0  0  1 V2000
    2.5080   -2.4401    0.0000 N   0  0  0  0  0  0  0  0  0  0  0  0
    2.5080   -1.0417    0.0000 C   0  0  0  0  0  0  0  0  0  0  0  0
    1.0757   -2.4401    0.0000 C   0  0  0  0  0  0  0  0  0  0  0  0
    3.8385   -2.8647    0.0000 C   0  0  0  0  0  0  0  0  0  0  0  0
    1.0757   -1.0417    0.0000 C   0  0  0  0  0  0  0  0  0  0  0  0
    3.8725   -0.6171    0.0000 S   0  0  0  0  0  0  0  0  0  0  0  0
    4.6538   -1.7041    0.0000 C   0  0  0  0  0  0  0  0  0  0  0  0
    4.2801   -4.2122    0.0000 C   0  0  0  0  0  0  0  0  0  0  0  0
    0.2887   -3.3459    0.0000 O   0  0  0  0  0  0  0  0  0  0  0  0
    0.0000   -1.0417    0.0000 N   0  0  0  0  0  0  0  0  0  0  0  0
    5.6615   -4.5349    0.0000 O   0  0  0  0  0  0  0  0  0  0  0  0
    3.3573   -5.2878    0.0000 O   0  0  0  0  0  0  0  0  0  0  0  0
    5.5256   -2.8307    0.0000 C   0  0  0  0  0  0  0  0  0  0  0  0
    5.4577   -0.5831    0.0000 C   0  0  0  0  0  0  0  0  0  0  0  0
    2.5080   -0.0510    0.0000 H   0  0  0  0  0  0  0  0  0  0  0  0
    1.0757    0.0000    0.0000 H   0  0  0  0  0  0  0  0  0  0  0  0
  1  2  1  0  0  0  0
  1  3  1  0  0  0  0
  1  4  1  0  0  0  0
  2  6  1  0  0  0  0
  2 15  1  6  0  0  0
  2  5  1  0  0  0  0
  3  5  1  0  0  0  0
  3  9  2  0  0  0  0
  4  7  1  0  0  0  0
  4  8  1  6  0  0  0
  5 10  1  1  0  0  0
  5 16  1  6  0  0  0
  6  7  1  0  0  0  0
  7 13  1  0  0  0  0
  7 14  1  0  0  0  0
  8 11  2  0  0  0  0
  8 12  1  0  0  0  0
M  END
> <ID>
11404

> <Formula>
C8H12N2O3S

> <FW>
216.2575

> <DSSTox_CID>
26097

> <DSSTox_RID>
81336

> <DSSTox_GSID>
46097

> <DSSTox_FileID_Sort>
6017

> <TS_ChemName>
6-Aminopenicillanic acid

> <TS_ChemName_Synonyms>


> <TS_CASRN>
551-16-6

> <CASRN_ChemName_Relationship>
primary

> <TS_Description>
single chemical compound

> <ChemNote>
stereochem

> <STRUCTURE_Shown>
tested chemical

> <STRUCTURE_Formula>
C8H12N2O3S

> <STRUCTURE_MW>
216.2575

> <STRUCTURE_ChemType>
defined organic

> <STRUCTURE_DefinedOrganicForm>
parent

> <STRUCTURE_IUPAC>
(2S,5R,6R)-6-amino-3,3-dimethyl-7-oxo-4-thia-1-azabicyclo[3.2.0]heptane-2-carboxylic acid

> <STRUCTURE_SMILES>
OC(=O)[C@@H]1N2C(=O)[C@@H](N)[C@H]2SC1(C)C

> <STRUCTURE_SMILES_Desalt>
OC(=O)[C@@H]1N2C(=O)[C@@H](N)[C@H]2SC1(C)C

> <Substance_modify_yyyymmdd>
20110819

$$$$
