551-11-1
ChemmineR-0915142007XD

 25 25  0  0  1  0  0  0  0  0  1 V2000
    2.0203   -7.3262    0.0000 C   0  0  0  0  0  0  0  0  0  0  0  0
    3.1192   -7.9812    0.0000 C   0  0  0  0  0  0  0  0  0  0  0  0
    0.0000   -6.7268    0.0000 C   0  0  0  0  0  0  0  0  0  0  0  0
    2.0203   -6.0164    0.0000 C   0  0  0  0  0  0  0  0  0  0  0  0
    0.7326   -7.7037    0.0000 C   0  0  0  0  0  0  0  0  0  0  0  0
    0.7326   -5.6279    0.0000 C   0  0  0  0  0  0  0  0  0  0  0  0
    4.2736   -7.3262    0.0000 C   0  0  0  0  0  0  0  0  0  0  0  0
    7.8147   -1.3542    0.0000 C   0  0  0  0  0  0  0  0  0  0  0  0
    8.9913   -2.0425    0.0000 O   0  0  0  0  0  0  0  0  0  0  0  0
    4.2736   -6.0719    0.0000 C   0  0  0  0  0  0  0  0  0  0  0  0
    5.4725   -5.4170    0.0000 C   0  0  0  0  0  0  0  0  0  0  0  0
    0.3108   -4.3402    0.0000 O   0  0  0  0  0  0  0  0  0  0  0  0
    0.2775   -9.0246    0.0000 O   0  0  0  0  0  0  0  0  0  0  0  0
    7.8147    0.0000    0.0000 O   0  0  0  0  0  0  0  0  0  0  0  0
    3.1192   -5.3837    0.0000 C   0  0  0  0  0  0  0  0  0  0  0  0
    5.4059   -7.9812    0.0000 C   0  0  0  0  0  0  0  0  0  0  0  0
    5.4059   -9.3354    0.0000 O   0  0  0  0  0  0  0  0  0  0  0  0
    6.6491   -2.0425    0.0000 C   0  0  0  0  0  0  0  0  0  0  0  0
    5.4725   -4.0627    0.0000 C   0  0  0  0  0  0  0  0  0  0  0  0
    6.5270   -7.3262    0.0000 C   0  0  0  0  0  0  0  0  0  0  0  0
    6.6491   -3.3967    0.0000 C   0  0  0  0  0  0  0  0  0  0  0  0
    9.9459   -8.0256    0.0000 C   0  0  0  0  0  0  0  0  0  0  0  0
    7.6926   -7.9812    0.0000 C   0  0  0  0  0  0  0  0  0  0  0  0
    8.8137   -7.3262    0.0000 C   0  0  0  0  0  0  0  0  0  0  0  0
   11.1004   -7.3928    0.0000 C   0  0  0  0  0  0  0  0  0  0  0  0
  1  2  1  1  0  0  0
  1  4  1  0  0  0  0
  1  5  1  0  0  0  0
  2  7  2  0  0  0  0
  3  5  1  0  0  0  0
  3  6  1  0  0  0  0
  4  6  1  0  0  0  0
  4 15  1  6  0  0  0
  5 13  1  6  0  0  0
  6 12  1  6  0  0  0
  7 16  1  0  0  0  0
  8 18  1  0  0  0  0
  8  9  2  0  0  0  0
  8 14  1  0  0  0  0
 10 15  1  0  0  0  0
 10 11  2  0  0  0  0
 11 19  1  0  0  0  0
 16 17  1  6  0  0  0
 16 20  1  0  0  0  0
 18 21  1  0  0  0  0
 19 21  1  0  0  0  0
 20 23  1  0  0  0  0
 22 24  1  0  0  0  0
 22 25  1  0  0  0  0
 23 24  1  0  0  0  0
M  END
> <ID>
2653

> <Formula>
C20H34O5

> <FW>
354.481

> <DSSTox_CID>
2946

> <DSSTox_RID>
76800

> <DSSTox_GSID>
22946

> <DSSTox_FileID_Sort>
1484

> <TS_ChemName>
Dinoprost

> <TS_ChemName_Synonyms>
Dinoprost (Prostaglandin F2 alpha) (PGF2alpha)

> <TS_CASRN>
551-11-1

> <CASRN_ChemName_Relationship>
primary

> <TS_Description>
single chemical compound

> <ChemNote>
stereochem

> <STRUCTURE_Shown>
tested chemical

> <STRUCTURE_Formula>
C20H34O5

> <STRUCTURE_MW>
354.481

> <STRUCTURE_ChemType>
defined organic

> <STRUCTURE_DefinedOrganicForm>
parent

> <STRUCTURE_IUPAC>
(5Z,9alpha,11alpha,13E,15S)-9,11,15-trihydroxyprosta-5,13-dien-1-oic acid

> <STRUCTURE_SMILES>
O[C@H]1C[C@@H](O)[C@H](/C=C/[C@@H](O)CCCCC)[C@H]1C\C=C/CCCC(=O)O

> <STRUCTURE_SMILES_Desalt>
O[C@H]1C[C@@H](O)[C@H](/C=C/[C@@H](O)CCCCC)[C@H]1C\C=C/CCCC(=O)O

> <Substance_modify_yyyymmdd>
20080429

$$$$
