551-92-8
ChemmineR-0915142007XD

 10 10  0  0  0  0  0  0  0  0  2 V2000
    2.3044   -1.9948    0.0000 C   0  0  0  0  0  0  0  0  0  0  0  0
    3.5196   -1.4560    0.0000 N   0  0  0  0  0  0  0  0  0  0  0  0
    4.4081   -2.4420    0.0000 C   0  0  0  0  0  0  0  0  0  0  0  0
    5.7323   -2.3044    0.0000 C   0  0  0  0  0  0  0  0  0  0  0  0
    3.7432   -3.5942    0.0000 N   0  0  0  0  0  0  0  0  0  0  0  0
    2.4420   -3.3190    0.0000 C   0  0  0  0  0  0  0  0  0  0  0  0
    3.7948   -0.1548    0.0000 C   0  0  0  0  0  0  0  0  0  0  0  0
    1.1522   -1.3299    0.0000 N   0  3  0  0  0  0  0  0  0  0  0  0
    1.1522    0.0000    0.0000 O   0  0  0  0  0  0  0  0  0  0  0  0
    0.0000   -1.9948    0.0000 O   0  5  0  0  0  0  0  0  0  0  0  0
  1  2  1  0  0  0  0
  1  6  2  0  0  0  0
  1  8  1  0  0  0  0
  2  3  1  0  0  0  0
  2  7  1  0  0  0  0
  3  4  1  0  0  0  0
  3  5  2  0  0  0  0
  5  6  1  0  0  0  0
  8  9  2  0  0  0  0
  8 10  1  0  0  0  0
M  END
> <ID>
480

> <Formula>
C5H7N3O2

> <FW>
141.128

> <DSSTox_CID>
497

> <DSSTox_RID>
75623

> <DSSTox_GSID>
20497

> <DSSTox_FileID_Sort>
307

> <TS_ChemName>
1,2-Dimethyl-5-nitroimidazole

> <TS_ChemName_Synonyms>
Dimetridazole

> <TS_CASRN>
551-92-8

> <CASRN_ChemName_Relationship>
primary

> <TS_Description>
single chemical compound

> <ChemNote>


> <STRUCTURE_Shown>
tested chemical

> <STRUCTURE_Formula>
C5H7N3O2

> <STRUCTURE_MW>
141.128

> <STRUCTURE_ChemType>
defined organic

> <STRUCTURE_DefinedOrganicForm>
parent

> <STRUCTURE_IUPAC>
1,2-dimethyl-5-nitro-1H-imidazole

> <STRUCTURE_SMILES>
O=[N+]([O-])c1cnc(C)n1C

> <STRUCTURE_SMILES_Desalt>
O=[N+]([O-])c1cnc(C)n1C

> <Substance_modify_yyyymmdd>
20080429

$$$$
