551-27-9
ChemmineR-0915142007XD

 28 30  0  0  1  0  0  0  0  0  1 V2000
    9.2347   -4.7546    0.0000 N   0  0  0  0  0  0  0  0  0  0  0  0
    9.2347   -3.4193    0.0000 C   0  0  0  0  0  0  0  0  0  0  0  0
    7.8870   -4.7546    0.0000 C   0  0  0  0  0  0  0  0  0  0  0  0
    7.8870   -3.4193    0.0000 C   0  0  0  0  0  0  0  0  0  0  0  0
   10.5076   -5.1665    0.0000 C   0  0  0  0  0  0  0  0  0  0  0  0
   10.5076   -2.9826    0.0000 S   0  0  0  0  0  0  0  0  0  0  0  0
   11.3063   -4.0807    0.0000 C   0  0  0  0  0  0  0  0  0  0  0  0
   10.9444   -6.4393    0.0000 C   0  0  0  0  0  0  0  0  0  0  0  0
    6.9385   -5.7031    0.0000 O   0  0  0  0  0  0  0  0  0  0  0  0
   12.2547   -6.7264    0.0000 O   0  0  0  0  0  0  0  0  0  0  0  0
   10.0209   -7.4502    0.0000 O   0  0  0  0  0  0  0  0  0  0  0  0
   12.4794   -4.7546    0.0000 C   0  0  0  0  0  0  0  0  0  0  0  0
   12.4794   -3.4193    0.0000 C   0  0  0  0  0  0  0  0  0  0  0  0
    6.5641   -3.4193    0.0000 N   0  0  0  0  0  0  0  0  0  0  0  0
    7.8870   -2.0716    0.0000 H   0  0  0  0  0  0  0  0  0  0  0  0
    9.2347   -2.0716    0.0000 H   0  0  0  0  0  0  0  0  0  0  0  0
    5.9027   -2.2588    0.0000 C   0  0  0  0  0  0  0  0  0  0  0  0
    4.5924   -2.2588    0.0000 C   0  0  0  0  0  0  0  0  0  0  0  0
    3.9435   -1.1481    0.0000 O   0  0  0  0  0  0  0  0  0  0  0  0
    6.5641   -1.1481    0.0000 O   0  0  0  0  0  0  0  0  0  0  0  0
    2.6207   -1.1481    0.0000 C   0  0  0  0  0  0  0  0  0  0  0  0
    3.9435   -3.4193    0.0000 C   0  0  0  0  0  0  0  0  0  0  0  0
    1.9717    0.0000    0.0000 C   0  0  0  0  0  0  0  0  0  0  0  0
    1.9717   -2.2588    0.0000 C   0  0  0  0  0  0  0  0  0  0  0  0
    4.5924   -4.5550    0.0000 C   0  0  0  0  0  0  0  0  0  0  0  0
    0.6614   -2.2588    0.0000 C   0  0  0  0  0  0  0  0  0  0  0  0
    0.6614    0.0000    0.0000 C   0  0  0  0  0  0  0  0  0  0  0  0
    0.0000   -1.1481    0.0000 C   0  0  0  0  0  0  0  0  0  0  0  0
  1  2  1  0  0  0  0
  1  3  1  0  0  0  0
  1  5  1  0  0  0  0
  2  6  1  0  0  0  0
  2  4  1  0  0  0  0
  2 16  1  6  0  0  0
  3  4  1  0  0  0  0
  3  9  2  0  0  0  0
  4 14  1  1  0  0  0
  4 15  1  6  0  0  0
  5  7  1  0  0  0  0
  5  8  1  6  0  0  0
  6  7  1  0  0  0  0
  7 12  1  0  0  0  0
  7 13  1  0  0  0  0
  8 10  2  0  0  0  0
  8 11  1  0  0  0  0
 14 17  1  0  0  0  0
 17 18  1  0  0  0  0
 17 20  2  0  0  0  0
 18 19  1  0  0  0  0
 18 22  1  0  0  0  0
 19 21  1  0  0  0  0
 21 23  2  0  0  0  0
 21 24  1  0  0  0  0
 22 25  1  0  0  0  0
 23 27  1  0  0  0  0
 24 26  2  0  0  0  0
 26 28  1  0  0  0  0
 27 28  2  0  0  0  0
M  END
> <ID>
11584

> <Formula>
C18H22N2O5S

> <FW>
378.4427

> <DSSTox_CID>
26291

> <DSSTox_RID>
81517

> <DSSTox_GSID>
46291

> <DSSTox_FileID_Sort>
6198

> <TS_ChemName>
Propicillin

> <TS_ChemName_Synonyms>


> <TS_CASRN>
551-27-9

> <CASRN_ChemName_Relationship>
primary

> <TS_Description>
single chemical compound

> <ChemNote>
stereochem

> <STRUCTURE_Shown>
tested chemical

> <STRUCTURE_Formula>
C18H22N2O5S

> <STRUCTURE_MW>
378.4427

> <STRUCTURE_ChemType>
defined organic

> <STRUCTURE_DefinedOrganicForm>
parent

> <STRUCTURE_IUPAC>
(2S,5R,6R)-3,3-dimethyl-7-oxo-6-[(2-phenoxybutanoyl)amino]-4-thia-1-azabicyclo[3.2.0]heptane-2-carboxylic acid

> <STRUCTURE_SMILES>
OC(=O)[C@@H]2N3C(=O)[C@@H](NC(=O)C(CC)Oc1ccccc1)[C@H]3SC2(C)C

> <STRUCTURE_SMILES_Desalt>
OC(=O)[C@@H]2N3C(=O)[C@@H](NC(=O)C(CC)Oc1ccccc1)[C@H]3SC2(C)C

> <Substance_modify_yyyymmdd>
20110815

$$$$
