55107-14-7
ChemmineR-0915142007XD

 11 10  0  0  0  0  0  0  0  0  1 V2000
    3.4619   -1.9871    0.0000 C   0  0  0  0  0  0  0  0  0  0  0  0
    4.6181   -1.3294    0.0000 C   0  0  0  0  0  0  0  0  0  0  0  0
    2.3056   -1.3294    0.0000 C   0  0  0  0  0  0  0  0  0  0  0  0
    4.6181    0.0000    0.0000 O   0  0  0  0  0  0  0  0  0  0  0  0
    2.3056    0.0000    0.0000 O   0  0  0  0  0  0  0  0  0  0  0  0
    5.7675   -1.9871    0.0000 O   0  0  0  0  0  0  0  0  0  0  0  0
    1.1563   -1.9871    0.0000 C   0  0  0  0  0  0  0  0  0  0  0  0
    0.4985   -0.8378    0.0000 C   0  0  0  0  0  0  0  0  0  0  0  0
    1.8279   -3.1434    0.0000 C   0  0  0  0  0  0  0  0  0  0  0  0
    0.0000   -2.6656    0.0000 C   0  0  0  0  0  0  0  0  0  0  0  0
    6.9237   -1.3294    0.0000 C   0  0  0  0  0  0  0  0  0  0  0  0
  1  2  1  0  0  0  0
  1  3  1  0  0  0  0
  2  4  2  0  0  0  0
  2  6  1  0  0  0  0
  3  5  2  0  0  0  0
  3  7  1  0  0  0  0
  6 11  1  0  0  0  0
  7  8  1  0  0  0  0
  7  9  1  0  0  0  0
  7 10  1  0  0  0  0
M  END
> <ID>
9080

> <Formula>
C8H14O3

> <FW>
158.195

> <DSSTox_CID>
22149

> <DSSTox_RID>
79938

> <DSSTox_GSID>
42149

> <DSSTox_FileID_Sort>
4620

> <TS_ChemName>
Methyl 4,4,4-trimethylacetoacetate

> <TS_ChemName_Synonyms>


> <TS_CASRN>
55107-14-7

> <CASRN_ChemName_Relationship>
primary

> <TS_Description>
single chemical compound

> <ChemNote>
tautomers

> <STRUCTURE_Shown>
tested chemical

> <STRUCTURE_Formula>
C8H14O3

> <STRUCTURE_MW>
158.195

> <STRUCTURE_ChemType>
defined organic

> <STRUCTURE_DefinedOrganicForm>
parent

> <STRUCTURE_IUPAC>
methyl 4,4-dimethyl-3-oxopentanoate

> <STRUCTURE_SMILES>
CC(C)(C)C(=O)CC(=O)OC

> <STRUCTURE_SMILES_Desalt>
CC(C)(C)C(=O)CC(=O)OC

> <Substance_modify_yyyymmdd>
20080825

$$$$
