5510-99-6
ChemmineR-0915142007XD

 15 15  0  0  0  0  0  0  0  0  1 V2000
    4.6234   -1.3289    0.0000 C   0  0  0  0  0  0  0  0  0  0  0  0
    4.6234    0.0000    0.0000 O   0  0  0  0  0  0  0  0  0  0  0  0
    5.7585   -1.9933    0.0000 C   0  0  0  0  0  0  0  0  0  0  0  0
    3.4699   -1.9933    0.0000 C   0  0  0  0  0  0  0  0  0  0  0  0
    3.4699   -3.3222    0.0000 C   0  0  0  0  0  0  0  0  0  0  0  0
    5.7585   -3.3222    0.0000 C   0  0  0  0  0  0  0  0  0  0  0  0
    4.6234   -3.9959    0.0000 C   0  0  0  0  0  0  0  0  0  0  0  0
    6.9213   -1.3289    0.0000 C   0  0  0  0  0  0  0  0  0  0  0  0
    8.0748   -1.9933    0.0000 C   0  0  0  0  0  0  0  0  0  0  0  0
    9.2283   -1.3289    0.0000 C   0  0  0  0  0  0  0  0  0  0  0  0
    6.9213    0.0000    0.0000 C   0  0  0  0  0  0  0  0  0  0  0  0
    2.3071   -1.3289    0.0000 C   0  0  0  0  0  0  0  0  0  0  0  0
    1.1535   -1.9933    0.0000 C   0  0  0  0  0  0  0  0  0  0  0  0
    0.0000   -1.3289    0.0000 C   0  0  0  0  0  0  0  0  0  0  0  0
    2.3071    0.0000    0.0000 C   0  0  0  0  0  0  0  0  0  0  0  0
  1  2  1  0  0  0  0
  1  3  2  0  0  0  0
  1  4  1  0  0  0  0
  3  6  1  0  0  0  0
  3  8  1  0  0  0  0
  4  5  2  0  0  0  0
  4 12  1  0  0  0  0
  5  7  1  0  0  0  0
  6  7  2  0  0  0  0
  8  9  1  0  0  0  0
  8 11  1  0  0  0  0
  9 10  1  0  0  0  0
 12 13  1  0  0  0  0
 12 15  1  0  0  0  0
 13 14  1  0  0  0  0
M  END
> <ID>
10097

> <Formula>
C14H22O

> <FW>
206.3239

> <DSSTox_CID>
24440

> <DSSTox_RID>
80230

> <DSSTox_GSID>
44440

> <DSSTox_FileID_Sort>
4912

> <TS_ChemName>
2,6-Di(butan-2-yl)phenol

> <TS_ChemName_Synonyms>
2,6-Di(butan-2-yl)phenol (Phenol, 2,6-bis(1-methylpropyl)-)

> <TS_CASRN>
5510-99-6

> <CASRN_ChemName_Relationship>
primary

> <TS_Description>
single chemical compound

> <ChemNote>


> <STRUCTURE_Shown>
tested chemical

> <STRUCTURE_Formula>
C14H22O

> <STRUCTURE_MW>
206.3239

> <STRUCTURE_ChemType>
defined organic

> <STRUCTURE_DefinedOrganicForm>
parent

> <STRUCTURE_IUPAC>
2,6-di(butan-2-yl)phenol

> <STRUCTURE_SMILES>
Oc1c(cccc1C(C)CC)C(C)CC

> <STRUCTURE_SMILES_Desalt>
Oc1c(cccc1C(C)CC)C(C)CC

> <Substance_modify_yyyymmdd>
20091116

$$$$
