55134-13-9
ChemmineR-0915142007XD

 58 62  0  0  1  0  0  0  0  0  1 V2000
    3.4747   -0.6794    0.0000 C   0  0  0  0  0  0  0  0  0  0  0  0
    3.4747   -1.9994    0.0000 C   0  0  0  0  0  0  0  0  0  0  0  0
    2.3100    0.0000    0.0000 C   0  0  0  0  0  0  0  0  0  0  0  0
    2.3100   -2.6594    0.0000 C   0  0  0  0  0  0  0  0  0  0  0  0
    1.1647   -0.6794    0.0000 O   0  0  0  0  0  0  0  0  0  0  0  0
    1.1647   -1.9994    0.0000 C   0  0  0  0  0  0  0  0  0  0  0  0
    4.6200    0.0000    0.0000 C   0  0  0  0  0  0  0  0  0  0  0  0
    5.7848   -0.6794    0.0000 C   0  0  0  0  0  0  0  0  0  0  0  0
    4.6200   -2.6594    0.0000 O   0  0  0  0  0  0  0  0  0  0  0  0
    5.7848   -1.9994    0.0000 C   0  0  0  0  0  0  0  0  0  0  0  0
    0.0000   -2.6594    0.0000 O   0  0  0  0  0  0  0  0  0  0  0  0
    2.3100   -3.9989    0.0000 C   0  0  0  0  0  0  0  0  0  0  0  0
    1.1647   -4.6589    0.0000 C   0  0  0  0  0  0  0  0  0  0  0  0
    3.4553   -3.3389    0.0000 H   0  0  0  0  0  0  0  0  0  0  0  0
    6.9301    0.0000    0.0000 C   0  0  0  0  0  0  0  0  0  0  0  0
    6.9301   -2.6594    0.0000 C   0  0  0  0  0  0  0  0  0  0  0  0
    5.7653   -3.3583    0.0000 H   0  0  0  0  0  0  0  0  0  0  0  0
    6.9301   -3.9989    0.0000 C   0  0  0  0  0  0  0  0  0  0  0  0
    8.0754   -1.9994    0.0000 C   0  0  0  0  0  0  0  0  0  0  0  0
    9.2207   -2.6594    0.0000 C   0  0  0  0  0  0  0  0  0  0  0  0
    8.0754   -0.6794    0.0000 O   0  0  0  0  0  0  0  0  0  0  0  0
    9.2207   -3.9989    0.0000 C   0  0  0  0  0  0  0  0  0  0  0  0
   10.3854   -1.9994    0.0000 C   0  0  0  0  0  0  0  0  0  0  0  0
   11.5307   -2.6594    0.0000 C   0  0  0  0  0  0  0  0  0  0  0  0
   10.3854   -0.6794    0.0000 O   0  0  0  0  0  0  0  0  0  0  0  0
   11.5307   -3.9989    0.0000 C   0  0  0  0  0  0  0  0  0  0  0  0
   12.6954   -4.6783    0.0000 C   0  0  0  0  0  0  0  0  0  0  0  0
   12.6954   -1.9994    0.0000 C   0  0  0  0  0  0  0  0  0  0  0  0
   12.6954   -0.6794    0.0000 C   0  0  0  0  0  0  0  0  0  0  0  0
   13.8407   -2.6594    0.0000 O   0  0  0  0  0  0  0  0  0  0  0  0
   13.8407    0.0000    0.0000 C   0  0  0  0  0  0  0  0  0  0  0  0
   15.0054   -1.9994    0.0000 C   0  0  0  0  0  0  0  0  0  0  0  0
   15.0054   -0.6794    0.0000 C   0  0  0  0  0  0  0  0  0  0  0  0
   11.5307    0.0000    0.0000 C   0  0  0  0  0  0  0  0  0  0  0  0
   12.6954   -3.3389    0.0000 H   0  0  0  0  0  0  0  0  0  0  0  0
   17.2960   -1.9994    0.0000 C   0  0  0  0  0  0  0  0  0  0  0  0
   17.2960   -3.3389    0.0000 C   0  0  0  0  0  0  0  0  0  0  0  0
   16.1507   -1.3394    0.0000 C   0  0  0  0  0  0  0  0  0  0  0  0
   16.1507   -3.9989    0.0000 C   0  0  0  0  0  0  0  0  0  0  0  0
   15.0054   -3.3389    0.0000 O   0  0  0  0  0  0  0  0  0  0  0  0
   16.1507    0.0000    0.0000 C   0  0  0  0  0  0  0  0  0  0  0  0
   15.0637   -4.7753    0.0000 O   0  0  0  0  0  0  0  0  0  0  0  0
   15.4907   -6.0565    0.0000 C   0  0  0  0  0  0  0  0  0  0  0  0
   17.2378   -4.7753    0.0000 C   0  0  0  0  0  0  0  0  0  0  0  0
   16.8107   -6.0565    0.0000 C   0  0  0  0  0  0  0  0  0  0  0  0
   14.3454   -6.7359    0.0000 C   0  0  0  0  0  0  0  0  0  0  0  0
   16.0925   -7.2601    0.0000 C   0  0  0  0  0  0  0  0  0  0  0  0
   17.4319   -7.2601    0.0000 C   0  0  0  0  0  0  0  0  0  0  0  0
   15.4131   -8.4248    0.0000 O   0  0  0  0  0  0  0  0  0  0  0  0
   18.0725   -8.4248    0.0000 C   0  0  0  0  0  0  0  0  0  0  0  0
   16.0925   -9.5701    0.0000 C   0  0  0  0  0  0  0  0  0  0  0  0
   17.4319   -9.5701    0.0000 C   0  0  0  0  0  0  0  0  0  0  0  0
   16.8302   -6.3865    0.0000 H   0  0  0  0  0  0  0  0  0  0  0  0
   15.4131  -10.7348    0.0000 C   0  0  0  0  0  0  0  0  0  0  0  0
   18.0725  -10.7348    0.0000 C   0  0  0  0  0  0  0  0  0  0  0  0
   18.5966   -8.9295    0.0000 O   0  0  0  0  0  0  0  0  0  0  0  0
   19.4119  -10.7348    0.0000 C   0  0  0  0  0  0  0  0  0  0  0  0
   18.4414   -3.9989    0.0000 O   0  0  0  0  0  0  0  0  0  0  0  0
  1  3  1  1  0  0  0
  1  7  1  0  0  0  0
  1  2  1  0  0  0  0
  2  4  1  0  0  0  0
  2  9  1  0  0  0  0
  2 14  1  6  0  0  0
  4  6  1  0  0  0  0
  4 12  1  1  0  0  0
  5  6  1  0  0  0  0
  6 11  2  0  0  0  0
  7  8  1  0  0  0  0
  8 10  1  0  0  0  0
  8 15  1  6  0  0  0
  9 10  1  0  0  0  0
 10 16  1  0  0  0  0
 10 17  1  1  0  0  0
 12 13  1  0  0  0  0
 16 18  1  6  0  0  0
 16 19  1  0  0  0  0
 19 20  1  0  0  0  0
 19 21  1  6  0  0  0
 20 22  1  1  0  0  0
 20 23  1  0  0  0  0
 23 24  1  0  0  0  0
 23 25  2  0  0  0  0
 24 26  1  1  0  0  0
 24 28  1  0  0  0  0
 26 27  1  0  0  0  0
 28 29  1  0  0  0  0
 28 30  1  0  0  0  0
 28 35  1  1  0  0  0
 29 31  1  0  0  0  0
 29 34  1  1  0  0  0
 30 32  1  0  0  0  0
 31 33  1  0  0  0  0
 32 33  1  0  0  0  0
 32 38  1  1  0  0  0
 32 40  1  0  0  0  0
 33 41  1  1  0  0  0
 36 37  1  0  0  0  0
 36 38  2  0  0  0  0
 37 39  1  0  0  0  0
 37 58  1  1  0  0  0
 39 40  1  0  0  0  0
 39 42  1  1  0  0  0
 39 44  1  0  0  0  0
 42 43  1  0  0  0  0
 43 45  1  0  0  0  0
 43 46  1  6  0  0  0
 43 47  1  0  0  0  0
 44 45  1  0  0  0  0
 47 48  1  0  0  0  0
 47 49  1  0  0  0  0
 47 53  1  6  0  0  0
 48 50  1  0  0  0  0
 49 51  1  0  0  0  0
 50 52  1  0  0  0  0
 51 52  1  0  0  0  0
 51 54  1  6  0  0  0
 52 55  1  6  0  0  0
 52 56  1  1  0  0  0
 55 57  1  0  0  0  0
M  END
> <ID>
11904

> <Formula>
C43H72O11

> <FW>
765.0252

> <DSSTox_CID>
26707

> <DSSTox_RID>
81840

> <DSSTox_GSID>
46707

> <DSSTox_FileID_Sort>
6521

> <TS_ChemName>
Narasin

> <TS_ChemName_Synonyms>


> <TS_CASRN>
55134-13-9

> <CASRN_ChemName_Relationship>
primary

> <TS_Description>
single chemical compound

> <ChemNote>
stereochem

> <STRUCTURE_Shown>
tested chemical

> <STRUCTURE_Formula>
C43H72O11

> <STRUCTURE_MW>
765.0252

> <STRUCTURE_ChemType>
defined organic

> <STRUCTURE_DefinedOrganicForm>
parent

> <STRUCTURE_IUPAC>
(2R)-2-{(2R,3S,5S,6R)-6-[(2S,3S,4S,6R)-6-{(2S,5S,7R,9S,10S,12R,15R)-2-[(2R,5R,6S)-5-ethyl-5-hydroxy-6-methyltetrahydro-2H-pyran-2-yl]-15-hydroxy-2,10,12-trimethyl-1,6,8-trioxadispiro[4.1.5.3]pentadec-13-en-9-yl}-3-hydroxy-4-methyl-5-oxooctan-2-yl]-3,5-dim

> <STRUCTURE_SMILES>
O=C(O)[C@H](CC)[C@@H]1O[C@H]([C@@H](C)C[C@@H]1C)[C@@H](C)[C@H](O)[C@H](C)C(=O)[C@H](CC)[C@H]5O[C@]4(C=C[C@@H](O)[C@]2(CC[C@](C)(O2)[C@H]3CC[C@](O)(CC)[C@H](C)O3)O4)[C@H](C)C[C@@H]5C

> <STRUCTURE_SMILES_Desalt>
O=C(O)[C@H](CC)[C@@H]1O[C@H]([C@@H](C)C[C@@H]1C)[C@@H](C)[C@H](O)[C@H](C)C(=O)[C@H](CC)[C@H]5O[C@]4(C=C[C@@H](O)[C@]2(CC[C@](C)(O2)[C@H]3CC[C@](O)(CC)[C@H](C)O3)O4)[C@H](C)C[C@@H]5C

> <Substance_modify_yyyymmdd>
20110805

$$$$
