552-22-7
ChemmineR-0915142007XD

 24 25  0  0  0  0  0  0  0  0  1 V2000
    4.6471   -3.4455    0.0000 C   0  0  0  0  0  0  0  0  0  0  0  0
    5.9764   -3.4455    0.0000 C   0  0  0  0  0  0  0  0  0  0  0  0
    6.6463   -2.3076    0.0000 C   0  0  0  0  0  0  0  0  0  0  0  0
    3.9878   -4.6152    0.0000 C   0  0  0  0  0  0  0  0  0  0  0  0
    2.6585   -4.6152    0.0000 C   0  0  0  0  0  0  0  0  0  0  0  0
    7.9756   -2.3076    0.0000 C   0  0  0  0  0  0  0  0  0  0  0  0
    6.6463   -4.6152    0.0000 C   0  0  0  0  0  0  0  0  0  0  0  0
    3.9878   -2.3076    0.0000 C   0  0  0  0  0  0  0  0  0  0  0  0
    8.6349   -3.4455    0.0000 C   0  0  0  0  0  0  0  0  0  0  0  0
    1.9886   -3.4455    0.0000 C   0  0  0  0  0  0  0  0  0  0  0  0
    2.6585   -2.3076    0.0000 C   0  0  0  0  0  0  0  0  0  0  0  0
    7.9756   -4.6152    0.0000 C   0  0  0  0  0  0  0  0  0  0  0  0
    1.9886   -5.7531    0.0000 C   0  0  0  0  0  0  0  0  0  0  0  0
    8.6349   -1.1591    0.0000 C   0  0  0  0  0  0  0  0  0  0  0  0
    0.6593   -3.4455    0.0000 O   0  0  0  0  0  0  0  0  0  0  0  0
    9.9642   -3.4455    0.0000 O   0  0  0  0  0  0  0  0  0  0  0  0
    0.0000   -2.3076    0.0000 I   0  0  0  0  0  0  0  0  0  0  0  0
   10.6341   -4.6152    0.0000 I   0  0  0  0  0  0  0  0  0  0  0  0
    4.6471   -1.1591    0.0000 C   0  0  0  0  0  0  0  0  0  0  0  0
    5.9764   -5.7531    0.0000 C   0  0  0  0  0  0  0  0  0  0  0  0
    0.6593   -5.7531    0.0000 C   0  0  0  0  0  0  0  0  0  0  0  0
    9.9642   -1.1591    0.0000 C   0  0  0  0  0  0  0  0  0  0  0  0
    2.6585   -6.9228    0.0000 C   0  0  0  0  0  0  0  0  0  0  0  0
    7.9756    0.0000    0.0000 C   0  0  0  0  0  0  0  0  0  0  0  0
  1  2  1  0  0  0  0
  1  4  2  0  0  0  0
  1  8  1  0  0  0  0
  2  3  2  0  0  0  0
  2  7  1  0  0  0  0
  3  6  1  0  0  0  0
  4  5  1  0  0  0  0
  5 13  1  0  0  0  0
  5 10  2  0  0  0  0
  6 14  1  0  0  0  0
  6  9  2  0  0  0  0
  7 12  2  0  0  0  0
  7 20  1  0  0  0  0
  8 11  2  0  0  0  0
  8 19  1  0  0  0  0
  9 12  1  0  0  0  0
  9 16  1  0  0  0  0
 10 11  1  0  0  0  0
 10 15  1  0  0  0  0
 13 21  1  0  0  0  0
 13 23  1  0  0  0  0
 14 22  1  0  0  0  0
 14 24  1  0  0  0  0
 15 17  1  0  0  0  0
 16 18  1  0  0  0  0
M  END
> <ID>
11391

> <Formula>
C20H24I2O2

> <FW>
550.2123

> <DSSTox_CID>
26081

> <DSSTox_RID>
81323

> <DSSTox_GSID>
46081

> <DSSTox_FileID_Sort>
6004

> <TS_ChemName>
Thymol iodide

> <TS_ChemName_Synonyms>


> <TS_CASRN>
552-22-7

> <CASRN_ChemName_Relationship>
primary

> <TS_Description>
single chemical compound

> <ChemNote>


> <STRUCTURE_Shown>
tested chemical

> <STRUCTURE_Formula>
C20H24I2O2

> <STRUCTURE_MW>
550.2123

> <STRUCTURE_ChemType>
defined organic

> <STRUCTURE_DefinedOrganicForm>
parent

> <STRUCTURE_IUPAC>
2,2'-dimethyl-5,5'-di(propan-2-yl)biphenyl-4,4'-diyl dihypoiodite

> <STRUCTURE_SMILES>
IOc1cc(C)c(cc1C(C)C)c2cc(C(C)C)c(OI)cc2C

> <STRUCTURE_SMILES_Desalt>
IOc1cc(C)c(cc1C(C)C)c2cc(C(C)C)c(OI)cc2C

> <Substance_modify_yyyymmdd>
20110819

$$$$
