552-79-4
ChemmineR-0915142007XD

 13 13  0  0  1  0  0  0  0  0  1 V2000
    3.4562   -1.3314    0.0000 C   0  0  0  0  0  0  0  0  0  0  0  0
    2.3041   -2.0006    0.0000 C   0  0  0  0  0  0  0  0  0  0  0  0
    4.6083   -2.0006    0.0000 C   0  0  0  0  0  0  0  0  0  0  0  0
    2.3041   -3.3320    0.0000 C   0  0  0  0  0  0  0  0  0  0  0  0
    1.1521   -1.3314    0.0000 C   0  0  0  0  0  0  0  0  0  0  0  0
    0.0000   -2.0006    0.0000 C   0  0  0  0  0  0  0  0  0  0  0  0
    1.1521   -3.9874    0.0000 C   0  0  0  0  0  0  0  0  0  0  0  0
    0.0000   -3.3320    0.0000 C   0  0  0  0  0  0  0  0  0  0  0  0
    4.6083   -3.3320    0.0000 C   0  0  0  0  0  0  0  0  0  0  0  0
    5.7604   -1.3314    0.0000 N   0  0  0  0  0  0  0  0  0  0  0  0
    6.8986   -2.0006    0.0000 C   0  0  0  0  0  0  0  0  0  0  0  0
    3.4562    0.0000    0.0000 O   0  0  0  0  0  0  0  0  0  0  0  0
    5.7604    0.0000    0.0000 C   0  0  0  0  0  0  0  0  0  0  0  0
  1  2  1  0  0  0  0
  1  3  1  0  0  0  0
  1 12  1  1  0  0  0
  2  4  1  0  0  0  0
  2  5  2  0  0  0  0
  3  9  1  1  0  0  0
  3 10  1  0  0  0  0
  4  7  2  0  0  0  0
  5  6  1  0  0  0  0
  6  8  2  0  0  0  0
  7  8  1  0  0  0  0
 10 11  1  0  0  0  0
 10 13  1  0  0  0  0
M  END
> <ID>
11345

> <Formula>
C11H17NO

> <FW>
179.2588

> <DSSTox_CID>
25992

> <DSSTox_RID>
81277

> <DSSTox_GSID>
45992

> <DSSTox_FileID_Sort>
5958

> <TS_ChemName>
Methylephedrine

> <TS_ChemName_Synonyms>


> <TS_CASRN>
552-79-4

> <CASRN_ChemName_Relationship>
primary

> <TS_Description>
single chemical compound

> <ChemNote>
stereochem

> <STRUCTURE_Shown>
tested chemical

> <STRUCTURE_Formula>
C11H17NO

> <STRUCTURE_MW>
179.2588

> <STRUCTURE_ChemType>
defined organic

> <STRUCTURE_DefinedOrganicForm>
parent

> <STRUCTURE_IUPAC>
(1R,2S)-2-(dimethylamino)-1-phenylpropan-1-ol

> <STRUCTURE_SMILES>
O[C@@H]([C@H](C)N(C)C)c1ccccc1

> <STRUCTURE_SMILES_Desalt>
O[C@@H]([C@H](C)N(C)C)c1ccccc1

> <Substance_modify_yyyymmdd>
20110824

$$$$
