552-94-3
ChemmineR-0915142007XD

 19 20  0  0  0  0  0  0  0  0  1 V2000
    0.0000   -1.9906    0.0000 C   0  0  0  0  0  0  0  0  0  0  0  0
    0.0000   -0.6609    0.0000 C   0  0  0  0  0  0  0  0  0  0  0  0
    1.1525    0.0000    0.0000 C   0  0  0  0  0  0  0  0  0  0  0  0
    2.3049   -0.6609    0.0000 C   0  0  0  0  0  0  0  0  0  0  0  0
    2.3049   -1.9906    0.0000 C   0  0  0  0  0  0  0  0  0  0  0  0
    3.4574   -2.6595    0.0000 O   0  0  0  0  0  0  0  0  0  0  0  0
    4.6018   -1.9906    0.0000 C   0  0  0  0  0  0  0  0  0  0  0  0
    4.6018   -0.6609    0.0000 O   0  0  0  0  0  0  0  0  0  0  0  0
    5.7543   -2.6595    0.0000 C   0  0  0  0  0  0  0  0  0  0  0  0
    6.9067   -1.9906    0.0000 C   0  0  0  0  0  0  0  0  0  0  0  0
    6.9067   -0.6609    0.0000 O   0  0  0  0  0  0  0  0  0  0  0  0
    8.0592   -2.6595    0.0000 C   0  0  0  0  0  0  0  0  0  0  0  0
    8.0592   -3.9893    0.0000 C   0  0  0  0  0  0  0  0  0  0  0  0
    6.9067   -4.6501    0.0000 C   0  0  0  0  0  0  0  0  0  0  0  0
    5.7543   -3.9893    0.0000 C   0  0  0  0  0  0  0  0  0  0  0  0
    1.1525   -2.6595    0.0000 C   0  0  0  0  0  0  0  0  0  0  0  0
    1.1525   -3.9893    0.0000 C   0  0  0  0  0  0  0  0  0  0  0  0
    2.3049   -4.6501    0.0000 O   0  0  0  0  0  0  0  0  0  0  0  0
    0.0000   -4.6501    0.0000 O   0  0  0  0  0  0  0  0  0  0  0  0
  1  2  2  0  0  0  0
  1 16  1  0  0  0  0
  2  3  1  0  0  0  0
  3  4  2  0  0  0  0
  4  5  1  0  0  0  0
  5  6  1  0  0  0  0
  5 16  2  0  0  0  0
  6  7  1  0  0  0  0
  7  8  2  0  0  0  0
  7  9  1  0  0  0  0
  9 10  2  0  0  0  0
  9 15  1  0  0  0  0
 10 11  1  0  0  0  0
 10 12  1  0  0  0  0
 12 13  2  0  0  0  0
 13 14  1  0  0  0  0
 14 15  2  0  0  0  0
 16 17  1  0  0  0  0
 17 18  2  0  0  0  0
 17 19  1  0  0  0  0
M  END
> <ID>
3194

> <Formula>
C14H10O5

> <FW>
258.2262

> <DSSTox_CID>
3572

> <DSSTox_RID>
77088

> <DSSTox_GSID>
23572

> <DSSTox_FileID_Sort>
1771

> <TS_ChemName>
Salsalate

> <TS_ChemName_Synonyms>


> <TS_CASRN>
552-94-3

> <CASRN_ChemName_Relationship>
primary

> <TS_Description>
single chemical compound

> <ChemNote>


> <STRUCTURE_Shown>
tested chemical

> <STRUCTURE_Formula>
C14H10O5

> <STRUCTURE_MW>
258.2262

> <STRUCTURE_ChemType>
defined organic

> <STRUCTURE_DefinedOrganicForm>
parent

> <STRUCTURE_IUPAC>
2-[(2-hydroxybenzoyl)oxy]benzoic acid

> <STRUCTURE_SMILES>
O=C(Oc1ccccc1C(=O)O)c2ccccc2O

> <STRUCTURE_SMILES_Desalt>
O=C(Oc1ccccc1C(=O)O)c2ccccc2O

> <Substance_modify_yyyymmdd>
20080429

$$$$
