552-45-4
ChemmineR-0915142007XD

  9  9  0  0  0  0  0  0  0  0  1 V2000
    2.3050   -1.9823    0.0000 C    0  0  0  0  0  0  0  0  0  0  0  0
    1.1525   -2.6553    0.0000 C    0  0  0  0  0  0  0  0  0  0  0  0
    0.0000   -1.9823    0.0000 C    0  0  0  0  0  0  0  0  0  0  0  0
    0.0000   -0.6546    0.0000 C    0  0  0  0  0  0  0  0  0  0  0  0
    1.1525    0.0000    0.0000 C    0  0  0  0  0  0  0  0  0  0  0  0
    2.3050   -0.6546    0.0000 C    0  0  0  0  0  0  0  0  0  0  0  0
    3.4574   -2.6553    0.0000 C    0  0  0  0  0  0  0  0  0  0  0  0
    4.6099   -1.9823    0.0000 Cl   0  0  0  0  0  0  0  0  0  0  0  0
    3.4574    0.0000    0.0000 C    0  0  0  0  0  0  0  0  0  0  0  0
  1  2  2  0  0  0  0
  1  6  1  0  0  0  0
  1  7  1  0  0  0  0
  2  3  1  0  0  0  0
  3  4  2  0  0  0  0
  4  5  1  0  0  0  0
  5  6  2  0  0  0  0
  6  9  1  0  0  0  0
  7  8  1  0  0  0  0
M  END
> <ID>
10098

> <Formula>
C8H9Cl

> <FW>
140.6101

> <DSSTox_CID>
24441

> <DSSTox_RID>
80231

> <DSSTox_GSID>
44441

> <DSSTox_FileID_Sort>
4913

> <TS_ChemName>
1-(Chloromethyl)-2-methylbenzene

> <TS_ChemName_Synonyms>
Benzene, 1-(chloromethyl)-2-methyl-

> <TS_CASRN>
552-45-4

> <CASRN_ChemName_Relationship>
primary

> <TS_Description>
single chemical compound

> <ChemNote>


> <STRUCTURE_Shown>
tested chemical

> <STRUCTURE_Formula>
C8H9Cl

> <STRUCTURE_MW>
140.6101

> <STRUCTURE_ChemType>
defined organic

> <STRUCTURE_DefinedOrganicForm>
parent

> <STRUCTURE_IUPAC>
1-(chloromethyl)-2-methylbenzene

> <STRUCTURE_SMILES>
Cc1ccccc1CCl

> <STRUCTURE_SMILES_Desalt>
Cc1ccccc1CCl

> <Substance_modify_yyyymmdd>
20091116

$$$$
