552-30-7
ChemmineR-0915142007XD

 14 15  0  0  0  0  0  0  0  0  1 V2000
    4.6038    0.0000    0.0000 O   0  0  0  0  0  0  0  0  0  0  0  0
    4.8816   -1.2985    0.0000 C   0  0  0  0  0  0  0  0  0  0  0  0
    6.0968   -1.8402    0.0000 O   0  0  0  0  0  0  0  0  0  0  0  0
    5.9579   -3.1595    0.0000 C   0  0  0  0  0  0  0  0  0  0  0  0
    6.9440   -4.0483    0.0000 O   0  0  0  0  0  0  0  0  0  0  0  0
    4.6525   -3.4373    0.0000 C   0  0  0  0  0  0  0  0  0  0  0  0
    3.9928   -4.5900    0.0000 C   0  0  0  0  0  0  0  0  0  0  0  0
    2.6595   -4.5900    0.0000 C   0  0  0  0  0  0  0  0  0  0  0  0
    1.9929   -3.4373    0.0000 C   0  0  0  0  0  0  0  0  0  0  0  0
    2.6595   -2.2846    0.0000 C   0  0  0  0  0  0  0  0  0  0  0  0
    3.9928   -2.2846    0.0000 C   0  0  0  0  0  0  0  0  0  0  0  0
    0.6666   -3.4373    0.0000 C   0  0  0  0  0  0  0  0  0  0  0  0
    0.0000   -4.5900    0.0000 O   0  0  0  0  0  0  0  0  0  0  0  0
    0.0000   -2.2846    0.0000 O   0  0  0  0  0  0  0  0  0  0  0  0
  1  2  2  0  0  0  0
  2  3  1  0  0  0  0
  2 11  1  0  0  0  0
  3  4  1  0  0  0  0
  4  5  2  0  0  0  0
  4  6  1  0  0  0  0
  6  7  2  0  0  0  0
  6 11  1  0  0  0  0
  7  8  1  0  0  0  0
  8  9  2  0  0  0  0
  9 10  1  0  0  0  0
  9 12  1  0  0  0  0
 10 11  2  0  0  0  0
 12 13  2  0  0  0  0
 12 14  1  0  0  0  0
M  END
> <ID>
4611

> <Formula>
C9H4O5

> <FW>
192.1251

> <DSSTox_CID>
6235

> <DSSTox_RID>
78070

> <DSSTox_GSID>
26235

> <DSSTox_FileID_Sort>
2753

> <TS_ChemName>
Trimellitic anhydride

> <TS_ChemName_Synonyms>
5-Isobenzofurancarboxylic acid, 1,3-dihydro-1,3-dioxo-; 1,2,4-Benzenetricarboxylic anhydride

> <TS_CASRN>
552-30-7

> <CASRN_ChemName_Relationship>
primary

> <TS_Description>
single chemical compound

> <ChemNote>


> <STRUCTURE_Shown>
tested chemical

> <STRUCTURE_Formula>
C9H4O5

> <STRUCTURE_MW>
192.1251

> <STRUCTURE_ChemType>
defined organic

> <STRUCTURE_DefinedOrganicForm>
parent

> <STRUCTURE_IUPAC>
1,3-dioxo-1,3-dihydro-2-benzofuran-5-carboxylic acid

> <STRUCTURE_SMILES>
O=C(O)c1ccc2C(=O)OC(=O)c2c1

> <STRUCTURE_SMILES_Desalt>
O=C(O)c1ccc2C(=O)OC(=O)c2c1

> <Substance_modify_yyyymmdd>
20080429

$$$$
