55219-65-3
ChemmineR-0915142007XD

 20 21  0  0  0  0  0  0  0  0  1 V2000
    5.7521   -3.3293    0.0000 C    0  0  0  0  0  0  0  0  0  0  0  0
    6.9141   -2.6618    0.0000 C    0  0  0  0  0  0  0  0  0  0  0  0
    6.9141   -1.3268    0.0000 C    0  0  0  0  0  0  0  0  0  0  0  0
    8.2409   -1.3268    0.0000 C    0  0  0  0  0  0  0  0  0  0  0  0
    8.0678   -3.3293    0.0000 O    0  0  0  0  0  0  0  0  0  0  0  0
    4.5984   -2.6618    0.0000 O    0  0  0  0  0  0  0  0  0  0  0  0
    3.4447   -3.3293    0.0000 C    0  0  0  0  0  0  0  0  0  0  0  0
    3.4447   -4.6643    0.0000 C    0  0  0  0  0  0  0  0  0  0  0  0
    2.2910   -2.6618    0.0000 C    0  0  0  0  0  0  0  0  0  0  0  0
    2.2910   -5.3236    0.0000 C    0  0  0  0  0  0  0  0  0  0  0  0
    1.1372   -3.3293    0.0000 C    0  0  0  0  0  0  0  0  0  0  0  0
    1.1372   -4.6643    0.0000 C    0  0  0  0  0  0  0  0  0  0  0  0
    0.0000   -5.3236    0.0000 Cl   0  0  0  0  0  0  0  0  0  0  0  0
    5.5791   -1.3268    0.0000 C    0  0  0  0  0  0  0  0  0  0  0  0
    6.9141    0.0000    0.0000 C    0  0  0  0  0  0  0  0  0  0  0  0
    5.7521   -4.6643    0.0000 N    0  0  0  0  0  0  0  0  0  0  0  0
    6.8317   -5.4472    0.0000 N    0  0  0  0  0  0  0  0  0  0  0  0
    6.4114   -6.6998    0.0000 C    0  0  0  0  0  0  0  0  0  0  0  0
    5.0846   -6.6998    0.0000 N    0  0  0  0  0  0  0  0  0  0  0  0
    4.6808   -5.4472    0.0000 C    0  0  0  0  0  0  0  0  0  0  0  0
  1  2  1  0  0  0  0
  1  6  1  0  0  0  0
  1 16  1  0  0  0  0
  2  3  1  0  0  0  0
  2  5  1  0  0  0  0
  3  4  1  0  0  0  0
  3 14  1  0  0  0  0
  3 15  1  0  0  0  0
  6  7  1  0  0  0  0
  7  8  2  0  0  0  0
  7  9  1  0  0  0  0
  8 10  1  0  0  0  0
  9 11  2  0  0  0  0
 10 12  2  0  0  0  0
 11 12  1  0  0  0  0
 12 13  1  0  0  0  0
 16 17  1  0  0  0  0
 16 20  1  0  0  0  0
 17 18  2  0  0  0  0
 18 19  1  0  0  0  0
 19 20  2  0  0  0  0
M  END
> <ID>
6475

> <Formula>
C14H18ClN3O2

> <FW>
295.7646

> <DSSTox_CID>
12493

> <DSSTox_RID>
78956

> <DSSTox_GSID>
32493

> <DSSTox_FileID_Sort>
3638

> <TS_ChemName>
Triadimenol

> <TS_ChemName_Synonyms>


> <TS_CASRN>
55219-65-3

> <CASRN_ChemName_Relationship>
primary

> <TS_Description>
single chemical compound

> <ChemNote>
mixture of A (1S,2S), B (1S,2R) isomers (7:3); structure shown without stereochem

> <STRUCTURE_Shown>
tested chemical

> <STRUCTURE_Formula>
C14H18ClN3O2

> <STRUCTURE_MW>
295.7646

> <STRUCTURE_ChemType>
defined organic

> <STRUCTURE_DefinedOrganicForm>
parent

> <STRUCTURE_IUPAC>
1-(4-chlorophenoxy)-3,3-dimethyl-1-(1H-1,2,4-triazol-1-yl)butan-2-ol

> <STRUCTURE_SMILES>
CC(C)(C)C(O)C(Oc1ccc(Cl)cc1)n2cncn2

> <STRUCTURE_SMILES_Desalt>
CC(C)(C)C(O)C(Oc1ccc(Cl)cc1)n2cncn2

> <Substance_modify_yyyymmdd>
20080429

$$$$
