5522-43-0
ChemmineR-0915142007XD

 19 22  0  0  0  0  0  0  0  0  2 V2000
    6.9107   -3.9916    0.0000 O   0  0  0  0  0  0  0  0  0  0  0  0
    6.9107   -2.6611    0.0000 N   0  3  0  0  0  0  0  0  0  0  0  0
    5.7576   -1.9918    0.0000 C   0  0  0  0  0  0  0  0  0  0  0  0
    5.7576   -0.6612    0.0000 C   0  0  0  0  0  0  0  0  0  0  0  0
    4.6045    0.0000    0.0000 C   0  0  0  0  0  0  0  0  0  0  0  0
    3.4594   -0.6612    0.0000 C   0  0  0  0  0  0  0  0  0  0  0  0
    3.4594   -1.9918    0.0000 C   0  0  0  0  0  0  0  0  0  0  0  0
    2.3063   -2.6611    0.0000 C   0  0  0  0  0  0  0  0  0  0  0  0
    2.3063   -3.9916    0.0000 C   0  0  0  0  0  0  0  0  0  0  0  0
    3.4594   -4.6528    0.0000 C   0  0  0  0  0  0  0  0  0  0  0  0
    4.6045   -3.9916    0.0000 C   0  0  0  0  0  0  0  0  0  0  0  0
    4.6045   -2.6611    0.0000 C   0  0  0  0  0  0  0  0  0  0  0  0
    1.1531   -4.6528    0.0000 C   0  0  0  0  0  0  0  0  0  0  0  0
    0.0000   -3.9916    0.0000 C   0  0  0  0  0  0  0  0  0  0  0  0
    0.0000   -2.6611    0.0000 C   0  0  0  0  0  0  0  0  0  0  0  0
    1.1531   -1.9918    0.0000 C   0  0  0  0  0  0  0  0  0  0  0  0
    1.1531   -0.6612    0.0000 C   0  0  0  0  0  0  0  0  0  0  0  0
    2.3063    0.0000    0.0000 C   0  0  0  0  0  0  0  0  0  0  0  0
    8.0639   -1.9918    0.0000 O   0  5  0  0  0  0  0  0  0  0  0  0
  1  2  2  0  0  0  0
  2  3  1  0  0  0  0
  2 19  1  0  0  0  0
  3  4  2  0  0  0  0
  3 12  1  0  0  0  0
  4  5  1  0  0  0  0
  5  6  2  0  0  0  0
  6  7  1  0  0  0  0
  6 18  1  0  0  0  0
  7  8  2  0  0  0  0
  7 12  1  0  0  0  0
  8  9  1  0  0  0  0
  8 16  1  0  0  0  0
  9 10  2  0  0  0  0
  9 13  1  0  0  0  0
 10 11  1  0  0  0  0
 11 12  2  0  0  0  0
 13 14  2  0  0  0  0
 14 15  1  0  0  0  0
 15 16  2  0  0  0  0
 16 17  1  0  0  0  0
 17 18  2  0  0  0  0
M  END
> <ID>
947

> <Formula>
C16H9NO2

> <FW>
247.2482

> <DSSTox_CID>
983

> <DSSTox_RID>
75905

> <DSSTox_GSID>
20983

> <DSSTox_FileID_Sort>
589

> <TS_ChemName>
1-Nitropyrene

> <TS_ChemName_Synonyms>


> <TS_CASRN>
5522-43-0

> <CASRN_ChemName_Relationship>
primary

> <TS_Description>
single chemical compound

> <ChemNote>


> <STRUCTURE_Shown>
tested chemical

> <STRUCTURE_Formula>
C16H9NO2

> <STRUCTURE_MW>
247.2482

> <STRUCTURE_ChemType>
defined organic

> <STRUCTURE_DefinedOrganicForm>
parent

> <STRUCTURE_IUPAC>
1-nitropyrene

> <STRUCTURE_SMILES>
[O-][N+](=O)c4ccc1ccc2cccc3ccc4c1c23

> <STRUCTURE_SMILES_Desalt>
[O-][N+](=O)c4ccc1ccc2cccc3ccc4c1c23

> <Substance_modify_yyyymmdd>
20080429

$$$$
