55242-55-2
ChemmineR-0915142007XD

 22 23  0  0  0  0  0  0  0  0  1 V2000
    9.1969   -3.3396    0.0000 C   0  0  0  0  0  0  0  0  0  0  0  0
    9.1969   -2.0090    0.0000 C   0  0  0  0  0  0  0  0  0  0  0  0
    8.0228   -3.9918    0.0000 N   0  0  0  0  0  0  0  0  0  0  0  0
    6.9009   -2.0090    0.0000 N   0  0  0  0  0  0  0  0  0  0  0  0
    6.9009   -3.3396    0.0000 C   0  0  0  0  0  0  0  0  0  0  0  0
    8.0228   -1.3306    0.0000 C   0  0  0  0  0  0  0  0  0  0  0  0
   10.4492   -3.7570    0.0000 N   0  0  0  0  0  0  0  0  0  0  0  0
   10.4492   -1.6046    0.0000 N   0  0  0  0  0  0  0  0  0  0  0  0
   11.2319   -2.6612    0.0000 C   0  0  0  0  0  0  0  0  0  0  0  0
    5.7399   -3.9918    0.0000 O   0  0  0  0  0  0  0  0  0  0  0  0
    8.0228    0.0000    0.0000 O   0  0  0  0  0  0  0  0  0  0  0  0
    5.7399   -1.3306    0.0000 C   0  0  0  0  0  0  0  0  0  0  0  0
    8.0228   -5.3224    0.0000 C   0  0  0  0  0  0  0  0  0  0  0  0
    0.0000   -2.0090    0.0000 C   0  0  0  0  0  0  0  0  0  0  0  0
    1.1349   -1.3306    0.0000 C   0  0  0  0  0  0  0  0  0  0  0  0
   10.8536   -0.3261    0.0000 C   0  0  0  0  0  0  0  0  0  0  0  0
    2.2960   -2.0090    0.0000 C   0  0  0  0  0  0  0  0  0  0  0  0
    1.1349    0.0000    0.0000 O   0  0  0  0  0  0  0  0  0  0  0  0
    4.6050   -2.0090    0.0000 C   0  0  0  0  0  0  0  0  0  0  0  0
   12.1451   -0.0652    0.0000 C   0  0  0  0  0  0  0  0  0  0  0  0
    3.4439   -1.3306    0.0000 C   0  0  0  0  0  0  0  0  0  0  0  0
   13.0452   -1.0436    0.0000 C   0  0  0  0  0  0  0  0  0  0  0  0
  1  2  2  0  0  0  0
  1  3  1  0  0  0  0
  1  7  1  0  0  0  0
  2  6  1  0  0  0  0
  2  8  1  0  0  0  0
  3  5  1  0  0  0  0
  3 13  1  0  0  0  0
  4  5  1  0  0  0  0
  4 12  1  0  0  0  0
  4  6  1  0  0  0  0
  5 10  2  0  0  0  0
  6 11  2  0  0  0  0
  7  9  2  0  0  0  0
  8 16  1  0  0  0  0
  8  9  1  0  0  0  0
 12 19  1  0  0  0  0
 14 15  1  0  0  0  0
 15 17  1  0  0  0  0
 15 18  2  0  0  0  0
 16 20  1  0  0  0  0
 17 21  1  0  0  0  0
 19 21  1  0  0  0  0
 20 22  1  0  0  0  0
M  END
> <ID>
10806

> <Formula>
C15H22N4O3

> <FW>
306.3602

> <DSSTox_CID>
25189

> <DSSTox_RID>
80736

> <DSSTox_GSID>
45189

> <DSSTox_FileID_Sort>
5417

> <TS_ChemName>
Propentofylline

> <TS_ChemName_Synonyms>


> <TS_CASRN>
55242-55-2

> <CASRN_ChemName_Relationship>
primary

> <TS_Description>
single chemical compound

> <ChemNote>


> <STRUCTURE_Shown>
tested chemical

> <STRUCTURE_Formula>
C15H22N4O3

> <STRUCTURE_MW>
306.3602

> <STRUCTURE_ChemType>
defined organic

> <STRUCTURE_DefinedOrganicForm>
parent

> <STRUCTURE_IUPAC>
3-methyl-1-(5-oxohexyl)-7-propyl-3,7-dihydro-1H-purine-2,6-dione

> <STRUCTURE_SMILES>
CC(=O)CCCCN2C(=O)c1n(cnc1N(C)C2=O)CCC

> <STRUCTURE_SMILES_Desalt>
CC(=O)CCCCN2C(=O)c1n(cnc1N(C)C2=O)CCC

> <Substance_modify_yyyymmdd>
20100107

$$$$
