55268-75-2
ChemmineR-0915142007XD

 31 33  0  0  1  0  0  0  0  0  1 V2000
    7.0491   -6.0281    0.0000 N   0  0  0  0  0  0  0  0  0  0  0  0
    5.7484   -6.0281    0.0000 C   0  0  0  0  0  0  0  0  0  0  0  0
    5.7484   -4.6994    0.0000 C   0  0  0  0  0  0  0  0  0  0  0  0
    7.0491   -4.6994    0.0000 C   0  0  0  0  0  0  0  0  0  0  0  0
    8.1820   -6.6715    0.0000 C   0  0  0  0  0  0  0  0  0  0  0  0
    4.4057   -4.6994    0.0000 N   0  0  0  0  0  0  0  0  0  0  0  0
    3.7344   -3.5945    0.0000 C   0  0  0  0  0  0  0  0  0  0  0  0
    2.3777   -3.5945    0.0000 C   0  0  0  0  0  0  0  0  0  0  0  0
    8.1820   -4.0560    0.0000 S   0  0  0  0  0  0  0  0  0  0  0  0
    9.3709   -6.0281    0.0000 C   0  0  0  0  0  0  0  0  0  0  0  0
    1.7343   -4.6994    0.0000 C   0  0  0  0  0  0  0  0  0  0  0  0
    8.1820   -8.0142    0.0000 C   0  0  0  0  0  0  0  0  0  0  0  0
   12.8255   -6.7554    0.0000 C   0  0  0  0  0  0  0  0  0  0  0  0
    9.3709   -4.6854    0.0000 C   0  0  0  0  0  0  0  0  0  0  0  0
    1.7903   -2.3497    0.0000 N   0  0  0  0  0  0  0  0  0  0  0  0
    4.8113   -6.9372    0.0000 O   0  0  0  0  0  0  0  0  0  0  0  0
    2.1539   -5.9302    0.0000 O   0  0  0  0  0  0  0  0  0  0  0  0
   10.5038   -6.7554    0.0000 C   0  0  0  0  0  0  0  0  0  0  0  0
    4.4057   -2.4196    0.0000 O   0  0  0  0  0  0  0  0  0  0  0  0
    0.3636   -4.6994    0.0000 C   0  0  0  0  0  0  0  0  0  0  0  0
   11.6646   -6.0561    0.0000 O   0  0  0  0  0  0  0  0  0  0  0  0
   13.9864   -6.1260    0.0000 O   0  0  0  0  0  0  0  0  0  0  0  0
    9.3709   -8.6855    0.0000 O   0  0  0  0  0  0  0  0  0  0  0  0
    1.0350   -6.6995    0.0000 C   0  0  0  0  0  0  0  0  0  0  0  0
    0.0000   -5.9302    0.0000 C   0  0  0  0  0  0  0  0  0  0  0  0
   12.8255   -8.1261    0.0000 N   0  0  0  0  0  0  0  0  0  0  0  0
    7.0212   -8.6855    0.0000 O   0  0  0  0  0  0  0  0  0  0  0  0
    1.2308   -1.1189    0.0000 O   0  0  0  0  0  0  0  0  0  0  0  0
    1.9441    0.0000    0.0000 C   0  0  0  0  0  0  0  0  0  0  0  0
    5.7064   -3.4267    0.0000 H   0  0  0  0  0  0  0  0  0  0  0  0
    7.0491   -3.3707    0.0000 H   0  0  0  0  0  0  0  0  0  0  0  0
  1  2  1  0  0  0  0
  1  4  1  0  0  0  0
  1  5  1  0  0  0  0
  2 16  2  0  0  0  0
  2  3  1  0  0  0  0
  3  4  1  0  0  0  0
  3  6  1  1  0  0  0
  3 30  1  6  0  0  0
  4  9  1  1  0  0  0
  4 31  1  6  0  0  0
  5 10  2  0  0  0  0
  5 12  1  0  0  0  0
  6  7  1  0  0  0  0
  7  8  1  0  0  0  0
  7 19  2  0  0  0  0
  8 11  1  0  0  0  0
  8 15  2  0  0  0  0
  9 14  1  0  0  0  0
 10 14  1  0  0  0  0
 10 18  1  0  0  0  0
 11 17  1  0  0  0  0
 11 20  2  0  0  0  0
 12 23  2  0  0  0  0
 12 27  1  0  0  0  0
 13 21  1  0  0  0  0
 13 22  2  0  0  0  0
 13 26  1  0  0  0  0
 15 28  1  0  0  0  0
 17 24  1  0  0  0  0
 18 21  1  0  0  0  0
 20 25  1  0  0  0  0
 24 25  2  0  0  0  0
 28 29  1  0  0  0  0
M  END
> <ID>
2513

> <Formula>
C16H16N4O8S

> <FW>
424.3852

> <DSSTox_CID>
2774

> <DSSTox_RID>
76724

> <DSSTox_GSID>
22774

> <DSSTox_FileID_Sort>
1408

> <TS_ChemName>
Cefuroxime

> <TS_ChemName_Synonyms>


> <TS_CASRN>
55268-75-2

> <CASRN_ChemName_Relationship>
primary

> <TS_Description>
single chemical compound

> <ChemNote>
stereochem

> <STRUCTURE_Shown>
tested chemical

> <STRUCTURE_Formula>
C16H16N4O8S

> <STRUCTURE_MW>
424.3852

> <STRUCTURE_ChemType>
defined organic

> <STRUCTURE_DefinedOrganicForm>
parent

> <STRUCTURE_IUPAC>
(6R,7R)-3-[(carbamoyloxy)methyl]-7-{[furan-2-yl(methoxyimino)acetyl]amino}-8-oxo-5-thia-1-azabicyclo[4.2.0]oct-2-ene-2-carboxylic acid

> <STRUCTURE_SMILES>
CO\N=C(\c1ccco1)C(=O)N[C@@H]3C(=O)N2C(=C(COC(N)=O)CS[C@@H]23)C(=O)O

> <STRUCTURE_SMILES_Desalt>
CO\N=C(\c1ccco1)C(=O)N[C@@H]3C(=O)N2C(=C(COC(N)=O)CS[C@@H]23)C(=O)O

> <Substance_modify_yyyymmdd>
20080429

$$$$
