55285-14-8
ChemmineR-0915142007XD

 26 27  0  0  0  0  0  0  0  0  1 V2000
    6.9117   -4.7806    0.0000 C   0  0  0  0  0  0  0  0  0  0  0  0
    6.9117   -3.4558    0.0000 O   0  0  0  0  0  0  0  0  0  0  0  0
    8.0521   -5.4372    0.0000 O   0  0  0  0  0  0  0  0  0  0  0  0
    5.7482   -5.4372    0.0000 N   0  0  0  0  0  0  0  0  0  0  0  0
    4.6078   -4.7806    0.0000 S   0  0  0  0  0  0  0  0  0  0  0  0
    3.4443   -5.4372    0.0000 N   0  0  0  0  0  0  0  0  0  0  0  0
    2.3039   -4.7806    0.0000 C   0  0  0  0  0  0  0  0  0  0  0  0
    2.3039   -3.4558    0.0000 C   0  0  0  0  0  0  0  0  0  0  0  0
    1.1404   -2.7762    0.0000 C   0  0  0  0  0  0  0  0  0  0  0  0
    1.1404   -1.4514    0.0000 C   0  0  0  0  0  0  0  0  0  0  0  0
    3.4443   -6.7619    0.0000 C   0  0  0  0  0  0  0  0  0  0  0  0
    2.3039   -7.4531    0.0000 C   0  0  0  0  0  0  0  0  0  0  0  0
    1.1404   -6.7619    0.0000 C   0  0  0  0  0  0  0  0  0  0  0  0
    0.0000   -7.4531    0.0000 C   0  0  0  0  0  0  0  0  0  0  0  0
    5.7482   -6.7619    0.0000 C   0  0  0  0  0  0  0  0  0  0  0  0
    8.2249   -2.5573    0.0000 O   0  0  0  0  0  0  0  0  0  0  0  0
    9.2155   -3.4558    0.0000 C   0  0  0  0  0  0  0  0  0  0  0  0
    8.7663   -1.3363    0.0000 C   0  0  0  0  0  0  0  0  0  0  0  0
   10.3560   -2.7762    0.0000 C   0  0  0  0  0  0  0  0  0  0  0  0
   10.0795   -1.4860    0.0000 C   0  0  0  0  0  0  0  0  0  0  0  0
    9.2155   -4.7806    0.0000 C   0  0  0  0  0  0  0  0  0  0  0  0
   10.3560   -5.4372    0.0000 C   0  0  0  0  0  0  0  0  0  0  0  0
   11.5194   -4.7806    0.0000 C   0  0  0  0  0  0  0  0  0  0  0  0
   11.5194   -3.4558    0.0000 C   0  0  0  0  0  0  0  0  0  0  0  0
    8.7663    0.0000    0.0000 C   0  0  0  0  0  0  0  0  0  0  0  0
    7.6028   -0.6796    0.0000 C   0  0  0  0  0  0  0  0  0  0  0  0
  1  2  2  0  0  0  0
  1  3  1  0  0  0  0
  1  4  1  0  0  0  0
  3 21  1  0  0  0  0
  4  5  1  0  0  0  0
  4 15  1  0  0  0  0
  5  6  1  0  0  0  0
  6  7  1  0  0  0  0
  6 11  1  0  0  0  0
  7  8  1  0  0  0  0
  8  9  1  0  0  0  0
  9 10  1  0  0  0  0
 11 12  1  0  0  0  0
 12 13  1  0  0  0  0
 13 14  1  0  0  0  0
 16 17  1  0  0  0  0
 16 18  1  0  0  0  0
 17 19  1  0  0  0  0
 17 21  2  0  0  0  0
 18 20  1  0  0  0  0
 18 25  1  0  0  0  0
 18 26  1  0  0  0  0
 19 20  1  0  0  0  0
 19 24  2  0  0  0  0
 21 22  1  0  0  0  0
 22 23  2  0  0  0  0
 23 24  1  0  0  0  0
M  END
> <ID>
3439

> <Formula>
C20H32N2O3S

> <FW>
380.5447

> <DSSTox_CID>
3950

> <DSSTox_RID>
77239

> <DSSTox_GSID>
23950

> <DSSTox_FileID_Sort>
1922

> <TS_ChemName>
Carbosulfan

> <TS_ChemName_Synonyms>


> <TS_CASRN>
55285-14-8

> <CASRN_ChemName_Relationship>
primary

> <TS_Description>
single chemical compound

> <ChemNote>


> <STRUCTURE_Shown>
tested chemical

> <STRUCTURE_Formula>
C20H32N2O3S

> <STRUCTURE_MW>
380.5447

> <STRUCTURE_ChemType>
defined organic

> <STRUCTURE_DefinedOrganicForm>
parent

> <STRUCTURE_IUPAC>
2,2-dimethyl-2,3-dihydro-1-benzofuran-7-yl [(dibutylamino)sulfanyl]methylcarbamate

> <STRUCTURE_SMILES>
CCCCN(CCCC)SN(C)C(=O)Oc1cccc2CC(C)(C)Oc12

> <STRUCTURE_SMILES_Desalt>
CCCCN(CCCC)SN(C)C(=O)Oc1cccc2CC(C)(C)Oc12

> <Substance_modify_yyyymmdd>
20080429

$$$$
