55283-68-6
ChemmineR-0915142007XD

 23 23  0  0  0  0  0  0  0  0  2 V2000
    4.6141   -4.2097    0.0000 C   0  0  0  0  0  0  0  0  0  0  0  0
    3.4744   -2.2151    0.0000 C   0  0  0  0  0  0  0  0  0  0  0  0
    4.6141   -2.8769    0.0000 C   0  0  0  0  0  0  0  0  0  0  0  0
    3.4744   -0.8824    0.0000 N   0  3  0  0  0  0  0  0  0  0  0  0
    5.7539   -4.8715    0.0000 N   0  3  0  0  0  0  0  0  0  0  0  0
    5.7539   -2.2151    0.0000 N   0  0  0  0  0  0  0  0  0  0  0  0
    1.1581   -4.8991    0.0000 C   0  0  0  0  0  0  0  0  0  0  0  0
    2.3254   -4.2097    0.0000 C   0  0  0  0  0  0  0  0  0  0  0  0
    2.3254   -2.8769    0.0000 C   0  0  0  0  0  0  0  0  0  0  0  0
    3.4744   -4.8715    0.0000 C   0  0  0  0  0  0  0  0  0  0  0  0
    4.6141   -0.2206    0.0000 O   0  5  0  0  0  0  0  0  0  0  0  0
    6.8936   -4.2097    0.0000 O   0  5  0  0  0  0  0  0  0  0  0  0
    6.8936   -2.8769    0.0000 C   0  0  0  0  0  0  0  0  0  0  0  0
    2.2979   -0.2114    0.0000 O   0  0  0  0  0  0  0  0  0  0  0  0
    5.7539   -6.1859    0.0000 O   0  0  0  0  0  0  0  0  0  0  0  0
    8.0517   -2.1876    0.0000 C   0  0  0  0  0  0  0  0  0  0  0  0
    0.0000   -5.5792    0.0000 F   0  0  0  0  0  0  0  0  0  0  0  0
    0.4780   -3.7317    0.0000 F   0  0  0  0  0  0  0  0  0  0  0  0
    1.8475   -6.0572    0.0000 F   0  0  0  0  0  0  0  0  0  0  0  0
    9.1915   -2.8402    0.0000 C   0  0  0  0  0  0  0  0  0  0  0  0
    5.7539   -0.8824    0.0000 C   0  0  0  0  0  0  0  0  0  0  0  0
    8.0517   -0.8548    0.0000 C   0  0  0  0  0  0  0  0  0  0  0  0
    6.7374    0.0000    0.0000 C   0  0  0  0  0  0  0  0  0  0  0  0
  1  3  2  0  0  0  0
  1  5  1  0  0  0  0
  1 10  1  0  0  0  0
  2  3  1  0  0  0  0
  2  4  1  0  0  0  0
  2  9  2  0  0  0  0
  3  6  1  0  0  0  0
  4 11  1  0  0  0  0
  4 14  2  0  0  0  0
  5 12  1  0  0  0  0
  5 15  2  0  0  0  0
  6 13  1  0  0  0  0
  6 21  1  0  0  0  0
  7  8  1  0  0  0  0
  7 17  1  0  0  0  0
  7 18  1  0  0  0  0
  7 19  1  0  0  0  0
  8 10  2  0  0  0  0
  8  9  1  0  0  0  0
 13 16  1  0  0  0  0
 16 20  2  0  0  0  0
 16 22  1  0  0  0  0
 21 23  1  0  0  0  0
M  END
> <ID>
6443

> <Formula>
C13H14F3N3O4

> <FW>
333.2632

> <DSSTox_CID>
12386

> <DSSTox_RID>
78933

> <DSSTox_GSID>
32386

> <DSSTox_FileID_Sort>
3615

> <TS_ChemName>
Ethalfluralin

> <TS_ChemName_Synonyms>


> <TS_CASRN>
55283-68-6

> <CASRN_ChemName_Relationship>
primary

> <TS_Description>
single chemical compound

> <ChemNote>


> <STRUCTURE_Shown>
tested chemical

> <STRUCTURE_Formula>
C13H14F3N3O4

> <STRUCTURE_MW>
333.2632

> <STRUCTURE_ChemType>
defined organic

> <STRUCTURE_DefinedOrganicForm>
parent

> <STRUCTURE_IUPAC>
N-ethyl-N-(2-methylprop-2-en-1-yl)-2,6-dinitro-4-(trifluoromethyl)aniline

> <STRUCTURE_SMILES>
[O-][N+](=O)c1cc(cc([N+]([O-])=O)c1N(CC(=C)C)CC)C(F)(F)F

> <STRUCTURE_SMILES_Desalt>
[O-][N+](=O)c1cc(cc([N+]([O-])=O)c1N(CC(=C)C)CC)C(F)(F)F

> <Substance_modify_yyyymmdd>
20080429

$$$$
