55290-64-7
ChemmineR-0915142007XD

 12 12  0  0  0  0  0  0  0  0  1 V2000
    1.1444   -1.1298    0.0000 S   0  0  0  0  0  0  0  0  0  0  0  0
    1.1444   -3.7822    0.0000 S   0  0  0  0  0  0  0  0  0  0  0  0
    2.2984   -3.1227    0.0000 C   0  0  0  0  0  0  0  0  0  0  0  0
    2.2984   -1.7893    0.0000 C   0  0  0  0  0  0  0  0  0  0  0  0
    0.0000   -3.1227    0.0000 C   0  0  0  0  0  0  0  0  0  0  0  0
    0.0000   -1.7893    0.0000 C   0  0  0  0  0  0  0  0  0  0  0  0
    0.4316    0.0000    0.0000 O   0  0  0  0  0  0  0  0  0  0  0  0
    2.0075   -0.1018    0.0000 O   0  0  0  0  0  0  0  0  0  0  0  0
    0.3928   -4.8489    0.0000 O   0  0  0  0  0  0  0  0  0  0  0  0
    2.0947   -4.7229    0.0000 O   0  0  0  0  0  0  0  0  0  0  0  0
    3.4524   -1.1153    0.0000 C   0  0  0  0  0  0  0  0  0  0  0  0
    3.4524   -3.7967    0.0000 C   0  0  0  0  0  0  0  0  0  0  0  0
  1  4  1  0  0  0  0
  1  6  1  0  0  0  0
  1  7  2  0  0  0  0
  1  8  2  0  0  0  0
  2  5  1  0  0  0  0
  2  9  2  0  0  0  0
  2 10  2  0  0  0  0
  2  3  1  0  0  0  0
  3  4  2  0  0  0  0
  3 12  1  0  0  0  0
  4 11  1  0  0  0  0
  5  6  1  0  0  0  0
M  END
> <ID>
3482

> <Formula>
C6H10O4S2

> <FW>
210.2712

> <DSSTox_CID>
4052

> <DSSTox_RID>
77270

> <DSSTox_GSID>
24052

> <DSSTox_FileID_Sort>
1953

> <TS_ChemName>
Dimethipin

> <TS_ChemName_Synonyms>


> <TS_CASRN>
55290-64-7

> <CASRN_ChemName_Relationship>
primary

> <TS_Description>
single chemical compound

> <ChemNote>


> <STRUCTURE_Shown>
tested chemical

> <STRUCTURE_Formula>
C6H10O4S2

> <STRUCTURE_MW>
210.2712

> <STRUCTURE_ChemType>
defined organic

> <STRUCTURE_DefinedOrganicForm>
parent

> <STRUCTURE_IUPAC>
5,6-dimethyl-2,3-dihydro-1,4-dithiine 1,1,4,4-tetraoxide

> <STRUCTURE_SMILES>
O=S1(=O)CCS(=O)(=O)C(C)=C1C

> <STRUCTURE_SMILES_Desalt>
O=S1(=O)CCS(=O)(=O)C(C)=C1C

> <Substance_modify_yyyymmdd>
20080429

$$$$
