55297-95-5
ChemmineR-0915142007XD

 35 37  0  0  1  0  0  0  0  0  1 V2000
    9.2709   -3.5668    0.0000 C   0  0  0  0  0  0  0  0  0  0  0  0
   10.2095   -2.6137    0.0000 C   0  0  0  0  0  0  0  0  0  0  0  0
    9.2709   -4.8665    0.0000 C   0  0  0  0  0  0  0  0  0  0  0  0
   10.2095   -5.7762    0.0000 C   0  0  0  0  0  0  0  0  0  0  0  0
   11.4947   -2.6137    0.0000 C   0  0  0  0  0  0  0  0  0  0  0  0
   11.4947   -5.7762    0.0000 C   0  0  0  0  0  0  0  0  0  0  0  0
   12.4334   -3.5668    0.0000 C   0  0  0  0  0  0  0  0  0  0  0  0
   12.4334   -4.8665    0.0000 C   0  0  0  0  0  0  0  0  0  0  0  0
   13.6608   -3.1481    0.0000 C   0  0  0  0  0  0  0  0  0  0  0  0
   14.4406   -4.1878    0.0000 C   0  0  0  0  0  0  0  0  0  0  0  0
   13.6608   -5.2419    0.0000 C   0  0  0  0  0  0  0  0  0  0  0  0
   14.0652   -1.9062    0.0000 O   0  0  0  0  0  0  0  0  0  0  0  0
    2.2672   -1.9784    0.0000 N   0  0  0  0  0  0  0  0  0  0  0  0
    3.4080   -2.6137    0.0000 C   0  0  0  0  0  0  0  0  0  0  0  0
    2.2672   -0.6643    0.0000 C   0  0  0  0  0  0  0  0  0  0  0  0
    1.1552   -2.6137    0.0000 C   0  0  0  0  0  0  0  0  0  0  0  0
    1.1552    0.0000    0.0000 C   0  0  0  0  0  0  0  0  0  0  0  0
    0.0000   -1.9784    0.0000 C   0  0  0  0  0  0  0  0  0  0  0  0
    4.5344   -1.9784    0.0000 C   0  0  0  0  0  0  0  0  0  0  0  0
    5.6752   -2.6137    0.0000 S   0  0  0  0  0  0  0  0  0  0  0  0
    6.8015   -1.9784    0.0000 C   0  0  0  0  0  0  0  0  0  0  0  0
    7.9423   -2.6137    0.0000 C   0  0  0  0  0  0  0  0  0  0  0  0
    9.0543   -1.9784    0.0000 O   0  0  0  0  0  0  0  0  0  0  0  0
    7.9423   -3.9278    0.0000 O   0  0  0  0  0  0  0  0  0  0  0  0
    7.9568   -4.8665    0.0000 C   0  0  0  0  0  0  0  0  0  0  0  0
    7.3214   -5.9929    0.0000 C   0  0  0  0  0  0  0  0  0  0  0  0
    8.6066   -5.9784    0.0000 C   0  0  0  0  0  0  0  0  0  0  0  0
    9.6896   -6.9893    0.0000 O   0  0  0  0  0  0  0  0  0  0  0  0
   12.0146   -6.9893    0.0000 C   0  0  0  0  0  0  0  0  0  0  0  0
   12.0146   -1.4152    0.0000 C   0  0  0  0  0  0  0  0  0  0  0  0
   12.4334   -2.2527    0.0000 H   0  0  0  0  0  0  0  0  0  0  0  0
   12.7511   -6.1228    0.0000 C   0  0  0  0  0  0  0  0  0  0  0  0
   11.8413   -3.8556    0.0000 C   0  0  0  0  0  0  0  0  0  0  0  0
   10.9171   -4.7798    0.0000 C   0  0  0  0  0  0  0  0  0  0  0  0
   10.5416   -3.8556    0.0000 C   0  0  0  0  0  0  0  0  0  0  0  0
  1  2  1  0  0  0  0
  1  3  1  0  0  0  0
  2  5  1  0  0  0  0
  2 23  1  1  0  0  0
  3  4  1  0  0  0  0
  3 25  1  0  0  0  0
  3 27  1  1  0  0  0
  4  6  1  0  0  0  0
  4 28  1  6  0  0  0
  5  7  1  0  0  0  0
  5 30  1  1  0  0  0
  5 33  1  6  0  0  0
  6  8  1  0  0  0  0
  6 29  1  1  0  0  0
  7  9  1  0  0  0  0
  7  8  1  0  0  0  0
  7 31  1  1  0  0  0
  8 11  1  0  0  0  0
  8 32  1  6  0  0  0
  9 10  1  0  0  0  0
  9 12  2  0  0  0  0
 10 11  1  0  0  0  0
 13 14  1  0  0  0  0
 13 15  1  0  0  0  0
 13 16  1  0  0  0  0
 14 19  1  0  0  0  0
 15 17  1  0  0  0  0
 16 18  1  0  0  0  0
 19 20  1  0  0  0  0
 20 21  1  0  0  0  0
 21 22  1  0  0  0  0
 22 23  1  0  0  0  0
 22 24  2  0  0  0  0
 25 26  2  0  0  0  0
 32 34  1  0  0  0  0
 33 34  1  0  0  0  0
 33 35  1  0  0  0  0
M  END
> <ID>
11899

> <Formula>
C28H47NO4S

> <FW>
493.7421

> <DSSTox_CID>
26701

> <DSSTox_RID>
81835

> <DSSTox_GSID>
46701

> <DSSTox_FileID_Sort>
6516

> <TS_ChemName>
Tiamulin

> <TS_ChemName_Synonyms>


> <TS_CASRN>
55297-95-5

> <CASRN_ChemName_Relationship>
primary

> <TS_Description>
single chemical compound

> <ChemNote>
stereochem

> <STRUCTURE_Shown>
tested chemical

> <STRUCTURE_Formula>
C28H47NO4S

> <STRUCTURE_MW>
493.7421

> <STRUCTURE_ChemType>
defined organic

> <STRUCTURE_DefinedOrganicForm>
parent

> <STRUCTURE_IUPAC>
(3aS,4R,5S,6S,8R,9aR,10S)-6-ethenyl-5-hydroxy-4,6,9,10-tetramethyl-1-oxodecahydro-3a,9-propanocyclopenta[8]annulen-8-yl {[2-(diethylamino)ethyl]sulfanyl}acetate

> <STRUCTURE_SMILES>
CCN(CC)CCSCC(=O)O[C@@H]3C[C@@](C)(C=C)[C@@H](O)[C@H](C)[C@@]21CCC(=O)[C@H]1[C@@]3(C)C(C)CC2

> <STRUCTURE_SMILES_Desalt>
CCN(CC)CCSCC(=O)O[C@@H]3C[C@@](C)(C=C)[C@@H](O)[C@H](C)[C@@]21CCC(=O)[C@H]1[C@@]3(C)C(C)CC2

> <Substance_modify_yyyymmdd>
20110805

$$$$
