553-08-2
ChemmineR-0915142007XD

 38 38  0  0  0  0  0  0  0  0  2 V2000
   18.3970   -1.7889    0.0000 Br   0  5  0  0  0  0  0  0  0  0  0  0
    0.0000   -4.6416    0.0000 C    0  0  0  0  0  0  0  0  0  0  0  0
    1.1362   -5.3184    0.0000 C    0  0  0  0  0  0  0  0  0  0  0  0
    2.2966   -4.6416    0.0000 C    0  0  0  0  0  0  0  0  0  0  0  0
    3.4570   -5.3184    0.0000 C    0  0  0  0  0  0  0  0  0  0  0  0
    4.5932   -4.6416    0.0000 C    0  0  0  0  0  0  0  0  0  0  0  0
    5.7536   -5.3184    0.0000 C    0  0  0  0  0  0  0  0  0  0  0  0
    6.9140   -4.6416    0.0000 C    0  0  0  0  0  0  0  0  0  0  0  0
    8.0502   -5.3184    0.0000 C    0  0  0  0  0  0  0  0  0  0  0  0
    9.2106   -4.6416    0.0000 C    0  0  0  0  0  0  0  0  0  0  0  0
   10.3710   -5.3184    0.0000 C    0  0  0  0  0  0  0  0  0  0  0  0
   11.5314   -4.6416    0.0000 C    0  0  0  0  0  0  0  0  0  0  0  0
   12.6434   -5.3184    0.0000 C    0  0  0  0  0  0  0  0  0  0  0  0
   13.8038   -4.6416    0.0000 C    0  0  0  0  0  0  0  0  0  0  0  0
   14.9642   -5.3184    0.0000 C    0  0  0  0  0  0  0  0  0  0  0  0
   16.1004   -4.6416    0.0000 C    0  0  0  0  0  0  0  0  0  0  0  0
   17.2608   -5.3184    0.0000 C    0  0  0  0  0  0  0  0  0  0  0  0
   18.3970   -4.6416    0.0000 N    0  3  0  0  0  0  0  0  0  0  0  0
   17.7443   -3.5053    0.0000 C    0  0  0  0  0  0  0  0  0  0  0  0
   19.0739   -5.7778    0.0000 C    0  0  0  0  0  0  0  0  0  0  0  0
   19.5816   -3.9888    0.0000 C    0  0  0  0  0  0  0  0  0  0  0  0
   20.7178   -4.6416    0.0000 C    0  0  0  0  0  0  0  0  0  0  0  0
   21.8782   -3.9888    0.0000 N    0  0  0  0  0  0  0  0  0  0  0  0
   23.0144   -4.6416    0.0000 C    0  0  0  0  0  0  0  0  0  0  0  0
   23.0144   -5.9712    0.0000 C    0  0  0  0  0  0  0  0  0  0  0  0
   21.8782   -6.6239    0.0000 C    0  0  0  0  0  0  0  0  0  0  0  0
   21.8782   -7.9535    0.0000 C    0  0  0  0  0  0  0  0  0  0  0  0
   23.0144   -8.6304    0.0000 C    0  0  0  0  0  0  0  0  0  0  0  0
   23.0144   -9.9600    0.0000 O    0  0  0  0  0  0  0  0  0  0  0  0
   24.1748  -10.6127    0.0000 C    0  0  0  0  0  0  0  0  0  0  0  0
   24.1748   -7.9535    0.0000 C    0  0  0  0  0  0  0  0  0  0  0  0
   24.1748   -6.6239    0.0000 C    0  0  0  0  0  0  0  0  0  0  0  0
   21.8782   -2.6592    0.0000 C    0  0  0  0  0  0  0  0  0  0  0  0
   20.7178   -1.9823    0.0000 N    0  0  0  0  0  0  0  0  0  0  0  0
   20.7178   -0.6527    0.0000 C    0  0  0  0  0  0  0  0  0  0  0  0
   21.8782    0.0000    0.0000 C    0  0  0  0  0  0  0  0  0  0  0  0
   23.0144   -0.6527    0.0000 C    0  0  0  0  0  0  0  0  0  0  0  0
   23.0144   -1.9823    0.0000 N    0  0  0  0  0  0  0  0  0  0  0  0
  2  3  1  0  0  0  0
  3  4  1  0  0  0  0
  4  5  1  0  0  0  0
  5  6  1  0  0  0  0
  6  7  1  0  0  0  0
  7  8  1  0  0  0  0
  8  9  1  0  0  0  0
  9 10  1  0  0  0  0
 10 11  1  0  0  0  0
 11 12  1  0  0  0  0
 12 13  1  0  0  0  0
 13 14  1  0  0  0  0
 14 15  1  0  0  0  0
 15 16  1  0  0  0  0
 16 17  1  0  0  0  0
 17 18  1  0  0  0  0
 18 19  1  0  0  0  0
 18 20  1  0  0  0  0
 18 21  1  0  0  0  0
 21 22  1  0  0  0  0
 22 23  1  0  0  0  0
 23 24  1  0  0  0  0
 23 33  1  0  0  0  0
 24 25  1  0  0  0  0
 25 26  2  0  0  0  0
 25 32  1  0  0  0  0
 26 27  1  0  0  0  0
 27 28  2  0  0  0  0
 28 29  1  0  0  0  0
 28 31  1  0  0  0  0
 29 30  1  0  0  0  0
 31 32  2  0  0  0  0
 33 34  2  0  0  0  0
 33 38  1  0  0  0  0
 34 35  1  0  0  0  0
 35 36  2  0  0  0  0
 36 37  1  0  0  0  0
 37 38  2  0  0  0  0
M  END
> <ID>
10875

> <Formula>
C32H55BrN4O

> <FW>
591.7093 (79.9045+511.8048)

> <DSSTox_CID>
25326

> <DSSTox_RID>
80805

> <DSSTox_GSID>
45326

> <DSSTox_FileID_Sort>
5486

> <TS_ChemName>
Thonzonium bromide

> <TS_ChemName_Synonyms>


> <TS_CASRN>
553-08-2

> <CASRN_ChemName_Relationship>
primary

> <TS_Description>
single chemical compound

> <ChemNote>
ammonium; parent [25466-36-8]

> <STRUCTURE_Shown>
tested chemical

> <STRUCTURE_Formula>
C32H55BrN4O

> <STRUCTURE_MW>
591.7093

> <STRUCTURE_ChemType>
defined organic

> <STRUCTURE_DefinedOrganicForm>
salt

> <STRUCTURE_IUPAC>
N-{2-[(4-methoxybenzyl)(pyrimidin-2-yl)amino]ethyl}-N,N-dimethylhexadecan-1-aminium bromide

> <STRUCTURE_SMILES>
[Br-].COc1ccc(cc1)CN(CC[N+](C)(C)CCCCCCCCCCCCCCCC)c2ncccn2

> <STRUCTURE_SMILES_Desalt>
COc1ccc(cc1)CN(CC[N+](C)(C)CCCCCCCCCCCCCCCC)c2ncccn2

> <Substance_modify_yyyymmdd>
20100107

$$$$
