553-26-4
ChemmineR-0915142007XD

 12 13  0  0  0  0  0  0  0  0  1 V2000
    6.6447   -1.1495    0.0000 N   0  0  0  0  0  0  0  0  0  0  0  0
    5.9736   -2.3057    0.0000 C   0  0  0  0  0  0  0  0  0  0  0  0
    5.9736    0.0000    0.0000 C   0  0  0  0  0  0  0  0  0  0  0  0
    4.6447    0.0000    0.0000 C   0  0  0  0  0  0  0  0  0  0  0  0
    4.6447   -2.3057    0.0000 C   0  0  0  0  0  0  0  0  0  0  0  0
    3.9868   -1.1495    0.0000 C   0  0  0  0  0  0  0  0  0  0  0  0
    0.0000   -1.1495    0.0000 N   0  0  0  0  0  0  0  0  0  0  0  0
    0.6578    0.0000    0.0000 C   0  0  0  0  0  0  0  0  0  0  0  0
    0.6578   -2.3057    0.0000 C   0  0  0  0  0  0  0  0  0  0  0  0
    1.9868   -2.3057    0.0000 C   0  0  0  0  0  0  0  0  0  0  0  0
    1.9868    0.0000    0.0000 C   0  0  0  0  0  0  0  0  0  0  0  0
    2.6579   -1.1495    0.0000 C   0  0  0  0  0  0  0  0  0  0  0  0
  1  2  2  0  0  0  0
  1  3  1  0  0  0  0
  2  5  1  0  0  0  0
  3  4  2  0  0  0  0
  4  6  1  0  0  0  0
  5  6  2  0  0  0  0
  6 12  1  0  0  0  0
  7  8  2  0  0  0  0
  7  9  1  0  0  0  0
  8 11  1  0  0  0  0
  9 10  2  0  0  0  0
 10 12  1  0  0  0  0
 11 12  2  0  0  0  0
M  END
> <ID>
4990

> <Formula>
C10H8N2

> <FW>
156.1839

> <DSSTox_CID>
7200

> <DSSTox_RID>
78346

> <DSSTox_GSID>
27200

> <DSSTox_FileID_Sort>
3029

> <TS_ChemName>
4,4'-Bipyridine

> <TS_ChemName_Synonyms>


> <TS_CASRN>
553-26-4

> <CASRN_ChemName_Relationship>
primary

> <TS_Description>
single chemical compound

> <ChemNote>


> <STRUCTURE_Shown>
tested chemical

> <STRUCTURE_Formula>
C10H8N2

> <STRUCTURE_MW>
156.1839

> <STRUCTURE_ChemType>
defined organic

> <STRUCTURE_DefinedOrganicForm>
parent

> <STRUCTURE_IUPAC>
4,4'-bipyridine

> <STRUCTURE_SMILES>
c1cc(ccn1)c2ccncc2

> <STRUCTURE_SMILES_Desalt>
c1cc(ccn1)c2ccncc2

> <Substance_modify_yyyymmdd>
20080429

$$$$
