553-17-3
ChemmineR-0915142007XD

 20 21  0  0  0  0  0  0  0  0  1 V2000
    4.6294   -2.6573    0.0000 C   0  0  0  0  0  0  0  0  0  0  0  0
    3.4721   -1.9814    0.0000 O   0  0  0  0  0  0  0  0  0  0  0  0
    5.7868   -1.9814    0.0000 O   0  0  0  0  0  0  0  0  0  0  0  0
    6.9441   -2.6573    0.0000 C   0  0  0  0  0  0  0  0  0  0  0  0
    2.3147   -2.6573    0.0000 C   0  0  0  0  0  0  0  0  0  0  0  0
    4.6294   -3.9906    0.0000 O   0  0  0  0  0  0  0  0  0  0  0  0
    8.1015   -1.9907    0.0000 C   0  0  0  0  0  0  0  0  0  0  0  0
    2.3147   -3.9720    0.0000 C   0  0  0  0  0  0  0  0  0  0  0  0
    3.4721   -4.6479    0.0000 O   0  0  0  0  0  0  0  0  0  0  0  0
    8.1015   -0.6574    0.0000 O   0  0  0  0  0  0  0  0  0  0  0  0
    1.1574   -1.9907    0.0000 C   0  0  0  0  0  0  0  0  0  0  0  0
    6.9441   -3.9720    0.0000 C   0  0  0  0  0  0  0  0  0  0  0  0
    1.1574   -4.6294    0.0000 C   0  0  0  0  0  0  0  0  0  0  0  0
    9.2589   -2.6666    0.0000 C   0  0  0  0  0  0  0  0  0  0  0  0
    3.4721   -5.9812    0.0000 C   0  0  0  0  0  0  0  0  0  0  0  0
    9.2589    0.0000    0.0000 C   0  0  0  0  0  0  0  0  0  0  0  0
    0.0000   -2.6666    0.0000 C   0  0  0  0  0  0  0  0  0  0  0  0
    8.1015   -4.6294    0.0000 C   0  0  0  0  0  0  0  0  0  0  0  0
    9.2589   -3.9535    0.0000 C   0  0  0  0  0  0  0  0  0  0  0  0
    0.0000   -3.9535    0.0000 C   0  0  0  0  0  0  0  0  0  0  0  0
  1  2  1  0  0  0  0
  1  3  1  0  0  0  0
  1  6  2  0  0  0  0
  2  5  1  0  0  0  0
  3  4  1  0  0  0  0
  4  7  1  0  0  0  0
  4 12  2  0  0  0  0
  5  8  1  0  0  0  0
  5 11  2  0  0  0  0
  7 10  1  0  0  0  0
  7 14  2  0  0  0  0
  8  9  1  0  0  0  0
  8 13  2  0  0  0  0
  9 15  1  0  0  0  0
 10 16  1  0  0  0  0
 11 17  1  0  0  0  0
 12 18  1  0  0  0  0
 13 20  1  0  0  0  0
 14 19  1  0  0  0  0
 17 20  2  0  0  0  0
 18 19  2  0  0  0  0
M  END
> <ID>
11652

> <Formula>
C15H14O5

> <FW>
274.2687

> <DSSTox_CID>
26405

> <DSSTox_RID>
81585

> <DSSTox_GSID>
46405

> <DSSTox_FileID_Sort>
6266

> <TS_ChemName>
Guaiacol carbonate

> <TS_ChemName_Synonyms>


> <TS_CASRN>
553-17-3

> <CASRN_ChemName_Relationship>
primary

> <TS_Description>
single chemical compound

> <ChemNote>


> <STRUCTURE_Shown>
tested chemical

> <STRUCTURE_Formula>
C15H14O5

> <STRUCTURE_MW>
274.2687

> <STRUCTURE_ChemType>
defined organic

> <STRUCTURE_DefinedOrganicForm>
parent

> <STRUCTURE_IUPAC>
bis(2-methoxyphenyl) carbonate

> <STRUCTURE_SMILES>
COc2ccccc2OC(=O)Oc1ccccc1OC

> <STRUCTURE_SMILES_Desalt>
COc2ccccc2OC(=O)Oc1ccccc1OC

> <Substance_modify_yyyymmdd>
20110813

$$$$
