553-70-8
ChemmineR-0915142007XD

 19 18  0  0  0  0  0  0  0  0  2 V2000
    3.4476   -1.4274    0.0000 C    0  0  0  0  0  0  0  0  0  0  0  0
    3.4476   -0.0968    0.0000 O    0  0  0  0  0  0  0  0  0  0  0  0
    2.2984   -2.0928    0.0000 C    0  0  0  0  0  0  0  0  0  0  0  0
    4.6090   -2.0928    0.0000 O    0  5  0  0  0  0  0  0  0  0  0  0
    1.1492   -1.4274    0.0000 C    0  0  0  0  0  0  0  0  0  0  0  0
    2.2984   -3.4235    0.0000 C    0  0  0  0  0  0  0  0  0  0  0  0
    0.0000   -2.0928    0.0000 C    0  0  0  0  0  0  0  0  0  0  0  0
    1.1492   -4.0888    0.0000 C    0  0  0  0  0  0  0  0  0  0  0  0
    0.0000   -3.4235    0.0000 C    0  0  0  0  0  0  0  0  0  0  0  0
    6.1332   -0.5807    0.0000 Mg   0  2  0  0  0  0  0  0  0  0  0  0
    8.6494   -1.3307    0.0000 C    0  0  0  0  0  0  0  0  0  0  0  0
    8.6494    0.0000    0.0000 O    0  0  0  0  0  0  0  0  0  0  0  0
    9.7986   -1.9960    0.0000 C    0  0  0  0  0  0  0  0  0  0  0  0
    7.4880   -1.9960    0.0000 O    0  5  0  0  0  0  0  0  0  0  0  0
   10.9478   -1.3307    0.0000 C    0  0  0  0  0  0  0  0  0  0  0  0
    9.7986   -3.3267    0.0000 C    0  0  0  0  0  0  0  0  0  0  0  0
   12.0970   -1.9960    0.0000 C    0  0  0  0  0  0  0  0  0  0  0  0
   10.9478   -3.9920    0.0000 C    0  0  0  0  0  0  0  0  0  0  0  0
   12.0970   -3.3267    0.0000 C    0  0  0  0  0  0  0  0  0  0  0  0
  1  2  2  0  0  0  0
  1  3  1  0  0  0  0
  1  4  1  0  0  0  0
  3  5  2  0  0  0  0
  3  6  1  0  0  0  0
  5  7  1  0  0  0  0
  6  8  2  0  0  0  0
  7  9  2  0  0  0  0
  8  9  1  0  0  0  0
 11 12  2  0  0  0  0
 11 13  1  0  0  0  0
 11 14  1  0  0  0  0
 13 15  2  0  0  0  0
 13 16  1  0  0  0  0
 15 17  1  0  0  0  0
 16 18  2  0  0  0  0
 17 19  2  0  0  0  0
 18 19  1  0  0  0  0
M  END
> <ID>
10345

> <Formula>
C14H10MgO4

> <FW>
266.5318 (121.1139+24.3039+121.1139)

> <DSSTox_CID>
24693

> <DSSTox_RID>
80402

> <DSSTox_GSID>
44693

> <DSSTox_FileID_Sort>
5084

> <TS_ChemName>
Magnesium dibenzoate

> <TS_ChemName_Synonyms>
Magnesium dibenzoate (Benzoic acid, magnesium salt)

> <TS_CASRN>
553-70-8

> <CASRN_ChemName_Relationship>
primary

> <TS_Description>
single chemical compound

> <ChemNote>
parent [65-85-0]

> <STRUCTURE_Shown>
tested chemical

> <STRUCTURE_Formula>
C14H10MgO4

> <STRUCTURE_MW>
266.5318

> <STRUCTURE_ChemType>
defined organic

> <STRUCTURE_DefinedOrganicForm>
salt

> <STRUCTURE_IUPAC>
magnesium dibenzoate

> <STRUCTURE_SMILES>
[Mg+2].[O-]C(=O)c1ccccc1.[O-]C(=O)c1ccccc1

> <STRUCTURE_SMILES_Desalt>
O=C(O)c1ccccc1

> <Substance_modify_yyyymmdd>
20091116

$$$$
