55335-06-3
ChemmineR-0915142007XD

 14 14  0  0  0  0  0  0  0  0  1 V2000
    2.2949   -1.3931    0.0000 N    0  0  0  0  0  0  0  0  0  0  0  0
    3.4384   -2.0453    0.0000 C    0  0  0  0  0  0  0  0  0  0  0  0
    1.1595   -2.0453    0.0000 C    0  0  0  0  0  0  0  0  0  0  0  0
    2.2949   -4.0423    0.0000 C    0  0  0  0  0  0  0  0  0  0  0  0
    3.4384   -3.3740    0.0000 C    0  0  0  0  0  0  0  0  0  0  0  0
    1.1595   -3.3740    0.0000 C    0  0  0  0  0  0  0  0  0  0  0  0
    4.5818   -1.3931    0.0000 O    0  0  0  0  0  0  0  0  0  0  0  0
    6.8929   -1.3609    0.0000 C    0  0  0  0  0  0  0  0  0  0  0  0
    8.0524   -2.0131    0.0000 O    0  0  0  0  0  0  0  0  0  0  0  0
    0.0000   -1.3770    0.0000 Cl   0  0  0  0  0  0  0  0  0  0  0  0
    5.7253   -2.0453    0.0000 C    0  0  0  0  0  0  0  0  0  0  0  0
    0.0000   -4.0584    0.0000 Cl   0  0  0  0  0  0  0  0  0  0  0  0
    4.5818   -4.0584    0.0000 Cl   0  0  0  0  0  0  0  0  0  0  0  0
    6.8929    0.0000    0.0000 O    0  0  0  0  0  0  0  0  0  0  0  0
  1  2  1  0  0  0  0
  1  3  2  0  0  0  0
  2  5  2  0  0  0  0
  2  7  1  0  0  0  0
  3  6  1  0  0  0  0
  3 10  1  0  0  0  0
  4  6  2  0  0  0  0
  4  5  1  0  0  0  0
  5 13  1  0  0  0  0
  6 12  1  0  0  0  0
  7 11  1  0  0  0  0
  8 11  1  0  0  0  0
  8  9  2  0  0  0  0
  8 14  1  0  0  0  0
M  END
> <ID>
6476

> <Formula>
C7H4Cl3NO3

> <FW>
256.4706

> <DSSTox_CID>
12497

> <DSSTox_RID>
78957

> <DSSTox_GSID>
32497

> <DSSTox_FileID_Sort>
3639

> <TS_ChemName>
Triclopyr

> <TS_ChemName_Synonyms>
Triclopyr (Triclopyr, acid)

> <TS_CASRN>
55335-06-3

> <CASRN_ChemName_Relationship>
primary

> <TS_Description>
single chemical compound

> <ChemNote>


> <STRUCTURE_Shown>
tested chemical

> <STRUCTURE_Formula>
C7H4Cl3NO3

> <STRUCTURE_MW>
256.4706

> <STRUCTURE_ChemType>
defined organic

> <STRUCTURE_DefinedOrganicForm>
parent

> <STRUCTURE_IUPAC>
[(3,5,6-trichloropyridin-2-yl)oxy]acetic acid

> <STRUCTURE_SMILES>
Clc1cc(Cl)c(Cl)nc1OCC(=O)O

> <STRUCTURE_SMILES_Desalt>
Clc1cc(Cl)c(Cl)nc1OCC(=O)O

> <Substance_modify_yyyymmdd>
20080429

$$$$
