5534-02-1
ChemmineR-0915142007XD

 39 42  0  0  1  0  0  0  0  0  1 V2000
    6.9707   -5.7574    0.0000 C   0  0  0  0  0  0  0  0  0  0  0  0
    4.6630   -7.0897    0.0000 C   0  0  0  0  0  0  0  0  0  0  0  0
    3.4973   -7.7440    0.0000 C   0  0  0  0  0  0  0  0  0  0  0  0
    6.9707   -7.0897    0.0000 C   0  0  0  0  0  0  0  0  0  0  0  0
    5.8050   -7.7440    0.0000 C   0  0  0  0  0  0  0  0  0  0  0  0
    8.2198   -5.3411    0.0000 C   0  0  0  0  0  0  0  0  0  0  0  0
    3.4973   -9.0881    0.0000 C   0  0  0  0  0  0  0  0  0  0  0  0
    4.6630   -5.7574    0.0000 C   0  0  0  0  0  0  0  0  0  0  0  0
    5.8050   -5.0913    0.0000 C   0  0  0  0  0  0  0  0  0  0  0  0
    9.0287   -6.4236    0.0000 C   0  0  0  0  0  0  0  0  0  0  0  0
    2.3672   -7.0897    0.0000 C   0  0  0  0  0  0  0  0  0  0  0  0
    8.2436   -7.4823    0.0000 C   0  0  0  0  0  0  0  0  0  0  0  0
    2.3672   -9.7662    0.0000 C   0  0  0  0  0  0  0  0  0  0  0  0
    8.2198   -3.9731    0.0000 C   0  0  0  0  0  0  0  0  0  0  0  0
    5.8050   -9.0881    0.0000 C   0  0  0  0  0  0  0  0  0  0  0  0
    1.2014   -7.7440    0.0000 C   0  0  0  0  0  0  0  0  0  0  0  0
    1.2014   -9.0881    0.0000 C   0  0  0  0  0  0  0  0  0  0  0  0
    4.6630   -9.7662    0.0000 C   0  0  0  0  0  0  0  0  0  0  0  0
    4.6273   -8.2436    0.0000 F   0  0  0  0  0  0  0  0  0  0  0  0
    9.3736   -3.3307    0.0000 O   0  0  0  0  0  0  0  0  0  0  0  0
    0.0000   -9.7781    0.0000 O   0  0  0  0  0  0  0  0  0  0  0  0
    9.5877   -5.3530    0.0000 O   0  0  0  0  0  0  0  0  0  0  0  0
    6.9707   -4.4132    0.0000 C   0  0  0  0  0  0  0  0  0  0  0  0
    3.4735   -5.0794    0.0000 O   0  0  0  0  0  0  0  0  0  0  0  0
    3.4973   -6.4236    0.0000 C   0  0  0  0  0  0  0  0  0  0  0  0
   10.3610   -6.4117    0.0000 C   0  0  0  0  0  0  0  0  0  0  0  0
    7.1016   -3.3307    0.0000 C   0  0  0  0  0  0  0  0  0  0  0  0
    7.1016   -1.9984    0.0000 O   0  0  0  0  0  0  0  0  0  0  0  0
    5.8050   -6.4117    0.0000 H   0  0  0  0  0  0  0  0  0  0  0  0
    6.9707   -8.4101    0.0000 H   0  0  0  0  0  0  0  0  0  0  0  0
   10.7416   -4.6749    0.0000 C   0  0  0  0  0  0  0  0  0  0  0  0
   11.8955   -5.3530    0.0000 O   0  0  0  0  0  0  0  0  0  0  0  0
   10.7416   -3.3545    0.0000 C   0  0  0  0  0  0  0  0  0  0  0  0
   11.8955   -2.6884    0.0000 C   0  0  0  0  0  0  0  0  0  0  0  0
   11.8955   -1.3561    0.0000 C   0  0  0  0  0  0  0  0  0  0  0  0
    5.9477   -1.3323    0.0000 C   0  0  0  0  0  0  0  0  0  0  0  0
    5.9477    0.0000    0.0000 O   0  0  0  0  0  0  0  0  0  0  0  0
    4.7939   -1.9746    0.0000 C   0  0  0  0  0  0  0  0  0  0  0  0
    3.6400   -1.3323    0.0000 C   0  0  0  0  0  0  0  0  0  0  0  0
  1  4  1  0  0  0  0
  1  6  1  0  0  0  0
  1  9  1  0  0  0  0
  1 23  1  1  0  0  0
  2  8  1  0  0  0  0
  2  3  1  0  0  0  0
  2 19  1  6  0  0  0
  2  5  1  0  0  0  0
  3  7  1  0  0  0  0
  3 11  1  0  0  0  0
  3 25  1  1  0  0  0
  4  5  1  0  0  0  0
  4 12  1  0  0  0  0
  4 30  1  6  0  0  0
  5 15  1  0  0  0  0
  5 29  1  1  0  0  0
  6 10  1  0  0  0  0
  6 14  1  1  0  0  0
  6 22  1  6  0  0  0
  7 13  2  0  0  0  0
  7 18  1  0  0  0  0
  8  9  1  0  0  0  0
  8 24  1  1  0  0  0
 10 26  1  1  0  0  0
 10 12  1  0  0  0  0
 11 16  2  0  0  0  0
 13 17  1  0  0  0  0
 14 20  2  0  0  0  0
 14 27  1  0  0  0  0
 15 18  1  0  0  0  0
 16 17  1  0  0  0  0
 17 21  2  0  0  0  0
 22 31  1  0  0  0  0
 27 28  1  0  0  0  0
 28 36  1  0  0  0  0
 31 32  2  0  0  0  0
 31 33  1  0  0  0  0
 33 34  1  0  0  0  0
 34 35  1  0  0  0  0
 36 37  2  0  0  0  0
 36 38  1  0  0  0  0
 38 39  1  0  0  0  0
M  END
> <ID>
2417

> <Formula>
C29H39FO7

> <FW>
518.6142

> <DSSTox_CID>
2671

> <DSSTox_RID>
76682

> <DSSTox_GSID>
22671

> <DSSTox_FileID_Sort>
1366

> <TS_ChemName>
Betamethasone butyrate propionate

> <TS_ChemName_Synonyms>


> <TS_CASRN>
5534-02-1

> <CASRN_ChemName_Relationship>
primary

> <TS_Description>
single chemical compound

> <ChemNote>
stereochem; tautomers

> <STRUCTURE_Shown>
tested chemical

> <STRUCTURE_Formula>
C29H39FO7

> <STRUCTURE_MW>
518.6142

> <STRUCTURE_ChemType>
defined organic

> <STRUCTURE_DefinedOrganicForm>
parent

> <STRUCTURE_IUPAC>
(11beta,16beta)-9-fluoro-11-hydroxy-16-methyl-3,20-dioxo-21-(propanoyloxy)pregna-1,4-dien-17-yl butanoate

> <STRUCTURE_SMILES>
CCC(=O)OCC(=O)[C@@]4(OC(=O)CCC)[C@@H](C)C[C@@H]3[C@]4(C)C[C@H](O)[C@@]2(F)[C@H]3CCC1=CC(=O)C=C[C@@]12C

> <STRUCTURE_SMILES_Desalt>
CCC(=O)OCC(=O)[C@@]4(OC(=O)CCC)[C@@H](C)C[C@@H]3[C@]4(C)C[C@H](O)[C@@]2(F)[C@H]3CCC1=CC(=O)C=C[C@@]12C

> <Substance_modify_yyyymmdd>
20080429

$$$$
