5534-09-8
ChemmineR-0915142007XD

 38 41  0  0  1  0  0  0  0  0  1 V2000
    6.9481   -5.7289    0.0000 C    0  0  0  0  0  0  0  0  0  0  0  0
    4.6400   -7.0783    0.0000 C    0  0  0  0  0  0  0  0  0  0  0  0
    3.4800   -7.7293    0.0000 C    0  0  0  0  0  0  0  0  0  0  0  0
    6.9481   -7.0783    0.0000 C    0  0  0  0  0  0  0  0  0  0  0  0
    5.7763   -7.7293    0.0000 C    0  0  0  0  0  0  0  0  0  0  0  0
    8.2146   -5.3265    0.0000 C    0  0  0  0  0  0  0  0  0  0  0  0
    3.4800   -9.0669    0.0000 C    0  0  0  0  0  0  0  0  0  0  0  0
    4.6400   -5.7289    0.0000 C    0  0  0  0  0  0  0  0  0  0  0  0
    5.7763   -5.0898    0.0000 C    0  0  0  0  0  0  0  0  0  0  0  0
    8.9840   -6.4036    0.0000 C    0  0  0  0  0  0  0  0  0  0  0  0
    2.3437   -7.0783    0.0000 C    0  0  0  0  0  0  0  0  0  0  0  0
    8.2146   -7.4808    0.0000 C    0  0  0  0  0  0  0  0  0  0  0  0
    2.3437   -9.7534    0.0000 C    0  0  0  0  0  0  0  0  0  0  0  0
    8.2146   -4.0008    0.0000 C    0  0  0  0  0  0  0  0  0  0  0  0
    5.7763   -9.0669    0.0000 C    0  0  0  0  0  0  0  0  0  0  0  0
    1.1837   -7.7293    0.0000 C    0  0  0  0  0  0  0  0  0  0  0  0
    1.1837   -9.0669    0.0000 C    0  0  0  0  0  0  0  0  0  0  0  0
    4.6400   -9.7534    0.0000 C    0  0  0  0  0  0  0  0  0  0  0  0
    4.6163   -8.1791    0.0000 Cl   0  0  0  0  0  0  0  0  0  0  0  0
    7.0428   -3.3261    0.0000 O    0  0  0  0  0  0  0  0  0  0  0  0
    0.0000   -9.7534    0.0000 O    0  0  0  0  0  0  0  0  0  0  0  0
    9.5285   -5.3265    0.0000 O    0  0  0  0  0  0  0  0  0  0  0  0
    6.9481   -4.3914    0.0000 C    0  0  0  0  0  0  0  0  0  0  0  0
    3.4681   -5.0424    0.0000 O    0  0  0  0  0  0  0  0  0  0  0  0
    3.4800   -6.4036    0.0000 C    0  0  0  0  0  0  0  0  0  0  0  0
   10.4399   -6.4036    0.0000 C    0  0  0  0  0  0  0  0  0  0  0  0
    9.3628   -3.3261    0.0000 C    0  0  0  0  0  0  0  0  0  0  0  0
    9.3628   -2.0122    0.0000 O    0  0  0  0  0  0  0  0  0  0  0  0
    5.7763   -6.4036    0.0000 H    0  0  0  0  0  0  0  0  0  0  0  0
    6.9481   -8.4040    0.0000 H    0  0  0  0  0  0  0  0  0  0  0  0
    8.2146   -1.3375    0.0000 C    0  0  0  0  0  0  0  0  0  0  0  0
    8.2146    0.0000    0.0000 O    0  0  0  0  0  0  0  0  0  0  0  0
    7.0783   -2.0122    0.0000 C    0  0  0  0  0  0  0  0  0  0  0  0
    5.9065   -1.3375    0.0000 C    0  0  0  0  0  0  0  0  0  0  0  0
   10.6767   -4.6636    0.0000 C    0  0  0  0  0  0  0  0  0  0  0  0
   11.8248   -5.3383    0.0000 O    0  0  0  0  0  0  0  0  0  0  0  0
   10.6767   -3.3261    0.0000 C    0  0  0  0  0  0  0  0  0  0  0  0
   11.8367   -2.6751    0.0000 C    0  0  0  0  0  0  0  0  0  0  0  0
  1  4  1  0  0  0  0
  1  6  1  0  0  0  0
  1  9  1  0  0  0  0
  1 23  1  1  0  0  0
  2  8  1  0  0  0  0
  2  3  1  0  0  0  0
  2 19  1  6  0  0  0
  2  5  1  0  0  0  0
  3  7  1  0  0  0  0
  3 11  1  0  0  0  0
  3 25  1  1  0  0  0
  4  5  1  0  0  0  0
  4 12  1  0  0  0  0
  4 30  1  6  0  0  0
  5 15  1  0  0  0  0
  5 29  1  1  0  0  0
  6 10  1  0  0  0  0
  6 14  1  0  0  0  0
  6 22  1  6  0  0  0
  7 13  2  0  0  0  0
  7 18  1  0  0  0  0
  8  9  1  0  0  0  0
  8 24  1  1  0  0  0
 10 26  1  1  0  0  0
 10 12  1  0  0  0  0
 11 16  2  0  0  0  0
 13 17  1  0  0  0  0
 14 20  2  0  0  0  0
 14 27  1  0  0  0  0
 15 18  1  0  0  0  0
 16 17  1  0  0  0  0
 17 21  2  0  0  0  0
 22 35  1  0  0  0  0
 27 28  1  0  0  0  0
 28 31  1  0  0  0  0
 31 32  2  0  0  0  0
 31 33  1  0  0  0  0
 33 34  1  0  0  0  0
 35 36  2  0  0  0  0
 35 37  1  0  0  0  0
 37 38  1  0  0  0  0
M  END
> <ID>
13721

> <Formula>
C28H37ClO7

> <FW>
521.0422

> <DSSTox_CID>
28656

> <DSSTox_RID>
82926

> <DSSTox_GSID>
48730

> <DSSTox_FileID_Sort>
7603

> <TS_ChemName>
Beclazone

> <TS_ChemName_Synonyms>


> <TS_CASRN>
5534-09-8

> <CASRN_ChemName_Relationship>
primary

> <TS_Description>
single chemical compound

> <ChemNote>


> <STRUCTURE_Shown>
tested chemical

> <STRUCTURE_Formula>
C28H37ClO7

> <STRUCTURE_MW>
521.0422

> <STRUCTURE_ChemType>
defined organic

> <STRUCTURE_DefinedOrganicForm>
parent

> <STRUCTURE_IUPAC>
(11beta,16beta)-9-chloro-11-hydroxy-16-methyl-3,20-dioxopregna-1,4-diene-17,21-diyl dipropanoate

> <STRUCTURE_SMILES>
CCC(=O)OCC(=O)[C@@]4(OC(=O)CC)[C@@H](C)C[C@@H]3[C@]4(C)C[C@H](O)[C@@]2(Cl)[C@H]3CCC1=CC(=O)C=C[C@@]12C

> <STRUCTURE_SMILES_Desalt>
CCC(=O)OCC(=O)[C@@]4(OC(=O)CC)[C@@H](C)C[C@@H]3[C@]4(C)C[C@H](O)[C@@]2(Cl)[C@H]3CCC1=CC(=O)C=C[C@@]12C

> <Substance_modify_yyyymmdd>
20111204

$$$$
