5534-95-2
ChemmineR-0915142007XD

 54 56  0  0  1  0  0  0  0  0  1 V2000
    8.7805   -2.4781    0.0000 C   0  0  0  0  0  0  0  0  0  0  0  0
   14.8879   -9.6976    0.0000 C   0  0  0  0  0  0  0  0  0  0  0  0
   10.2830   -5.7366    0.0000 C   0  0  0  0  0  0  0  0  0  0  0  0
   12.6244   -7.1025    0.0000 C   0  0  0  0  0  0  0  0  0  0  0  0
    8.7805   -0.3317    0.0000 N   0  0  0  0  0  0  0  0  0  0  0  0
   13.7171   -7.7269    0.0000 N   0  0  0  0  0  0  0  0  0  0  0  0
   16.0586   -9.0342    0.0000 N   0  0  0  0  0  0  0  0  0  0  0  0
   13.7171   -9.0342    0.0000 C   0  0  0  0  0  0  0  0  0  0  0  0
    9.5610   -1.3659    0.0000 C   0  0  0  0  0  0  0  0  0  0  0  0
   11.4537   -5.0732    0.0000 N   0  0  0  0  0  0  0  0  0  0  0  0
   12.6244   -9.6976    0.0000 C   0  0  0  0  0  0  0  0  0  0  0  0
    9.0927   -5.0732    0.0000 C   0  0  0  0  0  0  0  0  0  0  0  0
    3.2586   -2.9268    0.0000 C   0  0  0  0  0  0  0  0  0  0  0  0
   17.2489   -9.7561    0.0000 C   0  0  0  0  0  0  0  0  0  0  0  0
   17.2489  -11.1220    0.0000 C   0  0  0  0  0  0  0  0  0  0  0  0
    7.4927   -2.0098    0.0000 C   0  0  0  0  0  0  0  0  0  0  0  0
    9.0927   -3.7073    0.0000 C   0  0  0  0  0  0  0  0  0  0  0  0
    7.9220   -5.7366    0.0000 N   0  0  0  0  0  0  0  0  0  0  0  0
    6.7708   -5.0732    0.0000 C   0  0  0  0  0  0  0  0  0  0  0  0
   12.6244   -5.7366    0.0000 C   0  0  0  0  0  0  0  0  0  0  0  0
   12.6244  -11.0635    0.0000 C   0  0  0  0  0  0  0  0  0  0  0  0
    7.4927   -0.7024    0.0000 C   0  0  0  0  0  0  0  0  0  0  0  0
    2.0878   -3.6293    0.0000 O   0  0  0  0  0  0  0  0  0  0  0  0
   10.2830   -7.0244    0.0000 O   0  0  0  0  0  0  0  0  0  0  0  0
   14.8879  -11.1220    0.0000 O   0  0  0  0  0  0  0  0  0  0  0  0
   11.3757   -7.8049    0.0000 O   0  0  0  0  0  0  0  0  0  0  0  0
    5.6586   -5.7366    0.0000 C   0  0  0  0  0  0  0  0  0  0  0  0
   18.3415   -9.0342    0.0000 C   0  0  0  0  0  0  0  0  0  0  0  0
    3.2586   -1.6390    0.0000 O   0  0  0  0  0  0  0  0  0  0  0  0
   18.3415  -11.7659    0.0000 O   0  0  0  0  0  0  0  0  0  0  0  0
    6.7708   -3.7073    0.0000 O   0  0  0  0  0  0  0  0  0  0  0  0
   11.3757  -11.7659    0.0000 O   0  0  0  0  0  0  0  0  0  0  0  0
    4.4293   -3.6293    0.0000 N   0  0  0  0  0  0  0  0  0  0  0  0
    1.0342   -3.0049    0.0000 C   0  0  0  0  0  0  0  0  0  0  0  0
   16.0001  -11.7659    0.0000 N   0  0  0  0  0  0  0  0  0  0  0  0
    4.4293   -4.9951    0.0000 C   0  0  0  0  0  0  0  0  0  0  0  0
   13.7171   -5.0732    0.0000 C   0  0  0  0  0  0  0  0  0  0  0  0
   13.7171  -11.7659    0.0000 O   0  0  0  0  0  0  0  0  0  0  0  0
   18.3415   -7.7269    0.0000 C   0  0  0  0  0  0  0  0  0  0  0  0
   12.6244   -3.0634    0.0000 S   0  0  0  0  0  0  0  0  0  0  0  0
    6.3220   -2.7317    0.0000 C   0  0  0  0  0  0  0  0  0  0  0  0
   13.7171   -3.7073    0.0000 C   0  0  0  0  0  0  0  0  0  0  0  0
    6.3220    0.0000    0.0000 C   0  0  0  0  0  0  0  0  0  0  0  0
    1.6195   -1.9512    0.0000 C   0  0  0  0  0  0  0  0  0  0  0  0
    0.4683   -4.0976    0.0000 C   0  0  0  0  0  0  0  0  0  0  0  0
    0.0000   -2.3415    0.0000 C   0  0  0  0  0  0  0  0  0  0  0  0
   12.6244   -1.7561    0.0000 C   0  0  0  0  0  0  0  0  0  0  0  0
   17.2489   -7.1025    0.0000 C   0  0  0  0  0  0  0  0  0  0  0  0
   19.5123   -7.1025    0.0000 C   0  0  0  0  0  0  0  0  0  0  0  0
    5.1903   -2.0098    0.0000 C   0  0  0  0  0  0  0  0  0  0  0  0
    5.1903   -0.7024    0.0000 C   0  0  0  0  0  0  0  0  0  0  0  0
   19.5123   -5.7366    0.0000 C   0  0  0  0  0  0  0  0  0  0  0  0
   17.2489   -5.7366    0.0000 C   0  0  0  0  0  0  0  0  0  0  0  0
   18.3415   -5.0732    0.0000 C   0  0  0  0  0  0  0  0  0  0  0  0
  1  9  2  0  0  0  0
  1 16  1  0  0  0  0
  1 17  1  0  0  0  0
  2  8  1  0  0  0  0
  2  7  1  0  0  0  0
  2 25  2  0  0  0  0
  3 12  1  0  0  0  0
  3 10  1  0  0  0  0
  3 24  2  0  0  0  0
  4 20  1  0  0  0  0
  4  6  1  0  0  0  0
  4 26  2  0  0  0  0
  5  9  1  0  0  0  0
  5 22  1  0  0  0  0
  8  6  1  6  0  0  0
  7 14  1  0  0  0  0
  8 11  1  0  0  0  0
 10 20  1  0  0  0  0
 11 21  1  0  0  0  0
 12 17  1  1  0  0  0
 12 18  1  0  0  0  0
 13 33  1  0  0  0  0
 13 23  1  0  0  0  0
 13 29  2  0  0  0  0
 14 15  1  1  0  0  0
 14 28  1  0  0  0  0
 15 30  2  0  0  0  0
 15 35  1  0  0  0  0
 16 22  2  0  0  0  0
 16 41  1  0  0  0  0
 18 19  1  0  0  0  0
 19 27  1  0  0  0  0
 19 31  2  0  0  0  0
 20 37  1  1  0  0  0
 21 32  2  0  0  0  0
 21 38  1  0  0  0  0
 22 43  1  0  0  0  0
 23 34  1  0  0  0  0
 27 36  1  0  0  0  0
 28 39  1  0  0  0  0
 33 36  1  0  0  0  0
 34 44  1  0  0  0  0
 34 45  1  0  0  0  0
 34 46  1  0  0  0  0
 37 42  1  0  0  0  0
 39 48  1  0  0  0  0
 39 49  2  0  0  0  0
 40 42  1  0  0  0  0
 40 47  1  0  0  0  0
 41 50  2  0  0  0  0
 43 51  2  0  0  0  0
 48 53  2  0  0  0  0
 49 52  1  0  0  0  0
 50 51  1  0  0  0  0
 52 54  2  0  0  0  0
 53 54  1  0  0  0  0
M  END
> <ID>
13978

> <Formula>
C37H49N7O9S

> <FW>
767.8915

> <DSSTox_CID>
28918

> <DSSTox_RID>
83185

> <DSSTox_GSID>
48992

> <DSSTox_FileID_Sort>
7861

> <TS_ChemName>
Pentagastrin

> <TS_ChemName_Synonyms>


> <TS_CASRN>
5534-95-2

> <CASRN_ChemName_Relationship>
primary

> <TS_Description>
single chemical compound

> <ChemNote>


> <STRUCTURE_Shown>
tested chemical

> <STRUCTURE_Formula>
C37H49N7O9S

> <STRUCTURE_MW>
767.8915

> <STRUCTURE_ChemType>
defined organic

> <STRUCTURE_DefinedOrganicForm>
parent

> <STRUCTURE_IUPAC>
N-(tert-butoxycarbonyl)-beta-alanyl-L-tryptophyl-L-methionyl-L-alpha-aspartyl-L-phenylalaninamide

> <STRUCTURE_SMILES>
NC(=O)[C@H](Cc1ccccc1)NC(=O)[C@H](CC(=O)O)NC(=O)[C@H](CCSC)NC(=O)[C@@H](NC(=O)CCNC(=O)OC(C)(C)C)Cc3cnc2ccccc23

> <STRUCTURE_SMILES_Desalt>
NC(=O)[C@H](Cc1ccccc1)NC(=O)[C@H](CC(=O)O)NC(=O)[C@H](CCSC)NC(=O)[C@@H](NC(=O)CCNC(=O)OC(C)(C)C)Cc3cnc2ccccc23

> <Substance_modify_yyyymmdd>
20111204

$$$$
