5538-94-3
ChemmineR-0915142007XD

 20 18  0  0  0  0  0  0  0  0  2 V2000
    4.6048   -1.4720    0.0000 N    0  3  0  0  0  0  0  0  0  0  0  0
    4.6048   -0.1510    0.0000 C    0  0  0  0  0  0  0  0  0  0  0  0
    3.2837   -1.4720    0.0000 C    0  0  0  0  0  0  0  0  0  0  0  0
    5.9384   -1.4720    0.0000 C    0  0  0  0  0  0  0  0  0  0  0  0
    6.5926   -2.6295    0.0000 C    0  0  0  0  0  0  0  0  0  0  0  0
    7.9263   -2.6295    0.0000 C    0  0  0  0  0  0  0  0  0  0  0  0
    8.5931   -3.7870    0.0000 C    0  0  0  0  0  0  0  0  0  0  0  0
    9.9267   -3.7870    0.0000 C    0  0  0  0  0  0  0  0  0  0  0  0
   10.5809   -4.9319    0.0000 C    0  0  0  0  0  0  0  0  0  0  0  0
   11.9146   -4.9319    0.0000 C    0  0  0  0  0  0  0  0  0  0  0  0
   12.5814   -6.0894    0.0000 C    0  0  0  0  0  0  0  0  0  0  0  0
    4.6048   -2.8056    0.0000 C    0  0  0  0  0  0  0  0  0  0  0  0
    3.4599   -3.4725    0.0000 C    0  0  0  0  0  0  0  0  0  0  0  0
    3.4599   -4.8061    0.0000 C    0  0  0  0  0  0  0  0  0  0  0  0
    2.3024   -5.4603    0.0000 C    0  0  0  0  0  0  0  0  0  0  0  0
    2.3024   -6.7939    0.0000 C    0  0  0  0  0  0  0  0  0  0  0  0
    1.1575   -7.4608    0.0000 C    0  0  0  0  0  0  0  0  0  0  0  0
    1.1575   -8.7944    0.0000 C    0  0  0  0  0  0  0  0  0  0  0  0
    0.0000   -9.4486    0.0000 C    0  0  0  0  0  0  0  0  0  0  0  0
    2.1137    0.0000    0.0000 Cl   0  5  0  0  0  0  0  0  0  0  0  0
  1  2  1  0  0  0  0
  1  3  1  0  0  0  0
  1  4  1  0  0  0  0
  1 12  1  0  0  0  0
  4  5  1  0  0  0  0
  5  6  1  0  0  0  0
  6  7  1  0  0  0  0
  7  8  1  0  0  0  0
  8  9  1  0  0  0  0
  9 10  1  0  0  0  0
 10 11  1  0  0  0  0
 12 13  1  0  0  0  0
 13 14  1  0  0  0  0
 14 15  1  0  0  0  0
 15 16  1  0  0  0  0
 16 17  1  0  0  0  0
 17 18  1  0  0  0  0
 18 19  1  0  0  0  0
M  END
> <ID>
7035

> <Formula>
C18H40ClN

> <FW>
305.9699 (270.5164+35.4535)

> <DSSTox_CID>
15491

> <DSSTox_RID>
79260

> <DSSTox_GSID>
35491

> <DSSTox_FileID_Sort>
3942

> <TS_ChemName>
Dioctyldimethylammonium chloride

> <TS_ChemName_Synonyms>
Dimethyl dioctyl ammonium chloride (1-Octanaminium, N,N-dimethyl-N-octyl-, chloride)

> <TS_CASRN>
5538-94-3

> <CASRN_ChemName_Relationship>
primary

> <TS_Description>
single chemical compound

> <ChemNote>
ammonium; parent [20256-55-7]

> <STRUCTURE_Shown>
tested chemical

> <STRUCTURE_Formula>
C18H40ClN

> <STRUCTURE_MW>
305.9699

> <STRUCTURE_ChemType>
defined organic

> <STRUCTURE_DefinedOrganicForm>
salt

> <STRUCTURE_IUPAC>
N,N-dimethyl-N-octyloctan-1-aminium chloride

> <STRUCTURE_SMILES>
[Cl-].C[N+](C)(CCCCCCCC)CCCCCCCC

> <STRUCTURE_SMILES_Desalt>
C[N+](C)(CCCCCCCC)CCCCCCCC

> <Substance_modify_yyyymmdd>
20080429

$$$$
