554-92-7
ChemmineR-0915142007XD

 29 29  0  0  0  0  0  0  0  0  1 V2000
   12.6562   -5.9741    0.0000 C    0  0  0  0  0  0  0  0  0  0  0  0
   13.8130   -5.3180    0.0000 O    0  0  0  0  0  0  0  0  0  0  0  0
   13.8130   -3.9885    0.0000 C    0  0  0  0  0  0  0  0  0  0  0  0
   12.6562   -3.3151    0.0000 C    0  0  0  0  0  0  0  0  0  0  0  0
   12.6562   -1.9856    0.0000 C    0  0  0  0  0  0  0  0  0  0  0  0
   13.8130   -1.3295    0.0000 C    0  0  0  0  0  0  0  0  0  0  0  0
   14.9699   -1.9856    0.0000 C    0  0  0  0  0  0  0  0  0  0  0  0
   14.9699   -3.3151    0.0000 C    0  0  0  0  0  0  0  0  0  0  0  0
   16.1094   -3.9885    0.0000 O    0  0  0  0  0  0  0  0  0  0  0  0
   17.2663   -3.3151    0.0000 C    0  0  0  0  0  0  0  0  0  0  0  0
   16.1094   -1.3295    0.0000 O    0  0  0  0  0  0  0  0  0  0  0  0
   16.1094    0.0000    0.0000 C    0  0  0  0  0  0  0  0  0  0  0  0
   11.5166   -1.3295    0.0000 C    0  0  0  0  0  0  0  0  0  0  0  0
   11.5166    0.0000    0.0000 O    0  0  0  0  0  0  0  0  0  0  0  0
   10.3598   -1.9856    0.0000 N    0  0  0  0  0  0  0  0  0  0  0  0
    9.2029   -1.3295    0.0000 C    0  0  0  0  0  0  0  0  0  0  0  0
    8.0634   -1.9856    0.0000 C    0  0  0  0  0  0  0  0  0  0  0  0
    8.0634   -3.3151    0.0000 C    0  0  0  0  0  0  0  0  0  0  0  0
    6.9065   -3.9885    0.0000 C    0  0  0  0  0  0  0  0  0  0  0  0
    5.7497   -3.3151    0.0000 C    0  0  0  0  0  0  0  0  0  0  0  0
    4.6101   -3.9885    0.0000 O    0  0  0  0  0  0  0  0  0  0  0  0
    3.4533   -3.3151    0.0000 C    0  0  0  0  0  0  0  0  0  0  0  0
    2.2964   -3.9885    0.0000 C    0  0  0  0  0  0  0  0  0  0  0  0
    1.1568   -3.3151    0.0000 N    0  0  0  0  0  0  0  0  0  0  0  0
    0.0000   -3.9885    0.0000 C    0  0  0  0  0  0  0  0  0  0  0  0
    1.1568   -1.9856    0.0000 C    0  0  0  0  0  0  0  0  0  0  0  0
    5.7497   -1.9856    0.0000 C    0  0  0  0  0  0  0  0  0  0  0  0
    6.9065   -1.3295    0.0000 C    0  0  0  0  0  0  0  0  0  0  0  0
    9.5310   -4.1612    0.0000 Cl   0  0  0  0  0  0  0  0  0  0  0  0
  1  2  1  0  0  0  0
  2  3  1  0  0  0  0
  3  4  2  0  0  0  0
  3  8  1  0  0  0  0
  4  5  1  0  0  0  0
  5  6  2  0  0  0  0
  5 13  1  0  0  0  0
  6  7  1  0  0  0  0
  7  8  2  0  0  0  0
  7 11  1  0  0  0  0
  8  9  1  0  0  0  0
  9 10  1  0  0  0  0
 11 12  1  0  0  0  0
 13 14  2  0  0  0  0
 13 15  1  0  0  0  0
 15 16  1  0  0  0  0
 16 17  1  0  0  0  0
 17 18  2  0  0  0  0
 17 28  1  0  0  0  0
 18 19  1  0  0  0  0
 19 20  2  0  0  0  0
 20 21  1  0  0  0  0
 20 27  1  0  0  0  0
 21 22  1  0  0  0  0
 22 23  1  0  0  0  0
 23 24  1  0  0  0  0
 24 25  1  0  0  0  0
 24 26  1  0  0  0  0
 27 28  2  0  0  0  0
M  END
> <ID>
12875

> <Formula>
C21H29ClN2O5

> <FW>
424.9184 (388.4574+36.4609)

> <DSSTox_CID>
27754

> <DSSTox_RID>
82531

> <DSSTox_GSID>
47774

> <DSSTox_FileID_Sort>
7212

> <TS_ChemName>
Trimethobenzamide hydrochloride

> <TS_ChemName_Synonyms>


> <TS_CASRN>
554-92-7

> <CASRN_ChemName_Relationship>
primary

> <TS_Description>
single chemical compound

> <ChemNote>
parent [138-56-7]

> <STRUCTURE_Shown>
tested chemical

> <STRUCTURE_Formula>
C21H29ClN2O5

> <STRUCTURE_MW>
424.9184

> <STRUCTURE_ChemType>
defined organic

> <STRUCTURE_DefinedOrganicForm>
complex

> <STRUCTURE_IUPAC>
N-{4-[2-(dimethylamino)ethoxy]benzyl}-3,4,5-trimethoxybenzamide hydrochloride (1:1)

> <STRUCTURE_SMILES>
Cl.COc1c(cc(cc1OC)C(=O)NCc2ccc(OCCN(C)C)cc2)OC

> <STRUCTURE_SMILES_Desalt>
COc1c(cc(cc1OC)C(=O)NCc2ccc(OCCN(C)C)cc2)OC

> <Substance_modify_yyyymmdd>
20110720

$$$$
