55406-53-6
ChemmineR-0915142007XD

 12 11  0  0  0  0  0  0  0  0  1 V2000
    5.7733   -1.3278    0.0000 C   0  0  0  0  0  0  0  0  0  0  0  0
    5.7733    0.0000    0.0000 O   0  0  0  0  0  0  0  0  0  0  0  0
    6.9279   -1.9860    0.0000 O   0  0  0  0  0  0  0  0  0  0  0  0
    4.6186   -1.9860    0.0000 N   0  0  0  0  0  0  0  0  0  0  0  0
    3.4524   -1.3278    0.0000 C   0  0  0  0  0  0  0  0  0  0  0  0
    2.2978   -1.9860    0.0000 C   0  0  0  0  0  0  0  0  0  0  0  0
    1.1431   -1.3278    0.0000 C   0  0  0  0  0  0  0  0  0  0  0  0
    0.0000   -1.9860    0.0000 C   0  0  0  0  0  0  0  0  0  0  0  0
    8.0941   -1.3278    0.0000 C   0  0  0  0  0  0  0  0  0  0  0  0
    9.2487   -1.9860    0.0000 C   0  0  0  0  0  0  0  0  0  0  0  0
   10.4034   -2.6672    0.0000 C   0  0  0  0  0  0  0  0  0  0  0  0
   11.5465   -3.3254    0.0000 I   0  0  0  0  0  0  0  0  0  0  0  0
  1  2  2  0  0  0  0
  1  3  1  0  0  0  0
  1  4  1  0  0  0  0
  3  9  1  0  0  0  0
  4  5  1  0  0  0  0
  5  6  1  0  0  0  0
  6  7  1  0  0  0  0
  7  8  1  0  0  0  0
  9 10  1  0  0  0  0
 10 11  3  0  0  0  0
 11 12  1  0  0  0  0
M  END
> <ID>
5609

> <Formula>
C8H12INO2

> <FW>
281.0909

> <DSSTox_CID>
8038

> <DSSTox_RID>
78646

> <DSSTox_GSID>
28038

> <DSSTox_FileID_Sort>
3328

> <TS_ChemName>
3-Iodo-2-propynyl-N-butylcarbamate

> <TS_ChemName_Synonyms>
3-Iodo-2-propynyl-N-butylcarbamate (3-Iodo-2-propynylbutylcarbamate) (Carbamic acid, butyl-, 3-iodo-2-propynyl ester) (Iodocarb)

> <TS_CASRN>
55406-53-6

> <CASRN_ChemName_Relationship>
primary

> <TS_Description>
single chemical compound

> <ChemNote>


> <STRUCTURE_Shown>
tested chemical

> <STRUCTURE_Formula>
C8H12INO2

> <STRUCTURE_MW>
281.0909

> <STRUCTURE_ChemType>
defined organic

> <STRUCTURE_DefinedOrganicForm>
parent

> <STRUCTURE_IUPAC>
3-iodoprop-2-yn-1-yl butylcarbamate

> <STRUCTURE_SMILES>
O=C(NCCCC)OCC#CI

> <STRUCTURE_SMILES_Desalt>
O=C(NCCCC)OCC#CI

> <Substance_modify_yyyymmdd>
20080429

$$$$
