5541-67-3
ChemmineR-0915142007XD

 12 13  0  0  0  0  0  0  0  0  1 V2000
    3.4580   -5.3201    0.0000 C   0  0  0  0  0  0  0  0  0  0  0  0
    3.4580   -3.9901    0.0000 C   0  0  0  0  0  0  0  0  0  0  0  0
    2.3036   -3.3250    0.0000 C   0  0  0  0  0  0  0  0  0  0  0  0
    1.1491   -3.9901    0.0000 C   0  0  0  0  0  0  0  0  0  0  0  0
    0.0000   -3.3250    0.0000 C   0  0  0  0  0  0  0  0  0  0  0  0
    0.0000   -1.9950    0.0000 C   0  0  0  0  0  0  0  0  0  0  0  0
    1.1491   -1.3300    0.0000 N   0  0  0  0  0  0  0  0  0  0  0  0
    2.3036   -1.9950    0.0000 C   0  0  0  0  0  0  0  0  0  0  0  0
    3.4580   -1.3300    0.0000 C   0  0  0  0  0  0  0  0  0  0  0  0
    3.4580    0.0000    0.0000 O   0  0  0  0  0  0  0  0  0  0  0  0
    4.6072   -1.9950    0.0000 C   0  0  0  0  0  0  0  0  0  0  0  0
    4.6072   -3.3250    0.0000 C   0  0  0  0  0  0  0  0  0  0  0  0
  1  2  1  0  0  0  0
  2  3  2  0  0  0  0
  2 12  1  0  0  0  0
  3  4  1  0  0  0  0
  3  8  1  0  0  0  0
  4  5  2  0  0  0  0
  5  6  1  0  0  0  0
  6  7  2  0  0  0  0
  7  8  1  0  0  0  0
  8  9  2  0  0  0  0
  9 10  1  0  0  0  0
  9 11  1  0  0  0  0
 11 12  2  0  0  0  0
M  END
> <ID>
11648

> <Formula>
C10H9NO

> <FW>
159.1846

> <DSSTox_CID>
26401

> <DSSTox_RID>
81581

> <DSSTox_GSID>
46401

> <DSSTox_FileID_Sort>
6262

> <TS_ChemName>
Tiliquinol

> <TS_ChemName_Synonyms>


> <TS_CASRN>
5541-67-3

> <CASRN_ChemName_Relationship>
primary

> <TS_Description>
single chemical compound

> <ChemNote>


> <STRUCTURE_Shown>
tested chemical

> <STRUCTURE_Formula>
C10H9NO

> <STRUCTURE_MW>
159.1846

> <STRUCTURE_ChemType>
defined organic

> <STRUCTURE_DefinedOrganicForm>
parent

> <STRUCTURE_IUPAC>
5-methylquinolin-8-ol

> <STRUCTURE_SMILES>
Oc1ccc(C)c2cccnc12

> <STRUCTURE_SMILES_Desalt>
Oc1ccc(C)c2cccnc12

> <Substance_modify_yyyymmdd>
20110813

$$$$
