55418-52-5
ChemmineR-0915142007XD

 14 15  0  0  0  0  0  0  0  0  1 V2000
    0.0000   -1.9782    0.0000 C   0  0  0  0  0  0  0  0  0  0  0  0
    1.1547   -2.6585    0.0000 C   0  0  0  0  0  0  0  0  0  0  0  0
    2.3094   -1.9782    0.0000 C   0  0  0  0  0  0  0  0  0  0  0  0
    3.4552   -2.6585    0.0000 C   0  0  0  0  0  0  0  0  0  0  0  0
    1.1547   -3.9833    0.0000 O   0  0  0  0  0  0  0  0  0  0  0  0
    8.1636   -2.3990    0.0000 O   0  0  0  0  0  0  0  0  0  0  0  0
    8.9513   -1.3248    0.0000 C   0  0  0  0  0  0  0  0  0  0  0  0
    8.1636   -0.2506    0.0000 O   0  0  0  0  0  0  0  0  0  0  0  0
    6.9015   -0.6534    0.0000 C   0  0  0  0  0  0  0  0  0  0  0  0
    6.9015   -1.9782    0.0000 C   0  0  0  0  0  0  0  0  0  0  0  0
    5.7647   -2.6585    0.0000 C   0  0  0  0  0  0  0  0  0  0  0  0
    4.6099   -1.9782    0.0000 C   0  0  0  0  0  0  0  0  0  0  0  0
    4.6099   -0.6534    0.0000 C   0  0  0  0  0  0  0  0  0  0  0  0
    5.7647    0.0000    0.0000 C   0  0  0  0  0  0  0  0  0  0  0  0
  1  2  1  0  0  0  0
  2  3  1  0  0  0  0
  2  5  2  0  0  0  0
  3  4  1  0  0  0  0
  4 12  1  0  0  0  0
  6  7  1  0  0  0  0
  6 10  1  0  0  0  0
  7  8  1  0  0  0  0
  8  9  1  0  0  0  0
  9 10  2  0  0  0  0
  9 14  1  0  0  0  0
 10 11  1  0  0  0  0
 11 12  2  0  0  0  0
 12 13  1  0  0  0  0
 13 14  2  0  0  0  0
M  END
> <ID>
12309

> <Formula>
C11H12O3

> <FW>
192.2112

> <DSSTox_CID>
27161

> <DSSTox_RID>
82162

> <DSSTox_GSID>
47161

> <DSSTox_FileID_Sort>
6843

> <TS_ChemName>
Piperonyl acetone

> <TS_ChemName_Synonyms>
4-Benzo(1,3)dioxol-5-yl-butan-2-one

> <TS_CASRN>
55418-52-5

> <CASRN_ChemName_Relationship>
primary

> <TS_Description>
single chemical compound

> <ChemNote>


> <STRUCTURE_Shown>
tested chemical

> <STRUCTURE_Formula>
C11H12O3

> <STRUCTURE_MW>
192.2112

> <STRUCTURE_ChemType>
defined organic

> <STRUCTURE_DefinedOrganicForm>
parent

> <STRUCTURE_IUPAC>
4-(1,3-benzodioxol-5-yl)butan-2-one

> <STRUCTURE_SMILES>
CC(=O)CCc1ccc2OCOc2c1

> <STRUCTURE_SMILES_Desalt>
CC(=O)CCc1ccc2OCOc2c1

> <Substance_modify_yyyymmdd>
20100502

$$$$
