55453-87-7
ChemmineR-0915142007XD

 20 22  0  0  0  0  0  0  0  0  1 V2000
    9.5419   -5.7919    0.0000 O   0  0  0  0  0  0  0  0  0  0  0  0
    8.7976   -4.6946    0.0000 C   0  0  0  0  0  0  0  0  0  0  0  0
    9.3701   -3.4923    0.0000 O   0  0  0  0  0  0  0  0  0  0  0  0
    7.4618   -4.7900    0.0000 C   0  0  0  0  0  0  0  0  0  0  0  0
    6.7175   -3.6927    0.0000 C   0  0  0  0  0  0  0  0  0  0  0  0
    7.2900   -2.5000    0.0000 C   0  0  0  0  0  0  0  0  0  0  0  0
    6.5457   -1.3931    0.0000 C   0  0  0  0  0  0  0  0  0  0  0  0
    5.2194   -1.4981    0.0000 C   0  0  0  0  0  0  0  0  0  0  0  0
    4.6374   -0.2958    0.0000 O   0  0  0  0  0  0  0  0  0  0  0  0
    3.3397    0.0000    0.0000 C   0  0  0  0  0  0  0  0  0  0  0  0
    2.2996   -0.8301    0.0000 C   0  0  0  0  0  0  0  0  0  0  0  0
    2.2996   -2.1565    0.0000 C   0  0  0  0  0  0  0  0  0  0  0  0
    1.1546   -2.8244    0.0000 C   0  0  0  0  0  0  0  0  0  0  0  0
    0.0000   -2.1565    0.0000 C   0  0  0  0  0  0  0  0  0  0  0  0
    0.0000   -0.8301    0.0000 C   0  0  0  0  0  0  0  0  0  0  0  0
    1.1546   -0.1622    0.0000 C   0  0  0  0  0  0  0  0  0  0  0  0
    3.3397   -2.9866    0.0000 C   0  0  0  0  0  0  0  0  0  0  0  0
    3.0439   -4.2843    0.0000 O   0  0  0  0  0  0  0  0  0  0  0  0
    4.6374   -2.6908    0.0000 C   0  0  0  0  0  0  0  0  0  0  0  0
    5.3912   -3.7881    0.0000 C   0  0  0  0  0  0  0  0  0  0  0  0
  1  2  1  0  0  0  0
  2  3  2  0  0  0  0
  2  4  1  0  0  0  0
  4  5  1  0  0  0  0
  5  6  2  0  0  0  0
  5 20  1  0  0  0  0
  6  7  1  0  0  0  0
  7  8  2  0  0  0  0
  8  9  1  0  0  0  0
  8 19  1  0  0  0  0
  9 10  1  0  0  0  0
 10 11  1  0  0  0  0
 11 12  2  0  0  0  0
 11 16  1  0  0  0  0
 12 13  1  0  0  0  0
 12 17  1  0  0  0  0
 13 14  2  0  0  0  0
 14 15  1  0  0  0  0
 15 16  2  0  0  0  0
 17 18  2  0  0  0  0
 17 19  1  0  0  0  0
 19 20  2  0  0  0  0
M  END
> <ID>
16171

> <Formula>
C16H12O4

> <FW>
268.2641

> <DSSTox_CID>
31561

> <DSSTox_RID>
97446

> <DSSTox_GSID>
57772

> <DSSTox_FileID_Sort>
8513

> <TS_ChemName>
Isoxepac

> <TS_ChemName_Synonyms>


> <TS_CASRN>
55453-87-7

> <CASRN_ChemName_Relationship>
primary

> <TS_Description>
single chemical compound

> <ChemNote>


> <STRUCTURE_Shown>
tested chemical

> <STRUCTURE_Formula>
C16H12O4

> <STRUCTURE_MW>
268.2641

> <STRUCTURE_ChemType>
defined organic

> <STRUCTURE_DefinedOrganicForm>
parent

> <STRUCTURE_IUPAC>
(11-oxo-6,11-dihydrodibenzo[b,e]oxepin-2-yl)acetic acid

> <STRUCTURE_SMILES>
O=C(O)Cc1ccc2OCc3ccccc3C(=O)c2c1

> <STRUCTURE_SMILES_Desalt>
O=C(O)Cc1ccc2OCc3ccccc3C(=O)c2c1

> <Substance_modify_yyyymmdd>
20131018

$$$$
