555-60-2
ChemmineR-0915142007XD

 14 14  0  0  0  0  0  0  0  0  1 V2000
    3.9890   -1.1543    0.0000 N    0  0  0  0  0  0  0  0  0  0  0  0
    4.6466   -2.3087    0.0000 N    0  0  0  0  0  0  0  0  0  0  0  0
    2.6594   -1.1543    0.0000 C    0  0  0  0  0  0  0  0  0  0  0  0
    5.9763   -2.3087    0.0000 C    0  0  0  0  0  0  0  0  0  0  0  0
    1.9872   -2.3087    0.0000 C    0  0  0  0  0  0  0  0  0  0  0  0
    1.9872    0.0000    0.0000 C    0  0  0  0  0  0  0  0  0  0  0  0
    6.6484   -3.4557    0.0000 C    0  0  0  0  0  0  0  0  0  0  0  0
    6.6484   -1.1543    0.0000 C    0  0  0  0  0  0  0  0  0  0  0  0
    0.6575   -2.3087    0.0000 C    0  0  0  0  0  0  0  0  0  0  0  0
    0.6575    0.0000    0.0000 C    0  0  0  0  0  0  0  0  0  0  0  0
    7.3059   -4.6100    0.0000 N    0  0  0  0  0  0  0  0  0  0  0  0
    7.3059    0.0000    0.0000 N    0  0  0  0  0  0  0  0  0  0  0  0
    0.0000   -3.4557    0.0000 Cl   0  0  0  0  0  0  0  0  0  0  0  0
    0.0000   -1.1543    0.0000 C    0  0  0  0  0  0  0  0  0  0  0  0
  1  2  1  0  0  0  0
  1  3  1  0  0  0  0
  2  4  2  0  0  0  0
  3  5  2  0  0  0  0
  3  6  1  0  0  0  0
  4  7  1  0  0  0  0
  4  8  1  0  0  0  0
  5  9  1  0  0  0  0
  6 10  2  0  0  0  0
  7 11  3  0  0  0  0
  8 12  3  0  0  0  0
  9 13  1  0  0  0  0
  9 14  2  0  0  0  0
 10 14  1  0  0  0  0
M  END
> <ID>
8026

> <Formula>
C9H5ClN4

> <FW>
204.6158

> <DSSTox_CID>
20990

> <DSSTox_RID>
79610

> <DSSTox_GSID>
40990

> <DSSTox_FileID_Sort>
4292

> <TS_ChemName>
Carbonyl cyanide chlorophenylhydrazone

> <TS_ChemName_Synonyms>
Carbonyl cyanide chlorophenylhydrazone (CCCP)

> <TS_CASRN>
555-60-2

> <CASRN_ChemName_Relationship>
primary

> <TS_Description>
single chemical compound

> <ChemNote>


> <STRUCTURE_Shown>
tested chemical

> <STRUCTURE_Formula>
C9H5ClN4

> <STRUCTURE_MW>
204.6158

> <STRUCTURE_ChemType>
defined organic

> <STRUCTURE_DefinedOrganicForm>
parent

> <STRUCTURE_IUPAC>
[2-(3-chlorophenyl)hydrazinylidene]propanedinitrile

> <STRUCTURE_SMILES>
Clc1cc(N\N=C(/C#N)C#N)ccc1

> <STRUCTURE_SMILES_Desalt>
Clc1cc(N\N=C(/C#N)C#N)ccc1

> <Substance_modify_yyyymmdd>
20080429

$$$$
