555-44-2
ChemmineR-0915142007XD

 57 56  0  0  0  0  0  0  0  0  1 V2000
    1.1558   -2.6606    0.0000 O   0  0  0  0  0  0  0  0  0  0  0  0
    2.2899   -2.0064    0.0000 C   0  0  0  0  0  0  0  0  0  0  0  0
    2.2899   -0.6761    0.0000 C   0  0  0  0  0  0  0  0  0  0  0  0
    3.4457    0.0000    0.0000 C   0  0  0  0  0  0  0  0  0  0  0  0
    4.6016   -0.6761    0.0000 C   0  0  0  0  0  0  0  0  0  0  0  0
    5.7356    0.0000    0.0000 C   0  0  0  0  0  0  0  0  0  0  0  0
    6.8915   -0.6761    0.0000 C   0  0  0  0  0  0  0  0  0  0  0  0
    8.0255    0.0000    0.0000 C   0  0  0  0  0  0  0  0  0  0  0  0
    9.1813   -0.6761    0.0000 C   0  0  0  0  0  0  0  0  0  0  0  0
   10.3154    0.0000    0.0000 C   0  0  0  0  0  0  0  0  0  0  0  0
   11.4930   -0.6761    0.0000 C   0  0  0  0  0  0  0  0  0  0  0  0
   12.6271    0.0000    0.0000 C   0  0  0  0  0  0  0  0  0  0  0  0
   13.7829   -0.6761    0.0000 C   0  0  0  0  0  0  0  0  0  0  0  0
   14.9169    0.0000    0.0000 C   0  0  0  0  0  0  0  0  0  0  0  0
   16.0728   -0.6761    0.0000 C   0  0  0  0  0  0  0  0  0  0  0  0
   17.2068    0.0000    0.0000 C   0  0  0  0  0  0  0  0  0  0  0  0
   18.3627   -0.6761    0.0000 C   0  0  0  0  0  0  0  0  0  0  0  0
    3.4457   -2.6606    0.0000 O   0  0  0  0  0  0  0  0  0  0  0  0
    1.1558   -3.9909    0.0000 C   0  0  0  0  0  0  0  0  0  0  0  0
    0.0000   -4.6670    0.0000 C   0  0  0  0  0  0  0  0  0  0  0  0
    2.2899   -4.6670    0.0000 C   0  0  0  0  0  0  0  0  0  0  0  0
    3.4457   -3.9909    0.0000 O   0  0  0  0  0  0  0  0  0  0  0  0
    0.0000   -5.9755    0.0000 O   0  0  0  0  0  0  0  0  0  0  0  0
    4.6016   -4.6670    0.0000 C   0  0  0  0  0  0  0  0  0  0  0  0
    5.7356   -3.9909    0.0000 C   0  0  0  0  0  0  0  0  0  0  0  0
    6.8915   -4.6670    0.0000 C   0  0  0  0  0  0  0  0  0  0  0  0
    8.0255   -3.9909    0.0000 C   0  0  0  0  0  0  0  0  0  0  0  0
    9.1813   -4.6670    0.0000 C   0  0  0  0  0  0  0  0  0  0  0  0
   10.3154   -3.9909    0.0000 C   0  0  0  0  0  0  0  0  0  0  0  0
   11.4930   -4.6670    0.0000 C   0  0  0  0  0  0  0  0  0  0  0  0
   12.6271   -3.9909    0.0000 C   0  0  0  0  0  0  0  0  0  0  0  0
   13.7829   -4.6670    0.0000 C   0  0  0  0  0  0  0  0  0  0  0  0
   14.9169   -3.9909    0.0000 C   0  0  0  0  0  0  0  0  0  0  0  0
   16.0728   -4.6670    0.0000 C   0  0  0  0  0  0  0  0  0  0  0  0
   17.2068   -3.9909    0.0000 C   0  0  0  0  0  0  0  0  0  0  0  0
   18.3627   -4.6670    0.0000 C   0  0  0  0  0  0  0  0  0  0  0  0
   19.5185   -3.9909    0.0000 C   0  0  0  0  0  0  0  0  0  0  0  0
   20.6744   -4.6670    0.0000 C   0  0  0  0  0  0  0  0  0  0  0  0
   21.8084   -3.9909    0.0000 C   0  0  0  0  0  0  0  0  0  0  0  0
    4.6016   -5.9755    0.0000 O   0  0  0  0  0  0  0  0  0  0  0  0
    1.1558   -6.6298    0.0000 C   0  0  0  0  0  0  0  0  0  0  0  0
    1.1558   -7.9601    0.0000 C   0  0  0  0  0  0  0  0  0  0  0  0
    2.2899   -5.9755    0.0000 O   0  0  0  0  0  0  0  0  0  0  0  0
    2.2899   -8.6361    0.0000 C   0  0  0  0  0  0  0  0  0  0  0  0
    3.4457   -7.9601    0.0000 C   0  0  0  0  0  0  0  0  0  0  0  0
    4.6016   -8.6361    0.0000 C   0  0  0  0  0  0  0  0  0  0  0  0
    5.7356   -7.9601    0.0000 C   0  0  0  0  0  0  0  0  0  0  0  0
    6.8915   -8.6361    0.0000 C   0  0  0  0  0  0  0  0  0  0  0  0
    8.0255   -7.9601    0.0000 C   0  0  0  0  0  0  0  0  0  0  0  0
    9.1813   -8.6361    0.0000 C   0  0  0  0  0  0  0  0  0  0  0  0
   10.3154   -7.9601    0.0000 C   0  0  0  0  0  0  0  0  0  0  0  0
   11.4930   -8.6361    0.0000 C   0  0  0  0  0  0  0  0  0  0  0  0
   12.6271   -7.9601    0.0000 C   0  0  0  0  0  0  0  0  0  0  0  0
   13.7829   -8.6361    0.0000 C   0  0  0  0  0  0  0  0  0  0  0  0
   14.9169   -7.9601    0.0000 C   0  0  0  0  0  0  0  0  0  0  0  0
   16.0728   -8.6361    0.0000 C   0  0  0  0  0  0  0  0  0  0  0  0
   17.2068   -7.9601    0.0000 C   0  0  0  0  0  0  0  0  0  0  0  0
  1 19  1  0  0  0  0
  1  2  1  0  0  0  0
  2 18  2  0  0  0  0
  2  3  1  0  0  0  0
  3  4  1  0  0  0  0
  4  5  1  0  0  0  0
  5  6  1  0  0  0  0
  6  7  1  0  0  0  0
  7  8  1  0  0  0  0
  8  9  1  0  0  0  0
  9 10  1  0  0  0  0
 10 11  1  0  0  0  0
 11 12  1  0  0  0  0
 12 13  1  0  0  0  0
 13 14  1  0  0  0  0
 14 15  1  0  0  0  0
 15 16  1  0  0  0  0
 16 17  1  0  0  0  0
 19 20  1  0  0  0  0
 19 21  1  0  0  0  0
 20 23  1  0  0  0  0
 21 22  1  0  0  0  0
 22 24  1  0  0  0  0
 23 41  1  0  0  0  0
 24 40  2  0  0  0  0
 24 25  1  0  0  0  0
 25 26  1  0  0  0  0
 26 27  1  0  0  0  0
 27 28  1  0  0  0  0
 28 29  1  0  0  0  0
 29 30  1  0  0  0  0
 30 31  1  0  0  0  0
 31 32  1  0  0  0  0
 32 33  1  0  0  0  0
 33 34  1  0  0  0  0
 34 35  1  0  0  0  0
 35 36  1  0  0  0  0
 36 37  1  0  0  0  0
 37 38  1  0  0  0  0
 38 39  1  0  0  0  0
 41 42  1  0  0  0  0
 41 43  2  0  0  0  0
 42 44  1  0  0  0  0
 44 45  1  0  0  0  0
 45 46  1  0  0  0  0
 46 47  1  0  0  0  0
 47 48  1  0  0  0  0
 48 49  1  0  0  0  0
 49 50  1  0  0  0  0
 50 51  1  0  0  0  0
 51 52  1  0  0  0  0
 52 53  1  0  0  0  0
 53 54  1  0  0  0  0
 54 55  1  0  0  0  0
 55 56  1  0  0  0  0
 56 57  1  0  0  0  0
M  END
> <ID>
11468

> <Formula>
C51H98O6

> <FW>
807.3202

> <DSSTox_CID>
26169

> <DSSTox_RID>
81400

> <DSSTox_GSID>
46169

> <DSSTox_FileID_Sort>
6081

> <TS_ChemName>
Tripalmitin

> <TS_ChemName_Synonyms>


> <TS_CASRN>
555-44-2

> <CASRN_ChemName_Relationship>
primary

> <TS_Description>
single chemical compound

> <ChemNote>


> <STRUCTURE_Shown>
tested chemical

> <STRUCTURE_Formula>
C51H98O6

> <STRUCTURE_MW>
807.3202

> <STRUCTURE_ChemType>
defined organic

> <STRUCTURE_DefinedOrganicForm>
parent

> <STRUCTURE_IUPAC>
propane-1,2,3-triyl trihexadecanoate

> <STRUCTURE_SMILES>
O=C(CCCCCCCCCCCCCCC)OC(COC(=O)CCCCCCCCCCCCCCC)COC(=O)CCCCCCCCCCCCCCC

> <STRUCTURE_SMILES_Desalt>
O=C(CCCCCCCCCCCCCCC)OC(COC(=O)CCCCCCCCCCCCCCC)COC(=O)CCCCCCCCCCCCCCC

> <Substance_modify_yyyymmdd>
20110817

$$$$
