555-16-8
ChemmineR-0915142007XD

 11 11  0  0  0  0  0  0  0  0  2 V2000
    6.6538    0.0000    0.0000 O   0  0  0  0  0  0  0  0  0  0  0  0
    5.9884   -1.1511    0.0000 C   0  0  0  0  0  0  0  0  0  0  0  0
    4.6576   -1.1511    0.0000 C   0  0  0  0  0  0  0  0  0  0  0  0
    3.9923   -2.3022    0.0000 C   0  0  0  0  0  0  0  0  0  0  0  0
    2.6615   -2.3022    0.0000 C   0  0  0  0  0  0  0  0  0  0  0  0
    1.9961   -1.1511    0.0000 C   0  0  0  0  0  0  0  0  0  0  0  0
    0.6654   -1.1511    0.0000 N   0  3  0  0  0  0  0  0  0  0  0  0
    0.0000   -2.3022    0.0000 O   0  0  0  0  0  0  0  0  0  0  0  0
    0.0000    0.0000    0.0000 O   0  5  0  0  0  0  0  0  0  0  0  0
    2.6615    0.0000    0.0000 C   0  0  0  0  0  0  0  0  0  0  0  0
    3.9923    0.0000    0.0000 C   0  0  0  0  0  0  0  0  0  0  0  0
  1  2  2  0  0  0  0
  2  3  1  0  0  0  0
  3  4  2  0  0  0  0
  3 11  1  0  0  0  0
  4  5  1  0  0  0  0
  5  6  2  0  0  0  0
  6  7  1  0  0  0  0
  6 10  1  0  0  0  0
  7  8  2  0  0  0  0
  7  9  1  0  0  0  0
 10 11  2  0  0  0  0
M  END
> <ID>
1905

> <Formula>
C7H5NO3

> <FW>
151.1195

> <DSSTox_CID>
2061

> <DSSTox_RID>
76477

> <DSSTox_GSID>
22061

> <DSSTox_FileID_Sort>
1161

> <TS_ChemName>
4-Nitrobenzaldehyde

> <TS_ChemName_Synonyms>


> <TS_CASRN>
555-16-8

> <CASRN_ChemName_Relationship>
primary

> <TS_Description>
single chemical compound

> <ChemNote>


> <STRUCTURE_Shown>
tested chemical

> <STRUCTURE_Formula>
C7H5NO3

> <STRUCTURE_MW>
151.1195

> <STRUCTURE_ChemType>
defined organic

> <STRUCTURE_DefinedOrganicForm>
parent

> <STRUCTURE_IUPAC>
4-nitrobenzaldehyde

> <STRUCTURE_SMILES>
O=[N+]([O-])c1ccc(C=O)cc1

> <STRUCTURE_SMILES_Desalt>
O=[N+]([O-])c1ccc(C=O)cc1

> <Substance_modify_yyyymmdd>
20080429

$$$$
