55512-33-9
ChemmineR-0915142007XD

 25 26  0  0  0  0  0  0  0  0  1 V2000
    0.0590   -3.3768    0.0000 N    0  0  0  0  0  0  0  0  0  0  0  0
    2.4183   -3.4063    0.0000 C    0  0  0  0  0  0  0  0  0  0  0  0
    1.2239   -4.0846    0.0000 C    0  0  0  0  0  0  0  0  0  0  0  0
    2.4331   -2.0644    0.0000 C    0  0  0  0  0  0  0  0  0  0  0  0
    0.0737   -2.0202    0.0000 N    0  0  0  0  0  0  0  0  0  0  0  0
    4.7629   -3.4653    0.0000 C    0  0  0  0  0  0  0  0  0  0  0  0
    3.5833   -4.1141    0.0000 O    0  0  0  0  0  0  0  0  0  0  0  0
    1.2534   -1.3566    0.0000 C    0  0  0  0  0  0  0  0  0  0  0  0
    4.7777   -2.1824    0.0000 O    0  0  0  0  0  0  0  0  0  0  0  0
    1.2092   -5.4265    0.0000 C    0  0  0  0  0  0  0  0  0  0  0  0
    5.8689   -4.1289    0.0000 S    0  0  0  0  0  0  0  0  0  0  0  0
    1.2681    0.0000    0.0000 Cl   0  0  0  0  0  0  0  0  0  0  0  0
    0.0147   -6.0753    0.0000 C    0  0  0  0  0  0  0  0  0  0  0  0
    2.3741   -6.1196    0.0000 C    0  0  0  0  0  0  0  0  0  0  0  0
    6.9896   -3.4948    0.0000 C    0  0  0  0  0  0  0  0  0  0  0  0
    8.0808   -4.1584    0.0000 C    0  0  0  0  0  0  0  0  0  0  0  0
   13.6400   -3.5980    0.0000 C    0  0  0  0  0  0  0  0  0  0  0  0
   12.5193   -4.2321    0.0000 C    0  0  0  0  0  0  0  0  0  0  0  0
   10.3074   -4.1878    0.0000 C    0  0  0  0  0  0  0  0  0  0  0  0
    9.2015   -3.5390    0.0000 C    0  0  0  0  0  0  0  0  0  0  0  0
   11.4281   -3.5685    0.0000 C    0  0  0  0  0  0  0  0  0  0  0  0
   14.7459   -4.2763    0.0000 C    0  0  0  0  0  0  0  0  0  0  0  0
    2.3593   -7.4762    0.0000 C    0  0  0  0  0  0  0  0  0  0  0  0
    0.0000   -7.4467    0.0000 C    0  0  0  0  0  0  0  0  0  0  0  0
    1.1797   -8.1398    0.0000 C    0  0  0  0  0  0  0  0  0  0  0  0
  1  3  2  0  0  0  0
  1  5  1  0  0  0  0
  2  3  1  0  0  0  0
  2  7  1  0  0  0  0
  2  4  2  0  0  0  0
  3 10  1  0  0  0  0
  4  8  1  0  0  0  0
  5  8  2  0  0  0  0
  6  7  1  0  0  0  0
  6  9  2  0  0  0  0
  6 11  1  0  0  0  0
  8 12  1  0  0  0  0
 10 13  1  0  0  0  0
 10 14  2  0  0  0  0
 11 15  1  0  0  0  0
 13 24  2  0  0  0  0
 14 23  1  0  0  0  0
 15 16  1  0  0  0  0
 16 20  1  0  0  0  0
 17 18  1  0  0  0  0
 17 22  1  0  0  0  0
 18 21  1  0  0  0  0
 19 20  1  0  0  0  0
 19 21  1  0  0  0  0
 23 25  2  0  0  0  0
 24 25  1  0  0  0  0
M  END
> <ID>
6557

> <Formula>
C19H23ClN2O2S

> <FW>
378.9161

> <DSSTox_CID>
12639

> <DSSTox_RID>
79018

> <DSSTox_GSID>
32639

> <DSSTox_FileID_Sort>
3700

> <TS_ChemName>
Pyridate

> <TS_ChemName_Synonyms>


> <TS_CASRN>
55512-33-9

> <CASRN_ChemName_Relationship>
primary

> <TS_Description>
single chemical compound

> <ChemNote>


> <STRUCTURE_Shown>
tested chemical

> <STRUCTURE_Formula>
C19H23ClN2O2S

> <STRUCTURE_MW>
378.9161

> <STRUCTURE_ChemType>
defined organic

> <STRUCTURE_DefinedOrganicForm>
parent

> <STRUCTURE_IUPAC>
O-(6-chloro-3-phenylpyridazin-4-yl) S-octyl carbonothioate

> <STRUCTURE_SMILES>
O=C(SCCCCCCCC)Oc2cc(Cl)nnc2c1ccccc1

> <STRUCTURE_SMILES_Desalt>
O=C(SCCCCCCCC)Oc2cc(Cl)nnc2c1ccccc1

> <Substance_modify_yyyymmdd>
20080429

$$$$
