55541-30-5
ChemmineR-0915142007XD

 38 41  0  0  1  0  0  0  0  0  1 V2000
    6.9475   -5.6982    0.0000 C   0  0  0  0  0  0  0  0  0  0  0  0
    4.6019   -7.0495    0.0000 C   0  0  0  0  0  0  0  0  0  0  0  0
    8.1968   -5.3158    0.0000 C   0  0  0  0  0  0  0  0  0  0  0  0
    3.4674   -7.7123    0.0000 C   0  0  0  0  0  0  0  0  0  0  0  0
    6.9475   -7.0495    0.0000 C   0  0  0  0  0  0  0  0  0  0  0  0
    5.7619   -7.7123    0.0000 C   0  0  0  0  0  0  0  0  0  0  0  0
    3.4674   -9.0381    0.0000 C   0  0  0  0  0  0  0  0  0  0  0  0
    4.6019   -5.6982    0.0000 C   0  0  0  0  0  0  0  0  0  0  0  0
    5.7619   -5.0353    0.0000 C   0  0  0  0  0  0  0  0  0  0  0  0
    8.9489   -6.3866    0.0000 C   0  0  0  0  0  0  0  0  0  0  0  0
    2.3201   -7.0495    0.0000 C   0  0  0  0  0  0  0  0  0  0  0  0
    8.1968   -7.4829    0.0000 C   0  0  0  0  0  0  0  0  0  0  0  0
    8.1968   -3.9645    0.0000 C   0  0  0  0  0  0  0  0  0  0  0  0
    2.3201   -9.7010    0.0000 C   0  0  0  0  0  0  0  0  0  0  0  0
    9.5098   -5.2393    0.0000 O   0  0  0  0  0  0  0  0  0  0  0  0
    5.7619   -9.0381    0.0000 C   0  0  0  0  0  0  0  0  0  0  0  0
    1.1600   -7.7123    0.0000 C   0  0  0  0  0  0  0  0  0  0  0  0
    1.1600   -9.0381    0.0000 C   0  0  0  0  0  0  0  0  0  0  0  0
   10.6571   -4.5892    0.0000 C   0  0  0  0  0  0  0  0  0  0  0  0
    4.6019   -9.7010    0.0000 C   0  0  0  0  0  0  0  0  0  0  0  0
   10.4531   -1.3003    0.0000 C   0  0  0  0  0  0  0  0  0  0  0  0
    4.6019   -8.4007    0.0000 F   0  0  0  0  0  0  0  0  0  0  0  0
    9.3185   -3.2762    0.0000 C   0  0  0  0  0  0  0  0  0  0  0  0
    7.0622   -3.3016    0.0000 O   0  0  0  0  0  0  0  0  0  0  0  0
    9.3185   -1.9631    0.0000 O   0  0  0  0  0  0  0  0  0  0  0  0
   10.6571   -3.2379    0.0000 O   0  0  0  0  0  0  0  0  0  0  0  0
   10.4531    0.0000    0.0000 O   0  0  0  0  0  0  0  0  0  0  0  0
    0.0000   -9.7137    0.0000 O   0  0  0  0  0  0  0  0  0  0  0  0
    6.9475   -4.3597    0.0000 C   0  0  0  0  0  0  0  0  0  0  0  0
    3.4674   -5.0353    0.0000 O   0  0  0  0  0  0  0  0  0  0  0  0
    3.4674   -6.3866    0.0000 C   0  0  0  0  0  0  0  0  0  0  0  0
   10.3001   -6.3483    0.0000 C   0  0  0  0  0  0  0  0  0  0  0  0
   11.8553   -5.2393    0.0000 C   0  0  0  0  0  0  0  0  0  0  0  0
   11.6259   -1.9631    0.0000 C   0  0  0  0  0  0  0  0  0  0  0  0
   12.7477   -1.3003    0.0000 C   0  0  0  0  0  0  0  0  0  0  0  0
   11.8681   -6.5523    0.0000 C   0  0  0  0  0  0  0  0  0  0  0  0
    5.7619   -6.3866    0.0000 H   0  0  0  0  0  0  0  0  0  0  0  0
    6.9475   -8.3880    0.0000 H   0  0  0  0  0  0  0  0  0  0  0  0
  1  3  1  0  0  0  0
  1  5  1  0  0  0  0
  1  9  1  0  0  0  0
  1 29  1  1  0  0  0
  2  8  1  0  0  0  0
  2  4  1  0  0  0  0
  2 22  1  6  0  0  0
  2  6  1  0  0  0  0
  3 10  1  0  0  0  0
  3 13  1  0  0  0  0
  3 15  1  6  0  0  0
  4  7  1  0  0  0  0
  4 11  1  0  0  0  0
  4 31  1  1  0  0  0
  5  6  1  0  0  0  0
  5 12  1  0  0  0  0
  5 38  1  6  0  0  0
  6 16  1  0  0  0  0
  6 37  1  1  0  0  0
  7 14  2  0  0  0  0
  7 20  1  0  0  0  0
  8  9  1  0  0  0  0
  8 30  1  1  0  0  0
 10 32  1  6  0  0  0
 10 12  1  0  0  0  0
 11 17  2  0  0  0  0
 13 23  1  0  0  0  0
 13 24  2  0  0  0  0
 14 18  1  0  0  0  0
 15 19  1  0  0  0  0
 16 20  1  0  0  0  0
 17 18  1  0  0  0  0
 18 28  2  0  0  0  0
 19 26  2  0  0  0  0
 19 33  1  0  0  0  0
 21 25  1  0  0  0  0
 21 27  2  0  0  0  0
 21 34  1  0  0  0  0
 23 25  1  0  0  0  0
 33 36  1  0  0  0  0
 34 35  1  0  0  0  0
M  END
> <ID>
2616

> <Formula>
C28H37FO7

> <FW>
504.5876

> <DSSTox_CID>
2902

> <DSSTox_RID>
76781

> <DSSTox_GSID>
22902

> <DSSTox_FileID_Sort>
1465

> <TS_ChemName>
Dexamethasone dipropionate

> <TS_ChemName_Synonyms>


> <TS_CASRN>
55541-30-5

> <CASRN_ChemName_Relationship>
primary

> <TS_Description>
single chemical compound

> <ChemNote>
stereochem; tautomers

> <STRUCTURE_Shown>
tested chemical

> <STRUCTURE_Formula>
C28H37FO7

> <STRUCTURE_MW>
504.5876

> <STRUCTURE_ChemType>
defined organic

> <STRUCTURE_DefinedOrganicForm>
parent

> <STRUCTURE_IUPAC>
(11beta,16alpha)-9-fluoro-11-hydroxy-16-methyl-3,20-dioxopregna-1,4-diene-17,21-diyl dipropanoate

> <STRUCTURE_SMILES>
CCC(=O)OCC(=O)[C@@]4(OC(=O)CC)[C@H](C)C[C@@H]3[C@]4(C)C[C@H](O)[C@@]2(F)[C@H]3CCC1=CC(=O)C=C[C@@]12C

> <STRUCTURE_SMILES_Desalt>
CCC(=O)OCC(=O)[C@@]4(OC(=O)CC)[C@H](C)C[C@@H]3[C@]4(C)C[C@H](O)[C@@]2(F)[C@H]3CCC1=CC(=O)C=C[C@@]12C

> <Substance_modify_yyyymmdd>
20080429

$$$$
