556-67-2
ChemmineR-0915142007XD

 16 16  0  0  0  0  0  0  0  0  1 V2000
    3.5932   -1.3109    0.0000 O    0  0  0  0  0  0  0  0  0  0  0  0
    4.5354   -2.2589    0.0000 Si   0  0  0  0  0  0  0  0  0  0  0  0
    4.5354   -3.5874    0.0000 O    0  0  0  0  0  0  0  0  0  0  0  0
    3.5932   -4.5178    0.0000 Si   0  0  0  0  0  0  0  0  0  0  0  0
    2.2589   -4.5178    0.0000 O    0  0  0  0  0  0  0  0  0  0  0  0
    1.3167   -3.5874    0.0000 Si   0  0  0  0  0  0  0  0  0  0  0  0
    1.3167   -2.2414    0.0000 O    0  0  0  0  0  0  0  0  0  0  0  0
    2.2589   -1.3109    0.0000 Si   0  0  0  0  0  0  0  0  0  0  0  0
    5.8521   -2.4169    0.0000 C    0  0  0  0  0  0  0  0  0  0  0  0
    5.3371   -1.1997    0.0000 C    0  0  0  0  0  0  0  0  0  0  0  0
    3.4176   -5.8346    0.0000 C    0  0  0  0  0  0  0  0  0  0  0  0
    4.6524   -5.3371    0.0000 C    0  0  0  0  0  0  0  0  0  0  0  0
    0.0000   -3.4118    0.0000 C    0  0  0  0  0  0  0  0  0  0  0  0
    0.5150   -4.6349    0.0000 C    0  0  0  0  0  0  0  0  0  0  0  0
    1.1997   -0.4974    0.0000 C    0  0  0  0  0  0  0  0  0  0  0  0
    2.4345    0.0000    0.0000 C    0  0  0  0  0  0  0  0  0  0  0  0
  1  2  1  0  0  0  0
  1  8  1  0  0  0  0
  2  3  1  0  0  0  0
  2  9  1  0  0  0  0
  2 10  1  0  0  0  0
  3  4  1  0  0  0  0
  4  5  1  0  0  0  0
  4 11  1  0  0  0  0
  4 12  1  0  0  0  0
  5  6  1  0  0  0  0
  6  7  1  0  0  0  0
  6 13  1  0  0  0  0
  6 14  1  0  0  0  0
  7  8  1  0  0  0  0
  8 15  1  0  0  0  0
  8 16  1  0  0  0  0
M  END
> <ID>
4995

> <Formula>
C8H24O4Si4

> <FW>
296.6158

> <DSSTox_CID>
7205

> <DSSTox_RID>
78349

> <DSSTox_GSID>
27205

> <DSSTox_FileID_Sort>
3032

> <TS_ChemName>
Octamethylcyclotetrasiloxane

> <TS_ChemName_Synonyms>
Cyclotetrasiloxane, octamethyl-; D4

> <TS_CASRN>
556-67-2

> <CASRN_ChemName_Relationship>
primary

> <TS_Description>
single chemical compound

> <ChemNote>


> <STRUCTURE_Shown>
tested chemical

> <STRUCTURE_Formula>
C8H24O4Si4

> <STRUCTURE_MW>
296.6158

> <STRUCTURE_ChemType>
organometallic

> <STRUCTURE_DefinedOrganicForm>


> <STRUCTURE_IUPAC>
2,2,4,4,6,6,8,8-octamethyl-1,3,5,7,2,4,6,8-tetroxatetrasilocane

> <STRUCTURE_SMILES>
C[Si]1(C)O[Si](C)(C)O[Si](C)(C)O[Si](C)(C)O1

> <STRUCTURE_SMILES_Desalt>
C[Si]1(C)O[Si](C)(C)O[Si](C)(C)O[Si](C)(C)O1

> <Substance_modify_yyyymmdd>
20080429

$$$$
