556-88-7
ChemmineR-0915142007XD

  7  6  0  0  0  0  0  0  0  0  2 V2000
    0.6711   -1.1505    0.0000 C   0  0  0  0  0  0  0  0  0  0  0  0
    0.0000    0.0000    0.0000 N   0  0  0  0  0  0  0  0  0  0  0  0
    1.9973   -1.1505    0.0000 N   0  0  0  0  0  0  0  0  0  0  0  0
    0.0000   -2.3009    0.0000 N   0  0  0  0  0  0  0  0  0  0  0  0
    2.6684   -2.3009    0.0000 N   0  3  0  0  0  0  0  0  0  0  0  0
    1.9973   -3.4514    0.0000 O   0  5  0  0  0  0  0  0  0  0  0  0
    3.9946   -2.3009    0.0000 O   0  0  0  0  0  0  0  0  0  0  0  0
  1  2  2  0  0  0  0
  1  3  1  0  0  0  0
  1  4  1  0  0  0  0
  3  5  1  0  0  0  0
  5  6  1  0  0  0  0
  5  7  2  0  0  0  0
M  END
> <ID>
3568

> <Formula>
CH4N4O2

> <FW>
104.0681

> <DSSTox_CID>
4222

> <DSSTox_RID>
77331

> <DSSTox_GSID>
24222

> <DSSTox_FileID_Sort>
2014

> <TS_ChemName>
Nitroguanidine

> <TS_ChemName_Synonyms>


> <TS_CASRN>
556-88-7

> <CASRN_ChemName_Relationship>
primary

> <TS_Description>
single chemical compound

> <ChemNote>
tautomers

> <STRUCTURE_Shown>
tested chemical

> <STRUCTURE_Formula>
CH4N4O2

> <STRUCTURE_MW>
104.0681

> <STRUCTURE_ChemType>
defined organic

> <STRUCTURE_DefinedOrganicForm>
parent

> <STRUCTURE_IUPAC>
1-nitroguanidinato

> <STRUCTURE_SMILES>
N=C(N)N[N+]([O-])=O

> <STRUCTURE_SMILES_Desalt>
N=C(N)N[N+]([O-])=O

> <Substance_modify_yyyymmdd>
20080429

$$$$
