556-08-1
ChemmineR-0915142007XD

 13 13  0  0  0  0  0  0  0  0  1 V2000
    5.9810    0.0000    0.0000 C   0  0  0  0  0  0  0  0  0  0  0  0
    6.6429   -1.1483    0.0000 C   0  0  0  0  0  0  0  0  0  0  0  0
    7.9746   -1.1483    0.0000 O   0  0  0  0  0  0  0  0  0  0  0  0
    5.9810   -2.3047    0.0000 N   0  0  0  0  0  0  0  0  0  0  0  0
    4.6492   -2.3047    0.0000 C   0  0  0  0  0  0  0  0  0  0  0  0
    3.9873   -3.4530    0.0000 C   0  0  0  0  0  0  0  0  0  0  0  0
    2.6555   -3.4530    0.0000 C   0  0  0  0  0  0  0  0  0  0  0  0
    1.9937   -2.3047    0.0000 C   0  0  0  0  0  0  0  0  0  0  0  0
    2.6555   -1.1483    0.0000 C   0  0  0  0  0  0  0  0  0  0  0  0
    3.9873   -1.1483    0.0000 C   0  0  0  0  0  0  0  0  0  0  0  0
    0.6619   -2.3047    0.0000 C   0  0  0  0  0  0  0  0  0  0  0  0
    0.0000   -3.4530    0.0000 O   0  0  0  0  0  0  0  0  0  0  0  0
    0.0000   -1.1483    0.0000 O   0  0  0  0  0  0  0  0  0  0  0  0
  1  2  1  0  0  0  0
  2  3  2  0  0  0  0
  2  4  1  0  0  0  0
  4  5  1  0  0  0  0
  5  6  2  0  0  0  0
  5 10  1  0  0  0  0
  6  7  1  0  0  0  0
  7  8  2  0  0  0  0
  8  9  1  0  0  0  0
  8 11  1  0  0  0  0
  9 10  2  0  0  0  0
 11 12  1  0  0  0  0
 11 13  2  0  0  0  0
M  END
> <ID>
3654

> <Formula>
C9H9NO3

> <FW>
179.1727

> <DSSTox_CID>
4392

> <DSSTox_RID>
77385

> <DSSTox_GSID>
24392

> <DSSTox_FileID_Sort>
2068

> <TS_ChemName>
4-Acetamidobenzoic acid

> <TS_ChemName_Synonyms>


> <TS_CASRN>
556-08-1

> <CASRN_ChemName_Relationship>
primary

> <TS_Description>
single chemical compound

> <ChemNote>


> <STRUCTURE_Shown>
tested chemical

> <STRUCTURE_Formula>
C9H9NO3

> <STRUCTURE_MW>
179.1727

> <STRUCTURE_ChemType>
defined organic

> <STRUCTURE_DefinedOrganicForm>
parent

> <STRUCTURE_IUPAC>
4-(acetylamino)benzoic acid

> <STRUCTURE_SMILES>
O=C(C)Nc1ccc(cc1)C(=O)O

> <STRUCTURE_SMILES_Desalt>
O=C(C)Nc1ccc(cc1)C(=O)O

> <Substance_modify_yyyymmdd>
20080429

$$$$
