556-61-6
ChemmineR-0915142007XD

  4  3  0  0  0  0  0  0  0  0  1 V2000
    3.3274    0.0000    0.0000 C   0  0  0  0  0  0  0  0  0  0  0  0
    1.3376   -1.1513    0.0000 C   0  0  0  0  0  0  0  0  0  0  0  0
    2.6586   -1.1513    0.0000 N   0  0  0  0  0  0  0  0  0  0  0  0
    0.0000   -1.1513    0.0000 S   0  0  0  0  0  0  0  0  0  0  0  0
  1  3  1  0  0  0  0
  2  3  2  0  0  0  0
  2  4  2  0  0  0  0
M  END
> <ID>
4994

> <Formula>
C2H3NS

> <FW>
73.1169

> <DSSTox_CID>
7204

> <DSSTox_RID>
78348

> <DSSTox_GSID>
27204

> <DSSTox_FileID_Sort>
3031

> <TS_ChemName>
Methyl isothiocyanate

> <TS_ChemName_Synonyms>
Methane, isothiocyanato-

> <TS_CASRN>
556-61-6

> <CASRN_ChemName_Relationship>
primary

> <TS_Description>
single chemical compound

> <ChemNote>


> <STRUCTURE_Shown>
tested chemical

> <STRUCTURE_Formula>
C2H3NS

> <STRUCTURE_MW>
73.1169

> <STRUCTURE_ChemType>
defined organic

> <STRUCTURE_DefinedOrganicForm>
parent

> <STRUCTURE_IUPAC>
isothiocyanatomethane

> <STRUCTURE_SMILES>
C\N=C=S

> <STRUCTURE_SMILES_Desalt>
C\N=C=S

> <Substance_modify_yyyymmdd>
20080429

$$$$
