5560-59-8
ChemmineR-0915142007XD

 34 34  0  0  0  0  0  0  0  0  1 V2000
    6.9257   -0.6523    0.0000 N   0  0  0  0  0  0  0  0  0  0  0  0
    2.3040   -0.6523    0.0000 C   0  0  0  0  0  0  0  0  0  0  0  0
   11.5753   -0.6523    0.0000 C   0  0  0  0  0  0  0  0  0  0  0  0
    4.5940   -0.6523    0.0000 C   0  0  0  0  0  0  0  0  0  0  0  0
    9.2574   -0.6523    0.0000 C   0  0  0  0  0  0  0  0  0  0  0  0
    8.1055    0.0000    0.0000 C   0  0  0  0  0  0  0  0  0  0  0  0
    5.7738    0.0000    0.0000 C   0  0  0  0  0  0  0  0  0  0  0  0
    3.4698    0.0000    0.0000 C   0  0  0  0  0  0  0  0  0  0  0  0
   10.4094    0.0000    0.0000 C   0  0  0  0  0  0  0  0  0  0  0  0
    6.9257   -1.9847    0.0000 C   0  0  0  0  0  0  0  0  0  0  0  0
    1.1242    0.0000    0.0000 C   0  0  0  0  0  0  0  0  0  0  0  0
   12.7272    0.0000    0.0000 C   0  0  0  0  0  0  0  0  0  0  0  0
    2.3040   -1.9847    0.0000 C   0  0  0  0  0  0  0  0  0  0  0  0
   11.5753   -1.9847    0.0000 C   0  0  0  0  0  0  0  0  0  0  0  0
    5.7738   -2.6509    0.0000 C   0  0  0  0  0  0  0  0  0  0  0  0
    1.1242   -2.6509    0.0000 C   0  0  0  0  0  0  0  0  0  0  0  0
    0.0000   -0.6523    0.0000 C   0  0  0  0  0  0  0  0  0  0  0  0
   13.8792   -0.6523    0.0000 C   0  0  0  0  0  0  0  0  0  0  0  0
   12.7272   -2.6509    0.0000 C   0  0  0  0  0  0  0  0  0  0  0  0
   13.8792   -1.9847    0.0000 C   0  0  0  0  0  0  0  0  0  0  0  0
    0.0000   -1.9847    0.0000 C   0  0  0  0  0  0  0  0  0  0  0  0
    9.2713   -6.2595    0.0000 C   0  0  0  0  0  0  0  0  0  0  0  0
   10.6037   -6.2595    0.0000 C   0  0  0  0  0  0  0  0  0  0  0  0
    7.9250   -6.2595    0.0000 C   0  0  0  0  0  0  0  0  0  0  0  0
    9.2713   -7.6058    0.0000 C   0  0  0  0  0  0  0  0  0  0  0  0
    8.1193   -8.2443    0.0000 O   0  0  0  0  0  0  0  0  0  0  0  0
    7.2727   -5.1214    0.0000 C   0  0  0  0  0  0  0  0  0  0  0  0
    5.9403   -5.1214    0.0000 O   0  0  0  0  0  0  0  0  0  0  0  0
    7.9250   -3.9417    0.0000 O   0  0  0  0  0  0  0  0  0  0  0  0
   11.2422   -5.0937    0.0000 C   0  0  0  0  0  0  0  0  0  0  0  0
   10.5898   -3.9417    0.0000 O   0  0  0  0  0  0  0  0  0  0  0  0
   12.5746   -5.0937    0.0000 O   0  0  0  0  0  0  0  0  0  0  0  0
    9.2713   -4.9271    0.0000 O   0  0  0  0  0  0  0  0  0  0  0  0
   10.4233   -8.2443    0.0000 O   0  0  0  0  0  0  0  0  0  0  0  0
  1  6  1  0  0  0  0
  1  7  1  0  0  0  0
  1 10  1  0  0  0  0
  2  8  1  0  0  0  0
  2 11  1  0  0  0  0
  2 13  2  0  0  0  0
  3  9  1  0  0  0  0
  3 12  2  0  0  0  0
  3 14  1  0  0  0  0
  4  7  1  0  0  0  0
  4  8  1  0  0  0  0
  5  6  1  0  0  0  0
  5  9  1  0  0  0  0
 10 15  1  0  0  0  0
 11 17  2  0  0  0  0
 12 18  1  0  0  0  0
 13 16  1  0  0  0  0
 14 19  2  0  0  0  0
 16 21  2  0  0  0  0
 17 21  1  0  0  0  0
 18 20  2  0  0  0  0
 19 20  1  0  0  0  0
 22 25  1  0  0  0  0
 22 24  1  0  0  0  0
 22 33  1  0  0  0  0
 22 23  1  0  0  0  0
 23 30  1  0  0  0  0
 24 27  1  0  0  0  0
 25 26  1  0  0  0  0
 25 34  2  0  0  0  0
 27 28  1  0  0  0  0
 27 29  2  0  0  0  0
 30 31  2  0  0  0  0
 30 32  1  0  0  0  0
M  END
> <ID>
11027

> <Formula>
C26H35NO7

> <FW>
473.5586 (281.4351+192.1235)

> <DSSTox_CID>
25562

> <DSSTox_RID>
80959

> <DSSTox_GSID>
45562

> <DSSTox_FileID_Sort>
5640

> <TS_ChemName>
Alverine citrate

> <TS_ChemName_Synonyms>


> <TS_CASRN>
5560-59-8

> <CASRN_ChemName_Relationship>
primary

> <TS_Description>
single chemical compound

> <ChemNote>
parent [150-59-4]

> <STRUCTURE_Shown>
tested chemical

> <STRUCTURE_Formula>
C26H35NO7

> <STRUCTURE_MW>
473.5586

> <STRUCTURE_ChemType>
defined organic

> <STRUCTURE_DefinedOrganicForm>
complex

> <STRUCTURE_IUPAC>
N-ethyl-3-phenyl-N-(3-phenylpropyl)propan-1-amine 2-hydroxypropane-1,2,3-tricarboxylate (1:1)

> <STRUCTURE_SMILES>
O=C(O)C(O)(CC(=O)O)CC(=O)O.CCN(CCCc1ccccc1)CCCc2ccccc2

> <STRUCTURE_SMILES_Desalt>
CCN(CCCc1ccccc1)CCCc2ccccc2

> <Substance_modify_yyyymmdd>
20100107

$$$$
