55635-13-7
ChemmineR-0915142007XD

 24 23  0  0  0  0  0  0  0  0  2 V2000
    6.9063   -5.9924    0.0000 C    0  0  0  0  0  0  0  0  0  0  0  0
    5.7494   -6.6518    0.0000 C    0  0  0  0  0  0  0  0  0  0  0  0
    4.6042   -5.9924    0.0000 C    0  0  0  0  0  0  0  0  0  0  0  0
    4.6042   -4.6620    0.0000 C    0  0  0  0  0  0  0  0  0  0  0  0
    5.7494   -3.9911    0.0000 C    0  0  0  0  0  0  0  0  0  0  0  0
    6.9063   -4.6620    0.0000 C    0  0  0  0  0  0  0  0  0  0  0  0
    8.0631   -6.6518    0.0000 C    0  0  0  0  0  0  0  0  0  0  0  0
    9.2083   -5.9924    0.0000 O    0  0  0  0  0  0  0  0  0  0  0  0
    8.0631   -7.9821    0.0000 O    0  0  0  0  0  0  0  0  0  0  0  0
    6.4204   -7.8086    0.0000 C    0  0  0  0  0  0  0  0  0  0  0  0
    5.0900   -7.8086    0.0000 C    0  0  0  0  0  0  0  0  0  0  0  0
    3.4473   -3.9911    0.0000 O    0  0  0  0  0  0  0  0  0  0  0  0
    8.0631   -3.9911    0.0000 O    0  5  0  0  0  0  0  0  0  0  0  0
    5.7494   -2.6607    0.0000 C    0  0  0  0  0  0  0  0  0  0  0  0
    6.9063   -2.0013    0.0000 C    0  0  0  0  0  0  0  0  0  0  0  0
    6.9063   -0.6710    0.0000 C    0  0  0  0  0  0  0  0  0  0  0  0
    8.0631    0.0000    0.0000 C    0  0  0  0  0  0  0  0  0  0  0  0
    4.6042   -2.0013    0.0000 N    0  0  0  0  0  0  0  0  0  0  0  0
    3.4473   -2.6607    0.0000 O    0  0  0  0  0  0  0  0  0  0  0  0
    2.2905   -2.0013    0.0000 C    0  0  0  0  0  0  0  0  0  0  0  0
    1.1568   -2.6607    0.0000 C    0  0  0  0  0  0  0  0  0  0  0  0
    0.0000   -2.0013    0.0000 C    0  0  0  0  0  0  0  0  0  0  0  0
    9.2083   -8.6531    0.0000 C    0  0  0  0  0  0  0  0  0  0  0  0
   11.5683   -2.7764    0.0000 Na   0  3  0  0  0  0  0  0  0  0  0  0
  1  2  1  0  0  0  0
  1  6  2  0  0  0  0
  1  7  1  0  0  0  0
  2  3  1  0  0  0  0
  2 10  1  0  0  0  0
  2 11  1  0  0  0  0
  3  4  1  0  0  0  0
  4  5  1  0  0  0  0
  4 12  2  0  0  0  0
  5  6  1  0  0  0  0
  5 14  2  0  0  0  0
  6 13  1  0  0  0  0
  7  8  2  0  0  0  0
  7  9  1  0  0  0  0
  9 23  1  0  0  0  0
 14 15  1  0  0  0  0
 14 18  1  0  0  0  0
 15 16  1  0  0  0  0
 16 17  1  0  0  0  0
 18 19  1  0  0  0  0
 19 20  1  0  0  0  0
 20 21  1  0  0  0  0
 21 22  2  0  0  0  0
M  END
> <ID>
12195

> <Formula>
C17H24NNaO5

> <FW>
345.3659 (322.3767+22.9892)

> <DSSTox_CID>
27041

> <DSSTox_RID>
82062

> <DSSTox_GSID>
47041

> <DSSTox_FileID_Sort>
6743

> <TS_ChemName>
Alloxydim-sodium

> <TS_ChemName_Synonyms>


> <TS_CASRN>
55635-13-7

> <CASRN_ChemName_Relationship>
primary

> <TS_Description>
single chemical compound

> <ChemNote>
tautomers; parent [55634-91-8]

> <STRUCTURE_Shown>
tested chemical

> <STRUCTURE_Formula>
C17H24NNaO5

> <STRUCTURE_MW>
345.3659

> <STRUCTURE_ChemType>
defined organic

> <STRUCTURE_DefinedOrganicForm>
salt

> <STRUCTURE_IUPAC>
sodium (6Z)-2-(methoxycarbonyl)-3,3-dimethyl-5-oxo-6-{1-[(prop-2-en-1-yloxy)amino]butylidene}cyclohex-1-en-1-olate

> <STRUCTURE_SMILES>
[Na+].O=C1CC(C)(C)C(=C([O-])/C1=C(\CCC)NOCC=C)C(=O)OC

> <STRUCTURE_SMILES_Desalt>
O=C1CC(C)(C)C(=C(O)/C1=C(\CCC)NOCC=C)C(=O)OC

> <Substance_modify_yyyymmdd>
20100429

$$$$
