557-09-5
ChemmineR-0915142007XD

 21 18  0  0  0  0  0  0  0  0  2 V2000
    3.3031   -1.3258    0.0000 C    0  0  0  0  0  0  0  0  0  0  0  0
    4.4461   -1.9773    0.0000 C    0  0  0  0  0  0  0  0  0  0  0  0
    5.6119   -1.3258    0.0000 C    0  0  0  0  0  0  0  0  0  0  0  0
    6.7548   -1.9773    0.0000 C    0  0  0  0  0  0  0  0  0  0  0  0
    7.9321   -1.3258    0.0000 C    0  0  0  0  0  0  0  0  0  0  0  0
    9.0979   -1.9773    0.0000 C    0  0  0  0  0  0  0  0  0  0  0  0
   10.2523   -1.3258    0.0000 C    0  0  0  0  0  0  0  0  0  0  0  0
   11.4295   -1.9773    0.0000 C    0  0  0  0  0  0  0  0  0  0  0  0
    3.3031    0.0000    0.0000 O    0  0  0  0  0  0  0  0  0  0  0  0
    2.1487   -1.9773    0.0000 O    0  5  0  0  0  0  0  0  0  0  0  0
    3.3031   -4.7547    0.0000 C    0  0  0  0  0  0  0  0  0  0  0  0
    4.4461   -4.1032    0.0000 C    0  0  0  0  0  0  0  0  0  0  0  0
    5.6119   -4.7547    0.0000 C    0  0  0  0  0  0  0  0  0  0  0  0
    6.7548   -4.1032    0.0000 C    0  0  0  0  0  0  0  0  0  0  0  0
    7.9321   -4.7547    0.0000 C    0  0  0  0  0  0  0  0  0  0  0  0
    9.0979   -4.1032    0.0000 C    0  0  0  0  0  0  0  0  0  0  0  0
   10.2523   -4.7547    0.0000 C    0  0  0  0  0  0  0  0  0  0  0  0
   11.4295   -4.1032    0.0000 C    0  0  0  0  0  0  0  0  0  0  0  0
    3.3031   -6.0805    0.0000 O    0  0  0  0  0  0  0  0  0  0  0  0
    2.1487   -4.1032    0.0000 O    0  5  0  0  0  0  0  0  0  0  0  0
    0.0000   -3.0631    0.0000 Zn   0  2  0  0  0  0  0  0  0  0  0  0
  1  2  1  0  0  0  0
  1 10  1  0  0  0  0
  1  9  2  0  0  0  0
  2  3  1  0  0  0  0
  3  4  1  0  0  0  0
  4  5  1  0  0  0  0
  5  6  1  0  0  0  0
  6  7  1  0  0  0  0
  7  8  1  0  0  0  0
 11 12  1  0  0  0  0
 11 20  1  0  0  0  0
 11 19  2  0  0  0  0
 12 13  1  0  0  0  0
 13 14  1  0  0  0  0
 14 15  1  0  0  0  0
 15 16  1  0  0  0  0
 16 17  1  0  0  0  0
 17 18  1  0  0  0  0
M  END
> <ID>
9423

> <Formula>
C16H30O4Zn

> <FW>
351.8160 (143.2040+143.2040+65.4079)

> <DSSTox_CID>
22517

> <DSSTox_RID>
97559

> <DSSTox_GSID>
42517

> <DSSTox_FileID_Sort>
8334

> <TS_ChemName>
Zinc octanoate

> <TS_ChemName_Synonyms>


> <TS_CASRN>
557-09-5

> <CASRN_ChemName_Relationship>
primary

> <TS_Description>
single chemical compound

> <ChemNote>


> <STRUCTURE_Shown>
tested chemical

> <STRUCTURE_Formula>
C16H30O4Zn

> <STRUCTURE_MW>
351.816

> <STRUCTURE_ChemType>
organometallic

> <STRUCTURE_DefinedOrganicForm>


> <STRUCTURE_IUPAC>
zinc dioctanoate

> <STRUCTURE_SMILES>
[Zn+2].CCCCCCCC([O-])=O.[O-]C(=O)CCCCCCC

> <STRUCTURE_SMILES_Desalt>
O=C(O)CCCCCCC

> <Substance_modify_yyyymmdd>
20080825

$$$$
