557-48-2
ChemmineR-0915142007XD

 10  9  0  0  0  0  0  0  0  0  1 V2000
    5.7621   -2.6765    0.0000 C   0  0  0  0  0  0  0  0  0  0  0  0
    6.9339   -2.0108    0.0000 C   0  0  0  0  0  0  0  0  0  0  0  0
    6.9339   -0.7003    0.0000 C   0  0  0  0  0  0  0  0  0  0  0  0
    5.7759   -0.0139    0.0000 C   0  0  0  0  0  0  0  0  0  0  0  0
    4.6388   -0.6657    0.0000 C   0  0  0  0  0  0  0  0  0  0  0  0
    3.4669   -0.0139    0.0000 C   0  0  0  0  0  0  0  0  0  0  0  0
    2.3298   -0.6518    0.0000 C   0  0  0  0  0  0  0  0  0  0  0  0
    1.1580    0.0000    0.0000 C   0  0  0  0  0  0  0  0  0  0  0  0
    0.0000   -0.6518    0.0000 C   0  0  0  0  0  0  0  0  0  0  0  0
    4.5417   -2.1218    0.0000 O   0  0  0  0  0  0  0  0  0  0  0  0
  1  2  1  0  0  0  0
  1 10  2  0  0  0  0
  2  3  2  0  0  0  0
  3  4  1  0  0  0  0
  4  5  2  0  0  0  0
  5  6  1  0  0  0  0
  6  7  1  0  0  0  0
  7  8  1  0  0  0  0
  8  9  1  0  0  0  0
M  END
> <ID>
12254

> <Formula>
C9H14O

> <FW>
138.2069

> <DSSTox_CID>
27104

> <DSSTox_RID>
82114

> <DSSTox_GSID>
47104

> <DSSTox_FileID_Sort>
6795

> <TS_ChemName>
trans-2,cis-6-Nonadienal

> <TS_ChemName_Synonyms>


> <TS_CASRN>
557-48-2

> <CASRN_ChemName_Relationship>
primary

> <TS_Description>
single chemical compound

> <ChemNote>
stereochem

> <STRUCTURE_Shown>
tested chemical

> <STRUCTURE_Formula>
C9H14O

> <STRUCTURE_MW>
138.2069

> <STRUCTURE_ChemType>
defined organic

> <STRUCTURE_DefinedOrganicForm>
parent

> <STRUCTURE_IUPAC>
(2Z,4E)-nona-2,4-dienal

> <STRUCTURE_SMILES>
CCCC\C=C\C=C/C=O

> <STRUCTURE_SMILES_Desalt>
CCCC\C=C\C=C/C=O

> <Substance_modify_yyyymmdd>
20100429

$$$$
