55719-85-2
ChemmineR-0915142007XD

 15 15  0  0  0  0  0  0  0  0  1 V2000
    2.3121   -0.6739    0.0000 C   0  0  0  0  0  0  0  0  0  0  0  0
    2.3121   -2.0011    0.0000 C   0  0  0  0  0  0  0  0  0  0  0  0
    1.1509    0.0000    0.0000 C   0  0  0  0  0  0  0  0  0  0  0  0
    1.1509   -2.6646    0.0000 C   0  0  0  0  0  0  0  0  0  0  0  0
    0.0000   -0.6739    0.0000 C   0  0  0  0  0  0  0  0  0  0  0  0
    0.0000   -2.0011    0.0000 C   0  0  0  0  0  0  0  0  0  0  0  0
    3.4630   -2.6646    0.0000 C   0  0  0  0  0  0  0  0  0  0  0  0
    4.6138   -2.0011    0.0000 C   0  0  0  0  0  0  0  0  0  0  0  0
    5.7647   -2.6646    0.0000 O   0  0  0  0  0  0  0  0  0  0  0  0
    6.9052   -2.0011    0.0000 C   0  0  0  0  0  0  0  0  0  0  0  0
    8.0561   -2.6646    0.0000 C   0  0  0  0  0  0  0  0  0  0  0  0
    6.9052   -0.6739    0.0000 O   0  0  0  0  0  0  0  0  0  0  0  0
    8.0561   -3.9918    0.0000 C   0  0  0  0  0  0  0  0  0  0  0  0
    9.2173   -2.0011    0.0000 C   0  0  0  0  0  0  0  0  0  0  0  0
   10.3682   -2.6646    0.0000 C   0  0  0  0  0  0  0  0  0  0  0  0
  1  2  1  0  0  0  0
  1  3  2  0  0  0  0
  2  4  2  0  0  0  0
  2  7  1  0  0  0  0
  3  5  1  0  0  0  0
  4  6  1  0  0  0  0
  5  6  2  0  0  0  0
  7  8  1  0  0  0  0
  8  9  1  0  0  0  0
  9 10  1  0  0  0  0
 10 11  1  0  0  0  0
 10 12  2  0  0  0  0
 11 13  1  0  0  0  0
 11 14  2  0  0  0  0
 14 15  1  0  0  0  0
M  END
> <ID>
12805

> <Formula>
C13H16O2

> <FW>
204.2649

> <DSSTox_CID>
27684

> <DSSTox_RID>
82501

> <DSSTox_GSID>
47684

> <DSSTox_FileID_Sort>
7182

> <TS_ChemName>
Phenethyl tiglate

> <TS_ChemName_Synonyms>


> <TS_CASRN>
55719-85-2

> <CASRN_ChemName_Relationship>
primary

> <TS_Description>
single chemical compound

> <ChemNote>
stereochem

> <STRUCTURE_Shown>
tested chemical

> <STRUCTURE_Formula>
C13H16O2

> <STRUCTURE_MW>
204.2649

> <STRUCTURE_ChemType>
defined organic

> <STRUCTURE_DefinedOrganicForm>
parent

> <STRUCTURE_IUPAC>
2-phenylethyl (2E)-2-methylbut-2-enoate

> <STRUCTURE_SMILES>
C\C=C(/C)C(=O)OCCc1ccccc1

> <STRUCTURE_SMILES_Desalt>
C\C=C(/C)C(=O)OCCc1ccccc1

> <Substance_modify_yyyymmdd>
20101215

$$$$
