55721-11-4
ChemmineR-0915142007XD

 31 33  0  0  1  0  0  0  0  0  1 V2000
    4.4965   -3.9839    0.0000 C   0  0  0  0  0  0  0  0  0  0  0  0
    4.4965   -5.2653    0.0000 C   0  0  0  0  0  0  0  0  0  0  0  0
    3.3899   -3.2967    0.0000 C   0  0  0  0  0  0  0  0  0  0  0  0
    4.4965   -2.6793    0.0000 C   0  0  0  0  0  0  0  0  0  0  0  0
    3.3899   -5.8594    0.0000 C   0  0  0  0  0  0  0  0  0  0  0  0
    2.2832   -3.9839    0.0000 C   0  0  0  0  0  0  0  0  0  0  0  0
    3.3899   -7.1641    0.0000 C   0  0  0  0  0  0  0  0  0  0  0  0
    2.2832   -5.2187    0.0000 C   0  0  0  0  0  0  0  0  0  0  0  0
    2.2832   -7.7815    0.0000 C   0  0  0  0  0  0  0  0  0  0  0  0
    2.2832   -9.0629    0.0000 C   0  0  0  0  0  0  0  0  0  0  0  0
    3.3899   -9.7385    0.0000 C   0  0  0  0  0  0  0  0  0  0  0  0
    1.1532   -9.7385    0.0000 C   0  0  0  0  0  0  0  0  0  0  0  0
    3.3899  -11.0549    0.0000 C   0  0  0  0  0  0  0  0  0  0  0  0
    4.5431   -9.0629    0.0000 C   0  0  0  0  0  0  0  0  0  0  0  0
    1.1532  -11.0549    0.0000 C   0  0  0  0  0  0  0  0  0  0  0  0
    2.2832  -11.6490    0.0000 C   0  0  0  0  0  0  0  0  0  0  0  0
    0.0000  -11.6490    0.0000 O   0  0  0  0  0  0  0  0  0  0  0  0
    6.7215   -3.9839    0.0000 C   0  0  0  0  0  0  0  0  0  0  0  0
    6.7215   -5.2653    0.0000 C   0  0  0  0  0  0  0  0  0  0  0  0
    5.6265   -3.3316    0.0000 C   0  0  0  0  0  0  0  0  0  0  0  0
    5.6265   -1.9803    0.0000 C   0  0  0  0  0  0  0  0  0  0  0  0
    6.7448   -1.3163    0.0000 C   0  0  0  0  0  0  0  0  0  0  0  0
    4.4383   -1.2814    0.0000 C   0  0  0  0  0  0  0  0  0  0  0  0
    7.8514   -1.9803    0.0000 C   0  0  0  0  0  0  0  0  0  0  0  0
    9.0280   -1.3163    0.0000 C   0  0  0  0  0  0  0  0  0  0  0  0
   10.1696   -2.0269    0.0000 C   0  0  0  0  0  0  0  0  0  0  0  0
    9.0163    0.0000    0.0000 O   0  0  0  0  0  0  0  0  0  0  0  0
   11.3112   -2.6676    0.0000 C   0  0  0  0  0  0  0  0  0  0  0  0
    9.5172   -3.1685    0.0000 C   0  0  0  0  0  0  0  0  0  0  0  0
   10.8335   -0.8504    0.0000 O   0  0  0  0  0  0  0  0  0  0  0  0
    4.4965   -6.5351    0.0000 H   0  0  0  0  0  0  0  0  0  0  0  0
  1  3  1  0  0  0  0
  1  4  1  1  0  0  0
  1 20  1  0  0  0  0
  1  2  1  0  0  0  0
  2  5  1  0  0  0  0
  2 19  1  0  0  0  0
  2 31  1  6  0  0  0
  3  6  1  0  0  0  0
  5  7  2  0  0  0  0
  5  8  1  0  0  0  0
  6  8  1  0  0  0  0
  7  9  1  0  0  0  0
  9 10  2  0  0  0  0
 10 11  1  0  0  0  0
 10 12  1  0  0  0  0
 11 13  1  0  0  0  0
 11 14  2  0  0  0  0
 12 15  1  0  0  0  0
 13 16  1  0  0  0  0
 15 17  1  6  0  0  0
 15 16  1  0  0  0  0
 18 19  1  0  0  0  0
 18 20  1  0  0  0  0
 20 21  1  1  0  0  0
 21 22  1  0  0  0  0
 21 23  1  6  0  0  0
 22 24  1  0  0  0  0
 24 25  1  0  0  0  0
 25 26  1  0  0  0  0
 25 27  1  1  0  0  0
 26 28  1  0  0  0  0
 26 29  1  0  0  0  0
 26 30  1  0  0  0  0
M  END
> <ID>
1211

> <Formula>
C27H44O3

> <FW>
416.6365

> <DSSTox_CID>
1260

> <DSSTox_RID>
76045

> <DSSTox_GSID>
21260

> <DSSTox_FileID_Sort>
729

> <TS_ChemName>
24R,25-Dihydroxyvitamin D3

> <TS_ChemName_Synonyms>
Secalciferol

> <TS_CASRN>
55721-11-4

> <CASRN_ChemName_Relationship>
primary

> <TS_Description>
single chemical compound

> <ChemNote>
stereochem

> <STRUCTURE_Shown>
tested chemical

> <STRUCTURE_Formula>
C27H44O3

> <STRUCTURE_MW>
416.6365

> <STRUCTURE_ChemType>
defined organic

> <STRUCTURE_DefinedOrganicForm>
parent

> <STRUCTURE_IUPAC>
(3S,5Z,7E,24R)-9,10-secocholesta-5,7,10-triene-3,24,25-triol

> <STRUCTURE_SMILES>
C=C3CC[C@H](O)C\C3=C\C=C1/CCC[C@]2(C)[C@H](CC[C@@H]12)[C@H](C)CC[C@@H](O)C(C)(C)O

> <STRUCTURE_SMILES_Desalt>
C=C3CC[C@H](O)C\C3=C\C=C1/CCC[C@]2(C)[C@H](CC[C@@H]12)[C@H](C)CC[C@@H](O)C(C)(C)O

> <Substance_modify_yyyymmdd>
20080429

$$$$
