55721-31-8
ChemmineR-0915142007XD

 54 57  0  0  1  0  0  0  0  0  2 V2000
    0.0000   -1.9461    0.0000 Na   0  3  0  0  0  0  0  0  0  0  0  0
   15.6476   -2.6561    0.0000 C    0  0  0  0  0  0  0  0  0  0  0  0
   17.9882   -2.6561    0.0000 C    0  0  0  0  0  0  0  0  0  0  0  0
   16.7784   -2.0776    0.0000 O    0  0  0  0  0  0  0  0  0  0  0  0
   14.5168   -3.2873    0.0000 O    0  0  0  0  0  0  0  0  0  0  0  0
    5.2071   -3.2873    0.0000 O    0  0  0  0  0  0  0  0  0  0  0  0
   11.0454   -2.6561    0.0000 C    0  0  0  0  0  0  0  0  0  0  0  0
   13.3333   -2.6561    0.0000 C    0  0  0  0  0  0  0  0  0  0  0  0
   19.1190   -3.2873    0.0000 O    0  0  0  0  0  0  0  0  0  0  0  0
    6.4168   -2.6561    0.0000 C    0  0  0  0  0  0  0  0  0  0  0  0
   12.1762   -3.2873    0.0000 C    0  0  0  0  0  0  0  0  0  0  0  0
    9.8882   -3.2873    0.0000 C    0  0  0  0  0  0  0  0  0  0  0  0
    7.5477   -3.2873    0.0000 C    0  0  0  0  0  0  0  0  0  0  0  0
   20.2761   -2.6561    0.0000 C    0  0  0  0  0  0  0  0  0  0  0  0
    8.7048   -2.6561    0.0000 C    0  0  0  0  0  0  0  0  0  0  0  0
   22.7745   -3.2873    0.0000 O    0  0  0  0  0  0  0  0  0  0  0  0
    4.0763   -2.6561    0.0000 C    0  0  0  0  0  0  0  0  0  0  0  0
    2.8928   -3.2873    0.0000 C    0  0  0  0  0  0  0  0  0  0  0  0
   15.6476   -3.9185    0.0000 C    0  0  0  0  0  0  0  0  0  0  0  0
    1.6831   -2.6036    0.0000 C    0  0  0  0  0  0  0  0  0  0  0  0
   21.6700   -2.6561    0.0000 C    0  0  0  0  0  0  0  0  0  0  0  0
   13.3333   -1.3412    0.0000 C    0  0  0  0  0  0  0  0  0  0  0  0
   15.6476   -1.3412    0.0000 C    0  0  0  0  0  0  0  0  0  0  0  0
   16.8573   -4.6285    0.0000 C    0  0  0  0  0  0  0  0  0  0  0  0
   23.9842   -1.3412    0.0000 C    0  0  0  0  0  0  0  0  0  0  0  0
   23.9842   -2.6561    0.0000 C    0  0  0  0  0  0  0  0  0  0  0  0
   17.9882   -3.9185    0.0000 C    0  0  0  0  0  0  0  0  0  0  0  0
   14.5168   -0.6838    0.0000 C    0  0  0  0  0  0  0  0  0  0  0  0
   18.3037   -1.3412    0.0000 C    0  0  0  0  0  0  0  0  0  0  0  0
   11.0454   -1.2886    0.0000 O    0  0  0  0  0  0  0  0  0  0  0  0
   19.9343   -1.3412    0.0000 C    0  0  0  0  0  0  0  0  0  0  0  0
    6.4168   -1.3412    0.0000 C    0  0  0  0  0  0  0  0  0  0  0  0
    4.0763   -1.3412    0.0000 C    0  0  0  0  0  0  0  0  0  0  0  0
    0.5260   -3.2873    0.0000 O    0  0  0  0  0  0  0  0  0  0  0  0
   22.7745   -0.6838    0.0000 C    0  0  0  0  0  0  0  0  0  0  0  0
   21.6700   -1.3412    0.0000 C    0  0  0  0  0  0  0  0  0  0  0  0
    5.2071   -0.6838    0.0000 C    0  0  0  0  0  0  0  0  0  0  0  0
    8.7048   -1.2886    0.0000 O    0  0  0  0  0  0  0  0  0  0  0  0
    1.6831   -1.2886    0.0000 O    0  5  0  0  0  0  0  0  0  0  0  0
   23.9842    0.0000    0.0000 O    0  0  0  0  0  0  0  0  0  0  0  0
   18.9875   -4.6022    0.0000 O    0  0  0  0  0  0  0  0  0  0  0  0
   12.1762   -4.6285    0.0000 C    0  0  0  0  0  0  0  0  0  0  0  0
    9.8882   -4.6285    0.0000 C    0  0  0  0  0  0  0  0  0  0  0  0
    7.5477   -4.6285    0.0000 C    0  0  0  0  0  0  0  0  0  0  0  0
    2.8928   -4.6285    0.0000 C    0  0  0  0  0  0  0  0  0  0  0  0
   20.2761   -3.9711    0.0000 C    0  0  0  0  0  0  0  0  0  0  0  0
   25.1414   -0.6838    0.0000 C    0  0  0  0  0  0  0  0  0  0  0  0
   12.2814   -0.7364    0.0000 C    0  0  0  0  0  0  0  0  0  0  0  0
   16.5680   -0.6838    0.0000 C    0  0  0  0  0  0  0  0  0  0  0  0
   25.1414   -3.2873    0.0000 C    0  0  0  0  0  0  0  0  0  0  0  0
    7.6266   -0.6049    0.0000 C    0  0  0  0  0  0  0  0  0  0  0  0
   13.3333   -5.3386    0.0000 C    0  0  0  0  0  0  0  0  0  0  0  0
    1.6831   -5.3649    0.0000 C    0  0  0  0  0  0  0  0  0  0  0  0
   26.2985   -1.3412    0.0000 C    0  0  0  0  0  0  0  0  0  0  0  0
  2  4  1  0  0  0  0
  2  5  1  0  0  0  0
  2 19  1  1  0  0  0
  2 23  1  0  0  0  0
  3  4  1  0  0  0  0
  3  9  1  6  0  0  0
  3 29  1  0  0  0  0
  3 27  1  0  0  0  0
  8  5  1  6  0  0  0
 10  6  1  6  0  0  0
 17  6  1  1  0  0  0
  7 11  1  0  0  0  0
  7 12  1  0  0  0  0
  7 30  2  0  0  0  0
  8 11  1  0  0  0  0
  8 22  1  0  0  0  0
  9 14  1  0  0  0  0
 10 13  1  0  0  0  0
 10 32  1  0  0  0  0
 11 42  1  1  0  0  0
 12 15  1  0  0  0  0
 12 43  1  1  0  0  0
 13 15  1  0  0  0  0
 13 44  1  6  0  0  0
 14 21  1  0  0  0  0
 14 46  1  6  0  0  0
 14 31  1  0  0  0  0
 15 38  1  6  0  0  0
 21 16  1  1  0  0  0
 16 26  1  0  0  0  0
 17 18  1  0  0  0  0
 17 33  1  0  0  0  0
 18 20  1  0  0  0  0
 18 45  1  1  0  0  0
 19 24  2  0  0  0  0
 20 34  2  0  0  0  0
 20 39  1  0  0  0  0
 21 36  1  0  0  0  0
 22 28  1  0  0  0  0
 22 48  1  1  0  0  0
 23 28  1  0  0  0  0
 23 49  1  1  0  0  0
 24 27  1  0  0  0  0
 25 35  1  0  0  0  0
 25 40  1  1  0  0  0
 25 47  1  0  0  0  0
 25 26  1  0  0  0  0
 26 50  1  6  0  0  0
 27 41  1  6  0  0  0
 29 31  1  0  0  0  0
 32 37  1  0  0  0  0
 32 51  1  6  0  0  0
 33 37  1  0  0  0  0
 35 36  1  0  0  0  0
 42 52  1  0  0  0  0
 45 53  1  0  0  0  0
 47 54  1  0  0  0  0
M  END
> <ID>
11282

> <Formula>
C42H69NaO11

> <FW>
772.9804 (22.9892+749.9912)

> <DSSTox_CID>
25902

> <DSSTox_RID>
81214

> <DSSTox_GSID>
45902

> <DSSTox_FileID_Sort>
5895

> <TS_ChemName>
Salinomycin sodium

> <TS_ChemName_Synonyms>


> <TS_CASRN>
55721-31-8

> <CASRN_ChemName_Relationship>
primary

> <TS_Description>
single chemical compound

> <ChemNote>
stereochem; parent [53003-10-4]

> <STRUCTURE_Shown>
tested chemical

> <STRUCTURE_Formula>
C42H69NaO11

> <STRUCTURE_MW>
772.9804

> <STRUCTURE_ChemType>
defined organic

> <STRUCTURE_DefinedOrganicForm>
salt

> <STRUCTURE_IUPAC>
sodium (2R)-2-{(2R,5S,6R)-6-[(2S,3S,4S,6R)-6-{(2S,5S,7R,9S,10S,12R,15R)-2-[(2R,5R,6S)-5-ethyl-5-hydroxy-6-methyltetrahydro-2H-pyran-2-yl]-15-hydroxy-2,10,12-trimethyl-1,6,8-trioxadispiro[4.1.5.3]pentadec-13-en-9-yl}-3-hydroxy-4-methyl-5-oxooctan-2-yl]-5-m

> <STRUCTURE_SMILES>
[Na+].[O-]C(=O)[C@H](CC)[C@H]1CC[C@H](C)[C@@H](O1)[C@@H](C)[C@H](O)[C@H](C)C(=O)[C@H](CC)[C@H]5O[C@]4(C=C[C@@H](O)[C@]2(CC[C@](C)(O2)[C@H]3CC[C@](O)(CC)[C@H](C)O3)O4)[C@H](C)C[C@@H]5C

> <STRUCTURE_SMILES_Desalt>
O=C(O)[C@H](CC)[C@H]1CC[C@H](C)[C@@H](O1)[C@@H](C)[C@H](O)[C@H](C)C(=O)[C@H](CC)[C@H]5O[C@]4(C=C[C@@H](O)[C@]2(CC[C@](C)(O2)[C@H]3CC[C@](O)(CC)[C@H](C)O3)O4)[C@H](C)C[C@@H]5C

> <Substance_modify_yyyymmdd>
20110922

$$$$
