55726-47-1
ChemmineR-0915142007XD

 40 41  0  0  1  0  0  0  0  0  1 V2000
    4.3737   -5.7780    0.0000 N   0  0  0  0  0  0  0  0  0  0  0  0
    4.4176   -7.9868    0.0000 C   0  0  0  0  0  0  0  0  0  0  0  0
    3.2327   -5.1343    0.0000 C   0  0  0  0  0  0  0  0  0  0  0  0
    3.2327   -3.8764    0.0000 N   0  0  0  0  0  0  0  0  0  0  0  0
    4.0226   -9.2594    0.0000 C   0  0  0  0  0  0  0  0  0  0  0  0
    3.3498   -7.1822    0.0000 O   0  0  0  0  0  0  0  0  0  0  0  0
    4.3737   -3.2474    0.0000 C   0  0  0  0  0  0  0  0  0  0  0  0
    5.4708   -5.1051    0.0000 C   0  0  0  0  0  0  0  0  0  0  0  0
    2.6915   -9.2594    0.0000 C   0  0  0  0  0  0  0  0  0  0  0  0
    5.4708   -3.8764    0.0000 C   0  0  0  0  0  0  0  0  0  0  0  0
    2.2527   -7.9868    0.0000 C   0  0  0  0  0  0  0  0  0  0  0  0
    4.3737   -2.0333    0.0000 N   0  0  0  0  0  0  0  0  0  0  0  0
    5.5585   -1.3165    0.0000 C   0  0  0  0  0  0  0  0  0  0  0  0
    2.2088   -5.8072    0.0000 O   0  0  0  0  0  0  0  0  0  0  0  0
    5.5585    0.0000    0.0000 O   0  0  0  0  0  0  0  0  0  0  0  0
    4.8125  -10.3564    0.0000 O   0  0  0  0  0  0  0  0  0  0  0  0
    1.8870  -10.3564    0.0000 O   0  0  0  0  0  0  0  0  0  0  0  0
    0.9801   -7.5625    0.0000 C   0  0  0  0  0  0  0  0  0  0  0  0
    0.0000   -8.4695    0.0000 O   0  0  0  0  0  0  0  0  0  0  0  0
    6.6849   -1.9162    0.0000 C   0  0  0  0  0  0  0  0  0  0  0  0
    7.8258   -1.2434    0.0000 C   0  0  0  0  0  0  0  0  0  0  0  0
   14.6278   -5.1782    0.0000 C   0  0  0  0  0  0  0  0  0  0  0  0
   13.4868   -5.8365    0.0000 C   0  0  0  0  0  0  0  0  0  0  0  0
    7.8258   -3.8617    0.0000 C   0  0  0  0  0  0  0  0  0  0  0  0
   10.0931   -1.2434    0.0000 C   0  0  0  0  0  0  0  0  0  0  0  0
   11.2195   -1.8724    0.0000 C   0  0  0  0  0  0  0  0  0  0  0  0
   11.2195   -3.2181    0.0000 C   0  0  0  0  0  0  0  0  0  0  0  0
   10.0931   -3.8617    0.0000 C   0  0  0  0  0  0  0  0  0  0  0  0
   12.3751   -1.2434    0.0000 C   0  0  0  0  0  0  0  0  0  0  0  0
   13.4868   -1.8724    0.0000 C   0  0  0  0  0  0  0  0  0  0  0  0
   13.4868   -3.2181    0.0000 C   0  0  0  0  0  0  0  0  0  0  0  0
   12.3751   -3.8617    0.0000 C   0  0  0  0  0  0  0  0  0  0  0  0
    8.9522   -1.8724    0.0000 C   0  0  0  0  0  0  0  0  0  0  0  0
    8.9522   -3.2181    0.0000 C   0  0  0  0  0  0  0  0  0  0  0  0
   12.3751   -5.1782    0.0000 C   0  0  0  0  0  0  0  0  0  0  0  0
    7.8258   -5.1782    0.0000 C   0  0  0  0  0  0  0  0  0  0  0  0
    8.9522   -5.8365    0.0000 C   0  0  0  0  0  0  0  0  0  0  0  0
   10.0931   -5.1782    0.0000 C   0  0  0  0  0  0  0  0  0  0  0  0
   11.2195   -5.8365    0.0000 C   0  0  0  0  0  0  0  0  0  0  0  0
   14.6278   -3.8617    0.0000 C   0  0  0  0  0  0  0  0  0  0  0  0
  2  1  1  1  0  0  0
  1  3  1  0  0  0  0
  1  8  1  0  0  0  0
  2  5  1  0  0  0  0
  2  6  1  0  0  0  0
  3  4  1  0  0  0  0
  3 14  2  0  0  0  0
  4  7  2  0  0  0  0
  5  9  1  0  0  0  0
  5 16  1  1  0  0  0
  6 11  1  0  0  0  0
  7 10  1  0  0  0  0
  7 12  1  0  0  0  0
  8 10  2  0  0  0  0
  9 17  1  6  0  0  0
  9 11  1  0  0  0  0
 11 18  1  1  0  0  0
 12 13  1  0  0  0  0
 13 15  2  0  0  0  0
 13 20  1  0  0  0  0
 18 19  1  0  0  0  0
 20 21  1  0  0  0  0
 21 33  1  0  0  0  0
 22 23  1  0  0  0  0
 22 40  1  0  0  0  0
 23 35  1  0  0  0  0
 24 34  1  0  0  0  0
 24 36  1  0  0  0  0
 25 33  1  0  0  0  0
 25 26  1  0  0  0  0
 26 29  1  0  0  0  0
 27 32  1  0  0  0  0
 27 28  1  0  0  0  0
 28 34  1  0  0  0  0
 29 30  1  0  0  0  0
 30 31  1  0  0  0  0
 31 32  1  0  0  0  0
 35 39  1  0  0  0  0
 36 37  1  0  0  0  0
 37 38  1  0  0  0  0
 38 39  1  0  0  0  0
M  END
> <ID>
11881

> <Formula>
C31H55N3O6

> <FW>
565.7849

> <DSSTox_CID>
26682

> <DSSTox_RID>
81817

> <DSSTox_GSID>
46682

> <DSSTox_FileID_Sort>
6498

> <TS_ChemName>
Enocitabine

> <TS_ChemName_Synonyms>


> <TS_CASRN>
55726-47-1

> <CASRN_ChemName_Relationship>
primary

> <TS_Description>
single chemical compound

> <ChemNote>
stereochem

> <STRUCTURE_Shown>
tested chemical

> <STRUCTURE_Formula>
C31H55N3O6

> <STRUCTURE_MW>
565.7849

> <STRUCTURE_ChemType>
defined organic

> <STRUCTURE_DefinedOrganicForm>
parent

> <STRUCTURE_IUPAC>
1-(beta-D-arabinofuranosyl)-4-(docosanoylamino)pyrimidin-2(1H)-one

> <STRUCTURE_SMILES>
CCCCCCCCCCCCCCCCCCCCCC(=O)NC1=NC(=O)N(C=C1)[C@@H]2O[C@H](CO)[C@@H](O)[C@@H]2O

> <STRUCTURE_SMILES_Desalt>
CCCCCCCCCCCCCCCCCCCCCC(=O)NC1=NC(=O)N(C=C1)[C@@H]2O[C@H](CO)[C@@H](O)[C@@H]2O

> <Substance_modify_yyyymmdd>
20110805

$$$$
