5575-21-3
ChemmineR-0915142007XD

 32 35  0  0  1  0  0  0  0  0  2 V2000
    8.0433   -3.2967    0.0000 N   0  0  0  0  0  0  0  0  0  0  0  0
    8.0433   -1.9677    0.0000 C   0  0  0  0  0  0  0  0  0  0  0  0
    9.1998   -3.9871    0.0000 C   0  0  0  0  0  0  0  0  0  0  0  0
    6.7143   -3.2967    0.0000 C   0  0  0  0  0  0  0  0  0  0  0  0
    6.7143   -1.9677    0.0000 C   0  0  0  0  0  0  0  0  0  0  0  0
    9.1998   -1.3290    0.0000 S   0  0  0  0  0  0  0  0  0  0  0  0
   10.3562   -3.2967    0.0000 C   0  0  0  0  0  0  0  0  0  0  0  0
    9.1998   -5.3162    0.0000 C   0  0  0  0  0  0  0  0  0  0  0  0
    5.7650   -4.2460    0.0000 O   0  0  0  0  0  0  0  0  0  0  0  0
    5.5578   -1.3290    0.0000 N   0  0  0  0  0  0  0  0  0  0  0  0
   10.3562   -1.9677    0.0000 C   0  0  0  0  0  0  0  0  0  0  0  0
   11.4954   -3.9871    0.0000 C   0  0  0  0  0  0  0  0  0  0  0  0
   10.3562   -5.9548    0.0000 O   0  0  0  0  0  0  0  0  0  0  0  0
    8.0433   -5.9548    0.0000 O   0  5  0  0  0  0  0  0  0  0  0  0
    4.4186   -2.0022    0.0000 C   0  0  0  0  0  0  0  0  0  0  0  0
   12.6518   -3.2967    0.0000 N   0  3  0  0  0  0  0  0  0  0  0  0
    3.2622   -1.3290    0.0000 C   0  0  0  0  0  0  0  0  0  0  0  0
    4.4186   -3.3312    0.0000 O   0  0  0  0  0  0  0  0  0  0  0  0
   12.6518   -1.9677    0.0000 C   0  0  0  0  0  0  0  0  0  0  0  0
   13.7910   -3.9871    0.0000 C   0  0  0  0  0  0  0  0  0  0  0  0
    2.1230   -2.0022    0.0000 C   0  0  0  0  0  0  0  0  0  0  0  0
   13.7910   -1.3290    0.0000 C   0  0  0  0  0  0  0  0  0  0  0  0
   14.9647   -3.2967    0.0000 C   0  0  0  0  0  0  0  0  0  0  0  0
    0.8975   -1.4499    0.0000 C   0  0  0  0  0  0  0  0  0  0  0  0
    1.9677   -3.2967    0.0000 S   0  0  0  0  0  0  0  0  0  0  0  0
   14.9647   -1.9677    0.0000 C   0  0  0  0  0  0  0  0  0  0  0  0
    0.0000   -2.4337    0.0000 C   0  0  0  0  0  0  0  0  0  0  0  0
    0.6732   -3.5902    0.0000 C   0  0  0  0  0  0  0  0  0  0  0  0
   16.1039   -1.3290    0.0000 C   0  0  0  0  0  0  0  0  0  0  0  0
   16.1039    0.0000    0.0000 N   0  0  0  0  0  0  0  0  0  0  0  0
   17.2603   -1.9677    0.0000 O   0  0  0  0  0  0  0  0  0  0  0  0
    8.0433   -0.6214    0.0000 H   0  0  0  0  0  0  0  0  0  0  0  0
  1  2  1  0  0  0  0
  1  3  1  0  0  0  0
  1  4  1  0  0  0  0
  2  5  1  0  0  0  0
  2  6  1  0  0  0  0
  2 32  1  6  0  0  0
  3  7  2  0  0  0  0
  3  8  1  0  0  0  0
  4  9  2  0  0  0  0
  4  5  1  0  0  0  0
  5 10  1  1  0  0  0
  6 11  1  0  0  0  0
  7 12  1  0  0  0  0
  7 11  1  0  0  0  0
  8 13  2  0  0  0  0
  8 14  1  0  0  0  0
 10 15  1  0  0  0  0
 12 16  1  0  0  0  0
 15 17  1  0  0  0  0
 15 18  2  0  0  0  0
 16 19  2  0  0  0  0
 16 20  1  0  0  0  0
 17 21  1  0  0  0  0
 19 22  1  0  0  0  0
 20 23  2  0  0  0  0
 21 24  2  0  0  0  0
 21 25  1  0  0  0  0
 22 26  2  0  0  0  0
 23 26  1  0  0  0  0
 24 27  1  0  0  0  0
 25 28  1  0  0  0  0
 26 29  1  0  0  0  0
 27 28  2  0  0  0  0
 29 30  1  0  0  0  0
 29 31  2  0  0  0  0
M  END
> <ID>
10916

> <Formula>
C20H18N4O5S2

> <FW>
458.5107

> <DSSTox_CID>
25388

> <DSSTox_RID>
80845

> <DSSTox_GSID>
45388

> <DSSTox_FileID_Sort>
5526

> <TS_ChemName>
Cefalonium

> <TS_ChemName_Synonyms>


> <TS_CASRN>
5575-21-3

> <CASRN_ChemName_Relationship>
primary

> <TS_Description>
single chemical compound

> <ChemNote>
stereochem; ammonium

> <STRUCTURE_Shown>
tested chemical

> <STRUCTURE_Formula>
C20H18N4O5S2

> <STRUCTURE_MW>
458.5107

> <STRUCTURE_ChemType>
defined organic

> <STRUCTURE_DefinedOrganicForm>
parent

> <STRUCTURE_IUPAC>
(6R,7R)-3-[(4-carbamoylpyridinium-1-yl)methyl]-8-oxo-7-[(thiophen-2-ylacetyl)amino]-5-thia-1-azabicyclo[4.2.0]oct-2-ene-2-carboxylate

> <STRUCTURE_SMILES>
NC(=O)c4cc[n+](CC=2CS[C@@H]3[C@H](NC(=O)Cc1cccs1)C(=O)N3C=2C([O-])=O)cc4

> <STRUCTURE_SMILES_Desalt>
NC(=O)c4cc[n+](CC=2CS[C@@H]3[C@H](NC(=O)Cc1cccs1)C(=O)N3C=2C(=O)O)cc4

> <Substance_modify_yyyymmdd>
20100107

$$$$
