55750-06-6
ChemmineR-0915142007XD

 36 37  0  0  0  0  0  0  0  0  1 V2000
   19.3843   -5.1547    0.0000 C   0  0  0  0  0  0  0  0  0  0  0  0
   19.3843   -3.8119    0.0000 C   0  0  0  0  0  0  0  0  0  0  0  0
   20.5105   -3.1838    0.0000 C   0  0  0  0  0  0  0  0  0  0  0  0
   21.6584   -3.8335    0.0000 O   0  0  0  0  0  0  0  0  0  0  0  0
   20.5105   -1.8410    0.0000 O   0  0  0  0  0  0  0  0  0  0  0  0
   10.3744   -2.2308    0.0000 C   0  0  0  0  0  0  0  0  0  0  0  0
    4.6132   -1.5811    0.0000 C   0  0  0  0  0  0  0  0  0  0  0  0
   16.1788   -1.5811    0.0000 C   0  0  0  0  0  0  0  0  0  0  0  0
    4.3317   -0.2599    0.0000 N   0  0  0  0  0  0  0  0  0  0  0  0
   16.3737   -0.2166    0.0000 N   0  0  0  0  0  0  0  0  0  0  0  0
    5.7611   -2.2308    0.0000 C   0  0  0  0  0  0  0  0  0  0  0  0
   15.0093   -2.2308    0.0000 C   0  0  0  0  0  0  0  0  0  0  0  0
    9.2265   -1.5811    0.0000 N   0  0  0  0  0  0  0  0  0  0  0  0
   11.5439   -1.5811    0.0000 N   0  0  0  0  0  0  0  0  0  0  0  0
    3.4437   -2.2308    0.0000 N   0  0  0  0  0  0  0  0  0  0  0  0
   17.3484   -2.1442    0.0000 N   0  0  0  0  0  0  0  0  0  0  0  0
   10.3744   -3.5736    0.0000 O   0  0  0  0  0  0  0  0  0  0  0  0
   13.8614   -1.5811    0.0000 C   0  0  0  0  0  0  0  0  0  0  0  0
    6.9090   -1.5811    0.0000 C   0  0  0  0  0  0  0  0  0  0  0  0
   12.6918   -2.2308    0.0000 C   0  0  0  0  0  0  0  0  0  0  0  0
    8.0786   -2.2308    0.0000 C   0  0  0  0  0  0  0  0  0  0  0  0
   17.6732    0.0000    0.0000 C   0  0  0  0  0  0  0  0  0  0  0  0
    3.0322   -0.1516    0.0000 C   0  0  0  0  0  0  0  0  0  0  0  0
    5.7611   -3.5736    0.0000 C   0  0  0  0  0  0  0  0  0  0  0  0
   15.0093   -3.5736    0.0000 C   0  0  0  0  0  0  0  0  0  0  0  0
   18.2797   -1.2129    0.0000 C   0  0  0  0  0  0  0  0  0  0  0  0
    2.4691   -1.3428    0.0000 C   0  0  0  0  0  0  0  0  0  0  0  0
    6.9090   -4.2450    0.0000 C   0  0  0  0  0  0  0  0  0  0  0  0
   13.8614   -4.2450    0.0000 C   0  0  0  0  0  0  0  0  0  0  0  0
   12.6918   -3.5736    0.0000 C   0  0  0  0  0  0  0  0  0  0  0  0
    8.0786   -3.5736    0.0000 C   0  0  0  0  0  0  0  0  0  0  0  0
    0.0000   -6.1293    0.0000 C   0  0  0  0  0  0  0  0  0  0  0  0
    0.0000   -4.8082    0.0000 C   0  0  0  0  0  0  0  0  0  0  0  0
    1.1479   -4.1584    0.0000 C   0  0  0  0  0  0  0  0  0  0  0  0
    2.2741   -4.8082    0.0000 O   0  0  0  0  0  0  0  0  0  0  0  0
    1.1479   -2.8156    0.0000 O   0  0  0  0  0  0  0  0  0  0  0  0
  1  2  1  0  0  0  0
  2  3  1  0  0  0  0
  3  4  1  0  0  0  0
  3  5  2  0  0  0  0
  6 13  1  0  0  0  0
  6 14  1  0  0  0  0
  6 17  2  0  0  0  0
  7 11  1  0  0  0  0
  7  9  2  0  0  0  0
  7 15  1  0  0  0  0
  8 12  1  0  0  0  0
  8 10  2  0  0  0  0
  8 16  1  0  0  0  0
  9 23  1  0  0  0  0
 10 22  1  0  0  0  0
 11 19  2  0  0  0  0
 11 24  1  0  0  0  0
 12 18  2  0  0  0  0
 12 25  1  0  0  0  0
 13 21  1  0  0  0  0
 14 20  1  0  0  0  0
 15 27  1  0  0  0  0
 16 26  1  0  0  0  0
 18 20  1  0  0  0  0
 19 21  1  0  0  0  0
 20 30  2  0  0  0  0
 21 31  2  0  0  0  0
 22 26  1  0  0  0  0
 23 27  1  0  0  0  0
 24 28  2  0  0  0  0
 25 29  2  0  0  0  0
 28 31  1  0  0  0  0
 29 30  1  0  0  0  0
 32 33  1  0  0  0  0
 33 34  1  0  0  0  0
 34 35  1  0  0  0  0
 34 36  2  0  0  0  0
M  END
> <ID>
11824

> <Formula>
C25H32N6O5

> <FW>
496.5588 (74.0785+348.4017+74.0785)

> <DSSTox_CID>
26604

> <DSSTox_RID>
81759

> <DSSTox_GSID>
46604

> <DSSTox_FileID_Sort>
6440

> <TS_ChemName>
Imidocarb dipropionate

> <TS_ChemName_Synonyms>


> <TS_CASRN>
55750-06-6

> <CASRN_ChemName_Relationship>
primary

> <TS_Description>
single chemical compound

> <ChemNote>
parent [27885-92-3]

> <STRUCTURE_Shown>
tested chemical

> <STRUCTURE_Formula>
C25H32N6O5

> <STRUCTURE_MW>
496.5588

> <STRUCTURE_ChemType>
defined organic

> <STRUCTURE_DefinedOrganicForm>
complex

> <STRUCTURE_IUPAC>
propanoic acid - 1,3-bis[3-(4,5-dihydro-1H-imidazol-2-yl)phenyl]urea (2:1)

> <STRUCTURE_SMILES>
CCC(=O)O.CCC(=O)O.O=C(Nc1cc(ccc1)C2=NCCN2)Nc3cccc(c3)C4=NCCN4

> <STRUCTURE_SMILES_Desalt>
O=C(Nc1cc(ccc1)C2=NCCN2)Nc3cccc(c3)C4=NCCN4

> <Substance_modify_yyyymmdd>
20110809

$$$$
