55779-18-5
ChemmineR-0915142007XD

 19 21  0  0  0  0  0  0  0  0  1 V2000
    1.1510    0.0000    0.0000 N    0  0  0  0  0  0  0  0  0  0  0  0
    1.1510   -1.3244    0.0000 C    0  0  0  0  0  0  0  0  0  0  0  0
    0.0000   -1.9945    0.0000 N    0  0  0  0  0  0  0  0  0  0  0  0
    0.0000   -3.3190    0.0000 C    0  0  0  0  0  0  0  0  0  0  0  0
    1.1510   -3.9891    0.0000 N    0  0  0  0  0  0  0  0  0  0  0  0
    2.3020   -3.3190    0.0000 C    0  0  0  0  0  0  0  0  0  0  0  0
    2.3020   -1.9945    0.0000 C    0  0  0  0  0  0  0  0  0  0  0  0
    3.5712   -1.5846    0.0000 N    0  0  0  0  0  0  0  0  0  0  0  0
    4.3517   -2.6568    0.0000 C    0  0  0  0  0  0  0  0  0  0  0  0
    3.5712   -3.7368    0.0000 N    0  0  0  0  0  0  0  0  0  0  0  0
    3.9812   -4.9982    0.0000 C    0  0  0  0  0  0  0  0  0  0  0  0
    5.2820   -5.2741    0.0000 C    0  0  0  0  0  0  0  0  0  0  0  0
    5.6919   -6.5433    0.0000 C    0  0  0  0  0  0  0  0  0  0  0  0
    4.8011   -7.5288    0.0000 Cl   0  0  0  0  0  0  0  0  0  0  0  0
    6.9927   -6.8193    0.0000 C    0  0  0  0  0  0  0  0  0  0  0  0
    7.8835   -5.8259    0.0000 C    0  0  0  0  0  0  0  0  0  0  0  0
    7.4736   -4.5646    0.0000 C    0  0  0  0  0  0  0  0  0  0  0  0
    6.1728   -4.2886    0.0000 C    0  0  0  0  0  0  0  0  0  0  0  0
    5.7629   -3.0194    0.0000 F    0  0  0  0  0  0  0  0  0  0  0  0
  1  2  1  0  0  0  0
  2  3  2  0  0  0  0
  2  7  1  0  0  0  0
  3  4  1  0  0  0  0
  4  5  2  0  0  0  0
  5  6  1  0  0  0  0
  6  7  2  0  0  0  0
  6 10  1  0  0  0  0
  7  8  1  0  0  0  0
  8  9  2  0  0  0  0
  9 10  1  0  0  0  0
 10 11  1  0  0  0  0
 11 12  1  0  0  0  0
 12 13  2  0  0  0  0
 12 18  1  0  0  0  0
 13 14  1  0  0  0  0
 13 15  1  0  0  0  0
 15 16  2  0  0  0  0
 16 17  1  0  0  0  0
 17 18  2  0  0  0  0
 18 19  1  0  0  0  0
M  END
> <ID>
16172

> <Formula>
C12H9ClFN5

> <FW>
277.6848

> <DSSTox_CID>
31562

> <DSSTox_RID>
97447

> <DSSTox_GSID>
57773

> <DSSTox_FileID_Sort>
8514

> <TS_ChemName>
Arprinocid

> <TS_ChemName_Synonyms>


> <TS_CASRN>
55779-18-5

> <CASRN_ChemName_Relationship>
primary

> <TS_Description>
single chemical compound

> <ChemNote>


> <STRUCTURE_Shown>
tested chemical

> <STRUCTURE_Formula>
C12H9ClFN5

> <STRUCTURE_MW>
277.6848

> <STRUCTURE_ChemType>
defined organic

> <STRUCTURE_DefinedOrganicForm>
parent

> <STRUCTURE_IUPAC>
9-(2-chloro-6-fluorobenzyl)-9H-purin-6-amine

> <STRUCTURE_SMILES>
Fc3cccc(Cl)c3Cn2cnc1c(N)ncnc12

> <STRUCTURE_SMILES_Desalt>
Fc3cccc(Cl)c3Cn2cnc1c(N)ncnc12

> <Substance_modify_yyyymmdd>
20131121

$$$$
