5579-78-2
ChemmineR-0915142007XD

 12 12  0  0  0  0  0  0  0  0  1 V2000
    4.4947   -0.3519    0.0000 C   0  0  0  0  0  0  0  0  0  0  0  0
    5.7264   -0.8318    0.0000 C   0  0  0  0  0  0  0  0  0  0  0  0
    3.4390   -1.1677    0.0000 C   0  0  0  0  0  0  0  0  0  0  0  0
    6.7661    0.0000    0.0000 C   0  0  0  0  0  0  0  0  0  0  0  0
    2.2394   -0.6078    0.0000 O   0  0  0  0  0  0  0  0  0  0  0  0
    3.7429   -2.4793    0.0000 C   0  0  0  0  0  0  0  0  0  0  0  0
    7.9977   -0.4799    0.0000 C   0  0  0  0  0  0  0  0  0  0  0  0
    1.0557   -1.1677    0.0000 C   0  0  0  0  0  0  0  0  0  0  0  0
    2.9112   -3.5190    0.0000 C   0  0  0  0  0  0  0  0  0  0  0  0
    0.0000   -0.3519    0.0000 O   0  0  0  0  0  0  0  0  0  0  0  0
    0.7518   -2.4793    0.0000 C   0  0  0  0  0  0  0  0  0  0  0  0
    1.5835   -3.5190    0.0000 C   0  0  0  0  0  0  0  0  0  0  0  0
  1  2  1  0  0  0  0
  1  3  1  0  0  0  0
  2  4  1  0  0  0  0
  3  5  1  0  0  0  0
  3  6  1  0  0  0  0
  4  7  1  0  0  0  0
  5  8  1  0  0  0  0
  6  9  1  0  0  0  0
  8 10  2  0  0  0  0
  8 11  1  0  0  0  0
  9 12  1  0  0  0  0
 11 12  1  0  0  0  0
M  END
> <ID>
12674

> <Formula>
C10H18O2

> <FW>
170.2487

> <DSSTox_CID>
27551

> <DSSTox_RID>
82413

> <DSSTox_GSID>
47551

> <DSSTox_FileID_Sort>
7094

> <TS_ChemName>
epsilon-Decalactone

> <TS_ChemName_Synonyms>


> <TS_CASRN>
5579-78-2

> <CASRN_ChemName_Relationship>
primary

> <TS_Description>
single chemical compound

> <ChemNote>


> <STRUCTURE_Shown>
tested chemical

> <STRUCTURE_Formula>
C10H18O2

> <STRUCTURE_MW>
170.2487

> <STRUCTURE_ChemType>
defined organic

> <STRUCTURE_DefinedOrganicForm>
parent

> <STRUCTURE_IUPAC>
7-butyloxepan-2-one

> <STRUCTURE_SMILES>
O=C1CCCCC(CCCC)O1

> <STRUCTURE_SMILES_Desalt>
O=C1CCCCC(CCCC)O1

> <Substance_modify_yyyymmdd>
20100929

$$$$
