55814-41-0
ChemmineR-0915142007XD

 20 21  0  0  0  0  0  0  0  0  1 V2000
    3.4102   -1.9652    0.0000 C   0  0  0  0  0  0  0  0  0  0  0  0
    3.4102   -0.6705    0.0000 O   0  0  0  0  0  0  0  0  0  0  0  0
    2.2658   -2.6241    0.0000 C   0  0  0  0  0  0  0  0  0  0  0  0
    1.1560   -1.9652    0.0000 C   0  0  0  0  0  0  0  0  0  0  0  0
    2.2658   -3.9420    0.0000 C   0  0  0  0  0  0  0  0  0  0  0  0
    0.0000   -2.6241    0.0000 C   0  0  0  0  0  0  0  0  0  0  0  0
    1.1560   -4.6356    0.0000 C   0  0  0  0  0  0  0  0  0  0  0  0
    0.0000   -3.9420    0.0000 C   0  0  0  0  0  0  0  0  0  0  0  0
    4.6240   -2.6704    0.0000 N   0  0  0  0  0  0  0  0  0  0  0  0
    1.1560   -0.6705    0.0000 C   0  0  0  0  0  0  0  0  0  0  0  0
    5.8262   -2.0114    0.0000 C   0  0  0  0  0  0  0  0  0  0  0  0
    6.9707   -2.6704    0.0000 C   0  0  0  0  0  0  0  0  0  0  0  0
    5.8262   -0.6820    0.0000 C   0  0  0  0  0  0  0  0  0  0  0  0
    8.1498   -2.0114    0.0000 C   0  0  0  0  0  0  0  0  0  0  0  0
    6.9707    0.0000    0.0000 C   0  0  0  0  0  0  0  0  0  0  0  0
    8.1498   -0.6820    0.0000 C   0  0  0  0  0  0  0  0  0  0  0  0
    9.2364   -2.6935    0.0000 O   0  0  0  0  0  0  0  0  0  0  0  0
   10.4155   -2.0461    0.0000 C   0  0  0  0  0  0  0  0  0  0  0  0
   10.4155   -0.6820    0.0000 C   0  0  0  0  0  0  0  0  0  0  0  0
   11.5600   -2.6935    0.0000 C   0  0  0  0  0  0  0  0  0  0  0  0
  1  2  2  0  0  0  0
  1  3  1  0  0  0  0
  1  9  1  0  0  0  0
  3  4  2  0  0  0  0
  3  5  1  0  0  0  0
  4  6  1  0  0  0  0
  4 10  1  0  0  0  0
  5  7  2  0  0  0  0
  6  8  2  0  0  0  0
  7  8  1  0  0  0  0
  9 11  1  0  0  0  0
 11 12  2  0  0  0  0
 11 13  1  0  0  0  0
 12 14  1  0  0  0  0
 13 15  2  0  0  0  0
 14 16  2  0  0  0  0
 14 17  1  0  0  0  0
 15 16  1  0  0  0  0
 17 18  1  0  0  0  0
 18 19  1  0  0  0  0
 18 20  1  0  0  0  0
M  END
> <ID>
7342

> <Formula>
C17H19NO2

> <FW>
269.3383

> <DSSTox_CID>
17565

> <DSSTox_RID>
79337

> <DSSTox_GSID>
37565

> <DSSTox_FileID_Sort>
4019

> <TS_ChemName>
Mepronil

> <TS_ChemName_Synonyms>


> <TS_CASRN>
55814-41-0

> <CASRN_ChemName_Relationship>
primary

> <TS_Description>
single chemical compound

> <ChemNote>


> <STRUCTURE_Shown>
tested chemical

> <STRUCTURE_Formula>
C17H19NO2

> <STRUCTURE_MW>
269.3383

> <STRUCTURE_ChemType>
defined organic

> <STRUCTURE_DefinedOrganicForm>
parent

> <STRUCTURE_IUPAC>
2-methyl-N-[3-(propan-2-yloxy)phenyl]benzamide

> <STRUCTURE_SMILES>
CC(C)Oc1cccc(c1)NC(=O)c2ccccc2C

> <STRUCTURE_SMILES_Desalt>
CC(C)Oc1cccc(c1)NC(=O)c2ccccc2C

> <Substance_modify_yyyymmdd>
20080429

$$$$
