55870-64-9
ChemmineR-0915142007XD

 31 33  0  0  1  0  0  0  0  0  1 V2000
    0.0000   -3.9776    0.0000 C   0  0  0  0  0  0  0  0  0  0  0  0
    0.0000   -2.6517    0.0000 C   0  0  0  0  0  0  0  0  0  0  0  0
    1.1714   -1.9952    0.0000 C   0  0  0  0  0  0  0  0  0  0  0  0
    2.3170   -2.6517    0.0000 O   0  0  0  0  0  0  0  0  0  0  0  0
    2.3170   -3.9776    0.0000 C   0  0  0  0  0  0  0  0  0  0  0  0
    1.1714   -4.6469    0.0000 C   0  0  0  0  0  0  0  0  0  0  0  0
    1.1714   -5.9728    0.0000 N   0  0  0  0  0  0  0  0  0  0  0  0
    1.1714   -0.6565    0.0000 C   0  0  0  0  0  0  0  0  0  0  0  0
    2.3170    0.0000    0.0000 N   0  0  0  0  0  0  0  0  0  0  0  0
    3.4627   -4.6469    0.0000 O   0  0  0  0  0  0  0  0  0  0  0  0
    4.6212   -3.9776    0.0000 C   0  0  0  0  0  0  0  0  0  0  0  0
    4.6212   -2.6517    0.0000 C   0  0  0  0  0  0  0  0  0  0  0  0
    5.7668   -1.9952    0.0000 C   0  0  0  0  0  0  0  0  0  0  0  0
    6.9125   -2.6517    0.0000 C   0  0  0  0  0  0  0  0  0  0  0  0
    6.9125   -3.9776    0.0000 C   0  0  0  0  0  0  0  0  0  0  0  0
    5.7668   -4.6469    0.0000 C   0  0  0  0  0  0  0  0  0  0  0  0
    3.4627   -1.9952    0.0000 N   0  0  0  0  0  0  0  0  0  0  0  0
    5.7668   -5.9728    0.0000 O   0  0  0  0  0  0  0  0  0  0  0  0
    8.0710   -4.6469    0.0000 O   0  0  0  0  0  0  0  0  0  0  0  0
    8.0710   -1.9952    0.0000 N   0  0  0  0  0  0  0  0  0  0  0  0
    9.2295   -3.9776    0.0000 C   0  0  0  0  0  0  0  0  0  0  0  0
    9.2295   -2.6517    0.0000 O   0  0  0  0  0  0  0  0  0  0  0  0
   10.3751   -1.9952    0.0000 C   0  0  0  0  0  0  0  0  0  0  0  0
   11.5465   -2.6517    0.0000 C   0  0  0  0  0  0  0  0  0  0  0  0
   11.5465   -3.9776    0.0000 C   0  0  0  0  0  0  0  0  0  0  0  0
   10.3751   -4.6469    0.0000 C   0  0  0  0  0  0  0  0  0  0  0  0
   12.7179   -4.6469    0.0000 N   0  0  0  0  0  0  0  0  0  0  0  0
   12.2030   -1.5061    0.0000 O   0  0  0  0  0  0  0  0  0  0  0  0
   12.8724   -2.6517    0.0000 C   0  0  0  0  0  0  0  0  0  0  0  0
   10.3751   -5.9728    0.0000 O   0  0  0  0  0  0  0  0  0  0  0  0
   12.7179   -5.9728    0.0000 C   0  0  0  0  0  0  0  0  0  0  0  0
  1  6  1  0  0  0  0
  1  2  1  0  0  0  0
  2  3  2  0  0  0  0
  3  4  1  0  0  0  0
  3  8  1  0  0  0  0
  4  5  1  0  0  0  0
  5 10  1  6  0  0  0
  5  6  1  0  0  0  0
  6  7  1  6  0  0  0
  8  9  1  0  0  0  0
 11 10  1  6  0  0  0
 11 12  1  0  0  0  0
 11 16  1  0  0  0  0
 12 17  1  1  0  0  0
 12 13  1  0  0  0  0
 13 14  1  0  0  0  0
 14 15  1  0  0  0  0
 14 20  1  1  0  0  0
 15 16  1  0  0  0  0
 15 19  1  6  0  0  0
 16 18  1  6  0  0  0
 21 19  1  1  0  0  0
 21 22  1  0  0  0  0
 21 26  1  0  0  0  0
 22 23  1  0  0  0  0
 23 24  1  0  0  0  0
 24 25  1  0  0  0  0
 24 28  1  6  0  0  0
 24 29  1  6  0  0  0
 25 26  1  0  0  0  0
 25 27  1  6  0  0  0
 26 30  1  1  0  0  0
 27 31  1  0  0  0  0
M  END
> <ID>
12053

> <Formula>
C19H37N5O7

> <FW>
447.5264

> <DSSTox_CID>
26887

> <DSSTox_RID>
81990

> <DSSTox_GSID>
46887

> <DSSTox_FileID_Sort>
6671

> <TS_ChemName>
Pentisomicin

> <TS_ChemName_Synonyms>


> <TS_CASRN>
55870-64-9

> <CASRN_ChemName_Relationship>
primary

> <TS_Description>
single chemical compound

> <ChemNote>
stereochem

> <STRUCTURE_Shown>
tested chemical

> <STRUCTURE_Formula>
C19H37N5O7

> <STRUCTURE_MW>
447.5264

> <STRUCTURE_ChemType>
defined organic

> <STRUCTURE_DefinedOrganicForm>
parent

> <STRUCTURE_IUPAC>
(1S,2R,3R,4S,6R)-4,6-diamino-3-{[(2S,3R)-3-amino-6-(aminomethyl)-3,4-dihydro-2H-pyran-2-yl]oxy}-2-hydroxycyclohexyl 3-deoxy-4-C-methyl-3-(methylamino)-beta-L-threo-pentopyranoside

> <STRUCTURE_SMILES>
N[C@@H]3CC=C(CN)O[C@@H]3O[C@H]2[C@@H](O)[C@@H](O[C@H]1OC[C@@](C)(O)[C@H](NC)[C@H]1O)[C@H](N)C[C@@H]2N

> <STRUCTURE_SMILES_Desalt>
N[C@@H]3CC=C(CN)O[C@@H]3O[C@H]2[C@@H](O)[C@@H](O[C@H]1OC[C@@](C)(O)[C@H](NC)[C@H]1O)[C@H](N)C[C@@H]2N

> <Substance_modify_yyyymmdd>
20110727

$$$$
