5588-33-0
ChemmineR-0915142007XD

 26 29  0  0  0  0  0  0  0  0  1 V2000
    4.6083   -0.6636    0.0000 C   0  0  0  0  0  0  0  0  0  0  0  0
    5.7604    0.0000    0.0000 C   0  0  0  0  0  0  0  0  0  0  0  0
    6.9125   -0.6636    0.0000 C   0  0  0  0  0  0  0  0  0  0  0  0
    6.9125   -1.9908    0.0000 C   0  0  0  0  0  0  0  0  0  0  0  0
    5.7604   -2.6544    0.0000 C   0  0  0  0  0  0  0  0  0  0  0  0
    4.6083   -1.9908    0.0000 C   0  0  0  0  0  0  0  0  0  0  0  0
    5.7604   -3.9908    0.0000 N   0  0  0  0  0  0  0  0  0  0  0  0
    4.6083   -4.6544    0.0000 C   0  0  0  0  0  0  0  0  0  0  0  0
    3.4562   -3.9908    0.0000 C   0  0  0  0  0  0  0  0  0  0  0  0
    2.3042   -4.6544    0.0000 C   0  0  0  0  0  0  0  0  0  0  0  0
    2.3042   -5.9816    0.0000 C   0  0  0  0  0  0  0  0  0  0  0  0
    1.1521   -6.6452    0.0000 C   0  0  0  0  0  0  0  0  0  0  0  0
    0.0000   -5.9816    0.0000 C   0  0  0  0  0  0  0  0  0  0  0  0
    0.0000   -4.6544    0.0000 C   0  0  0  0  0  0  0  0  0  0  0  0
    1.1521   -3.9908    0.0000 N   0  0  0  0  0  0  0  0  0  0  0  0
    1.1521   -2.6544    0.0000 C   0  0  0  0  0  0  0  0  0  0  0  0
    6.9125   -4.6544    0.0000 C   0  0  0  0  0  0  0  0  0  0  0  0
    8.0646   -3.9908    0.0000 C   0  0  0  0  0  0  0  0  0  0  0  0
    8.0646   -2.6544    0.0000 S   0  0  0  0  0  0  0  0  0  0  0  0
    9.2167   -4.6544    0.0000 C   0  0  0  0  0  0  0  0  0  0  0  0
    9.2167   -5.9816    0.0000 C   0  0  0  0  0  0  0  0  0  0  0  0
    8.0646   -6.6452    0.0000 C   0  0  0  0  0  0  0  0  0  0  0  0
    8.0646   -7.9816    0.0000 S   0  0  0  0  0  0  0  0  0  0  0  0
    6.9125   -8.6452    0.0000 O   0  0  0  0  0  0  0  0  0  0  0  0
    9.2167   -8.6452    0.0000 C   0  0  0  0  0  0  0  0  0  0  0  0
    6.9125   -5.9816    0.0000 C   0  0  0  0  0  0  0  0  0  0  0  0
  1  2  2  0  0  0  0
  1  6  1  0  0  0  0
  2  3  1  0  0  0  0
  3  4  2  0  0  0  0
  4  5  1  0  0  0  0
  4 19  1  0  0  0  0
  5  6  2  0  0  0  0
  5  7  1  0  0  0  0
  7  8  1  0  0  0  0
  7 17  1  0  0  0  0
  8  9  1  0  0  0  0
  9 10  1  0  0  0  0
 10 11  1  0  0  0  0
 10 15  1  0  0  0  0
 11 12  1  0  0  0  0
 12 13  1  0  0  0  0
 13 14  1  0  0  0  0
 14 15  1  0  0  0  0
 15 16  1  0  0  0  0
 17 18  2  0  0  0  0
 17 26  1  0  0  0  0
 18 19  1  0  0  0  0
 18 20  1  0  0  0  0
 20 21  2  0  0  0  0
 21 22  1  0  0  0  0
 22 23  1  0  0  0  0
 22 26  2  0  0  0  0
 23 24  2  0  0  0  0
 23 25  1  0  0  0  0
M  END
> <ID>
2932

> <Formula>
C21H26N2OS2

> <FW>
386.5739

> <DSSTox_CID>
3265

> <DSSTox_RID>
76948

> <DSSTox_GSID>
23265

> <DSSTox_FileID_Sort>
1632

> <TS_ChemName>
Mesoridazine

> <TS_ChemName_Synonyms>


> <TS_CASRN>
5588-33-0

> <CASRN_ChemName_Relationship>
primary

> <TS_Description>
single chemical compound

> <ChemNote>


> <STRUCTURE_Shown>
tested chemical

> <STRUCTURE_Formula>
C21H26N2OS2

> <STRUCTURE_MW>
386.5739

> <STRUCTURE_ChemType>
defined organic

> <STRUCTURE_DefinedOrganicForm>
parent

> <STRUCTURE_IUPAC>
10-[2-(1-methylpiperidin-2-yl)ethyl]-2-(methylsulfinyl)-10H-phenothiazine

> <STRUCTURE_SMILES>
CS(=O)c2cc3N(CCC1CCCCN1C)c4ccccc4Sc3cc2

> <STRUCTURE_SMILES_Desalt>
CS(=O)c2cc3N(CCC1CCCCN1C)c4ccccc4Sc3cc2

> <Substance_modify_yyyymmdd>
20080429

$$$$
