5588-16-9
ChemmineR-0915142007XD

 22 23  0  0  0  0  0  0  0  0  1 V2000
    0.4820   -2.3085    0.0000 N    0  0  0  0  0  0  0  0  0  0  0  0
    1.1542   -1.1542    0.0000 S    0  0  0  0  0  0  0  0  0  0  0  0
    0.0000   -0.5074    0.0000 O    0  0  0  0  0  0  0  0  0  0  0  0
    1.8138    0.0000    0.0000 O    0  0  0  0  0  0  0  0  0  0  0  0
    2.3085   -1.8265    0.0000 C    0  0  0  0  0  0  0  0  0  0  0  0
    3.4627   -1.1542    0.0000 C    0  0  0  0  0  0  0  0  0  0  0  0
    4.6170   -1.8265    0.0000 C    0  0  0  0  0  0  0  0  0  0  0  0
    4.6170   -3.1583    0.0000 C    0  0  0  0  0  0  0  0  0  0  0  0
    5.7712   -3.8179    0.0000 N    0  0  0  0  0  0  0  0  0  0  0  0
    6.9128   -3.1583    0.0000 C    0  0  0  0  0  0  0  0  0  0  0  0
    8.0670   -3.8179    0.0000 C    0  0  0  0  0  0  0  0  0  0  0  0
    9.2213   -3.1583    0.0000 S    0  0  0  0  0  0  0  0  0  0  0  0
   10.3755   -3.8179    0.0000 C    0  0  0  0  0  0  0  0  0  0  0  0
   11.5298   -3.1583    0.0000 C    0  0  0  0  0  0  0  0  0  0  0  0
   12.6840   -3.8179    0.0000 C    0  0  0  0  0  0  0  0  0  0  0  0
    6.9128   -1.8265    0.0000 N    0  0  0  0  0  0  0  0  0  0  0  0
    5.7712   -1.1542    0.0000 S    0  0  0  0  0  0  0  0  0  0  0  0
    4.8960   -0.1395    0.0000 O    0  0  0  0  0  0  0  0  0  0  0  0
    6.6084   -0.1395    0.0000 O    0  0  0  0  0  0  0  0  0  0  0  0
    3.4627   -3.8179    0.0000 C    0  0  0  0  0  0  0  0  0  0  0  0
    2.3085   -3.1583    0.0000 C    0  0  0  0  0  0  0  0  0  0  0  0
    1.1542   -3.8179    0.0000 Cl   0  0  0  0  0  0  0  0  0  0  0  0
  1  2  1  0  0  0  0
  2  3  2  0  0  0  0
  2  4  2  0  0  0  0
  2  5  1  0  0  0  0
  5  6  2  0  0  0  0
  5 21  1  0  0  0  0
  6  7  1  0  0  0  0
  7  8  2  0  0  0  0
  7 17  1  0  0  0  0
  8  9  1  0  0  0  0
  8 20  1  0  0  0  0
  9 10  1  0  0  0  0
 10 11  1  0  0  0  0
 10 16  1  0  0  0  0
 11 12  1  0  0  0  0
 12 13  1  0  0  0  0
 13 14  1  0  0  0  0
 14 15  2  0  0  0  0
 16 17  1  0  0  0  0
 17 18  2  0  0  0  0
 17 19  2  0  0  0  0
 20 21  2  0  0  0  0
 21 22  1  0  0  0  0
M  END
> <ID>
11246

> <Formula>
C11H14ClN3O4S3

> <FW>
383.8946

> <DSSTox_CID>
25857

> <DSSTox_RID>
81178

> <DSSTox_GSID>
45857

> <DSSTox_FileID_Sort>
5859

> <TS_ChemName>
Althiazide

> <TS_ChemName_Synonyms>


> <TS_CASRN>
5588-16-9

> <CASRN_ChemName_Relationship>
primary

> <TS_Description>
single chemical compound

> <ChemNote>


> <STRUCTURE_Shown>
tested chemical

> <STRUCTURE_Formula>
C11H14ClN3O4S3

> <STRUCTURE_MW>
383.8946

> <STRUCTURE_ChemType>
defined organic

> <STRUCTURE_DefinedOrganicForm>
parent

> <STRUCTURE_IUPAC>
6-chloro-3-[(prop-2-en-1-ylsulfanyl)methyl]-3,4-dihydro-2H-1,2,4-benzothiadiazine-7-sulfonamide 1,1-dioxide

> <STRUCTURE_SMILES>
NS(=O)(=O)c2cc1c(NC(NS1(=O)=O)CSCC=C)cc2Cl

> <STRUCTURE_SMILES_Desalt>
NS(=O)(=O)c2cc1c(NC(NS1(=O)=O)CSCC=C)cc2Cl

> <Substance_modify_yyyymmdd>
20110922

$$$$
