5588-21-6
ChemmineR-0915142007XD

 17 17  0  0  0  0  0  0  0  0  1 V2000
    5.9887   -8.0617    0.0000 C   0  0  0  0  0  0  0  0  0  0  0  0
    4.6528   -8.0617    0.0000 O   0  0  0  0  0  0  0  0  0  0  0  0
    3.9894   -6.9100    0.0000 C   0  0  0  0  0  0  0  0  0  0  0  0
    4.6528   -5.7584    0.0000 C   0  0  0  0  0  0  0  0  0  0  0  0
    3.9894   -4.6067    0.0000 C   0  0  0  0  0  0  0  0  0  0  0  0
    2.6627   -4.6067    0.0000 C   0  0  0  0  0  0  0  0  0  0  0  0
    1.9993   -5.7584    0.0000 C   0  0  0  0  0  0  0  0  0  0  0  0
    2.6627   -6.9100    0.0000 C   0  0  0  0  0  0  0  0  0  0  0  0
    1.9993   -8.0617    0.0000 O   0  0  0  0  0  0  0  0  0  0  0  0
    2.6627   -9.2134    0.0000 C   0  0  0  0  0  0  0  0  0  0  0  0
    0.6634   -5.7584    0.0000 O   0  0  0  0  0  0  0  0  0  0  0  0
    0.0000   -6.9100    0.0000 C   0  0  0  0  0  0  0  0  0  0  0  0
    4.6528   -3.4550    0.0000 C   0  0  0  0  0  0  0  0  0  0  0  0
    3.9894   -2.3033    0.0000 C   0  0  0  0  0  0  0  0  0  0  0  0
    4.6528   -1.1517    0.0000 C   0  0  0  0  0  0  0  0  0  0  0  0
    5.9887   -1.1517    0.0000 N   0  0  0  0  0  0  0  0  0  0  0  0
    3.9894    0.0000    0.0000 O   0  0  0  0  0  0  0  0  0  0  0  0
  1  2  1  0  0  0  0
  2  3  1  0  0  0  0
  3  4  2  0  0  0  0
  3  8  1  0  0  0  0
  4  5  1  0  0  0  0
  5  6  2  0  0  0  0
  5 13  1  0  0  0  0
  6  7  1  0  0  0  0
  7  8  2  0  0  0  0
  7 11  1  0  0  0  0
  8  9  1  0  0  0  0
  9 10  1  0  0  0  0
 11 12  1  0  0  0  0
 13 14  2  0  0  0  0
 14 15  1  0  0  0  0
 15 16  1  0  0  0  0
 15 17  2  0  0  0  0
M  END
> <ID>
16174

> <Formula>
C12H15NO4

> <FW>
237.2518

> <DSSTox_CID>
31564

> <DSSTox_RID>
97449

> <DSSTox_GSID>
57775

> <DSSTox_FileID_Sort>
8516

> <TS_ChemName>
Cintriamide

> <TS_ChemName_Synonyms>


> <TS_CASRN>
5588-21-6

> <CASRN_ChemName_Relationship>
primary

> <TS_Description>
single chemical compound

> <ChemNote>


> <STRUCTURE_Shown>
tested chemical

> <STRUCTURE_Formula>
C12H15NO4

> <STRUCTURE_MW>
237.2518

> <STRUCTURE_ChemType>
defined organic

> <STRUCTURE_DefinedOrganicForm>
parent

> <STRUCTURE_IUPAC>
(2E)-3-(3,4,5-trimethoxyphenyl)acrylamide

> <STRUCTURE_SMILES>
COc1c(cc(cc1OC)/C=C/C(N)=O)OC

> <STRUCTURE_SMILES_Desalt>
COc1c(cc(cc1OC)/C=C/C(N)=O)OC

> <Substance_modify_yyyymmdd>
20131018

$$$$
