5591-45-7
ChemmineR-0915142007XD

 30 33  0  0  0  0  0  0  0  0  1 V2000
    0.0000   -6.6667    0.0000 C   0  0  0  0  0  0  0  0  0  0  0  0
    0.0000   -7.9959    0.0000 C   0  0  0  0  0  0  0  0  0  0  0  0
    1.1527   -8.6501    0.0000 C   0  0  0  0  0  0  0  0  0  0  0  0
    2.3053   -7.9959    0.0000 C   0  0  0  0  0  0  0  0  0  0  0  0
    2.3053   -6.6667    0.0000 C   0  0  0  0  0  0  0  0  0  0  0  0
    1.1527   -5.9917    0.0000 C   0  0  0  0  0  0  0  0  0  0  0  0
    3.4580   -5.9917    0.0000 C   0  0  0  0  0  0  0  0  0  0  0  0
    3.4580   -4.6625    0.0000 C   0  0  0  0  0  0  0  0  0  0  0  0
    4.6106   -6.6667    0.0000 C   0  0  0  0  0  0  0  0  0  0  0  0
    4.6106   -7.9959    0.0000 C   0  0  0  0  0  0  0  0  0  0  0  0
    3.4580   -8.6501    0.0000 S   0  0  0  0  0  0  0  0  0  0  0  0
    5.7736   -8.6501    0.0000 C   0  0  0  0  0  0  0  0  0  0  0  0
    6.9263   -7.9959    0.0000 C   0  0  0  0  0  0  0  0  0  0  0  0
    6.9263   -6.6667    0.0000 C   0  0  0  0  0  0  0  0  0  0  0  0
    8.0789   -5.9917    0.0000 S   0  0  0  0  0  0  0  0  0  0  0  0
    8.7539   -7.1444    0.0000 O   0  0  0  0  0  0  0  0  0  0  0  0
    7.4247   -4.8391    0.0000 O   0  0  0  0  0  0  0  0  0  0  0  0
    9.2316   -5.3375    0.0000 N   0  0  0  0  0  0  0  0  0  0  0  0
   10.3843   -5.9917    0.0000 C   0  0  0  0  0  0  0  0  0  0  0  0
    9.2316   -3.9876    0.0000 C   0  0  0  0  0  0  0  0  0  0  0  0
    5.7736   -5.9917    0.0000 C   0  0  0  0  0  0  0  0  0  0  0  0
    4.6106   -3.9876    0.0000 C   0  0  0  0  0  0  0  0  0  0  0  0
    4.6106   -2.6584    0.0000 C   0  0  0  0  0  0  0  0  0  0  0  0
    5.7217   -1.9834    0.0000 N   0  0  0  0  0  0  0  0  0  0  0  0
    8.0270   -0.6542    0.0000 N   0  0  0  0  0  0  0  0  0  0  0  0
    8.0270   -1.9834    0.0000 C   0  0  0  0  0  0  0  0  0  0  0  0
    6.8744    0.0000    0.0000 C   0  0  0  0  0  0  0  0  0  0  0  0
    6.8744   -2.6584    0.0000 C   0  0  0  0  0  0  0  0  0  0  0  0
    5.7217   -0.6542    0.0000 C   0  0  0  0  0  0  0  0  0  0  0  0
    9.1693    0.0000    0.0000 C   0  0  0  0  0  0  0  0  0  0  0  0
  1  2  2  0  0  0  0
  1  6  1  0  0  0  0
  2  3  1  0  0  0  0
  3  4  2  0  0  0  0
  4  5  1  0  0  0  0
  4 11  1  0  0  0  0
  5  6  2  0  0  0  0
  5  7  1  0  0  0  0
  7  8  2  3  0  0  0
  7  9  1  0  0  0  0
  8 22  1  0  0  0  0
  9 10  2  0  0  0  0
  9 21  1  0  0  0  0
 10 11  1  0  0  0  0
 10 12  1  0  0  0  0
 12 13  2  0  0  0  0
 13 14  1  0  0  0  0
 14 15  1  0  0  0  0
 14 21  2  0  0  0  0
 15 16  2  0  0  0  0
 15 17  2  0  0  0  0
 15 18  1  0  0  0  0
 18 19  1  0  0  0  0
 18 20  1  0  0  0  0
 22 23  1  0  0  0  0
 23 24  1  0  0  0  0
 24 28  1  0  0  0  0
 24 29  1  0  0  0  0
 25 26  1  0  0  0  0
 25 27  1  0  0  0  0
 25 30  1  0  0  0  0
 26 28  1  0  0  0  0
 27 29  1  0  0  0  0
M  END
> <ID>
3267

> <Formula>
C23H29N3O2S2

> <FW>
443.6253

> <DSSTox_CID>
3658

> <DSSTox_RID>
77131

> <DSSTox_GSID>
23658

> <DSSTox_FileID_Sort>
1814

> <TS_ChemName>
Thiothixene

> <TS_ChemName_Synonyms>


> <TS_CASRN>
5591-45-7

> <CASRN_ChemName_Relationship>
primary

> <TS_Description>
mixture of Z,E isomers

> <ChemNote>
mixture Z,E isomers

> <STRUCTURE_Shown>
representative isomer in mixture

> <STRUCTURE_Formula>
C23H29N3O2S2

> <STRUCTURE_MW>
443.6253

> <STRUCTURE_ChemType>
defined organic

> <STRUCTURE_DefinedOrganicForm>
parent

> <STRUCTURE_IUPAC>
N,N-dimethyl-9-[3-(4-methylpiperazin-1-yl)propylidene]-9H-thioxanthene-2-sulfonamide

> <STRUCTURE_SMILES>
CN(C)S(=O)(=O)c2cc3C(=CCCN1CCN(C)CC1)c4ccccc4Sc3cc2

> <STRUCTURE_SMILES_Desalt>
CN(C)S(=O)(=O)c2cc3C(=CCCN1CCN(C)CC1)c4ccccc4Sc3cc2

> <Substance_modify_yyyymmdd>
20110908

$$$$
