5591-49-1
ChemmineR-0915142007XD

 20 21  0  0  0  0  0  0  0  0  1 V2000
    2.2850   -2.6631    0.0000 C   0  0  0  0  0  0  0  0  0  0  0  0
    2.2850   -3.9907    0.0000 C   0  0  0  0  0  0  0  0  0  0  0  0
    1.1505   -1.9793    0.0000 C   0  0  0  0  0  0  0  0  0  0  0  0
    1.1505   -4.6263    0.0000 C   0  0  0  0  0  0  0  0  0  0  0  0
    0.0000   -2.6631    0.0000 C   0  0  0  0  0  0  0  0  0  0  0  0
    0.0000   -3.9907    0.0000 C   0  0  0  0  0  0  0  0  0  0  0  0
    3.4516   -1.9793    0.0000 C   0  0  0  0  0  0  0  0  0  0  0  0
    3.4516   -0.6517    0.0000 O   0  0  0  0  0  0  0  0  0  0  0  0
    4.5780   -2.6631    0.0000 N   0  0  0  0  0  0  0  0  0  0  0  0
    5.7447   -1.9793    0.0000 C   0  0  0  0  0  0  0  0  0  0  0  0
    5.7447   -0.6517    0.0000 C   0  0  0  0  0  0  0  0  0  0  0  0
    6.8791   -2.6631    0.0000 C   0  0  0  0  0  0  0  0  0  0  0  0
    6.8791    0.0000    0.0000 C   0  0  0  0  0  0  0  0  0  0  0  0
    8.0457   -1.9793    0.0000 C   0  0  0  0  0  0  0  0  0  0  0  0
    8.0457   -0.6517    0.0000 C   0  0  0  0  0  0  0  0  0  0  0  0
    3.4516   -4.6263    0.0000 O   0  0  0  0  0  0  0  0  0  0  0  0
    3.4516   -5.9538    0.0000 C   0  0  0  0  0  0  0  0  0  0  0  0
    2.2850   -6.6216    0.0000 O   0  0  0  0  0  0  0  0  0  0  0  0
    4.5780   -6.6377    0.0000 N   0  0  0  0  0  0  0  0  0  0  0  0
    5.7447   -5.9538    0.0000 C   0  0  0  0  0  0  0  0  0  0  0  0
  1  2  1  0  0  0  0
  1  3  2  0  0  0  0
  1  7  1  0  0  0  0
  2  4  2  0  0  0  0
  2 16  1  0  0  0  0
  3  5  1  0  0  0  0
  4  6  1  0  0  0  0
  5  6  2  0  0  0  0
  7  8  2  0  0  0  0
  7  9  1  0  0  0  0
  9 10  1  0  0  0  0
 10 11  1  0  0  0  0
 10 12  2  0  0  0  0
 11 13  2  0  0  0  0
 12 14  1  0  0  0  0
 13 15  1  0  0  0  0
 14 15  2  0  0  0  0
 16 17  1  0  0  0  0
 17 18  2  0  0  0  0
 17 19  1  0  0  0  0
 19 20  1  0  0  0  0
M  END
> <ID>
11547

> <Formula>
C15H14N2O3

> <FW>
270.2833

> <DSSTox_CID>
26253

> <DSSTox_RID>
81480

> <DSSTox_GSID>
46253

> <DSSTox_FileID_Sort>
6161

> <TS_ChemName>
Anilamate

> <TS_ChemName_Synonyms>


> <TS_CASRN>
5591-49-1

> <CASRN_ChemName_Relationship>
primary

> <TS_Description>
single chemical compound

> <ChemNote>


> <STRUCTURE_Shown>
tested chemical

> <STRUCTURE_Formula>
C15H14N2O3

> <STRUCTURE_MW>
270.2833

> <STRUCTURE_ChemType>
defined organic

> <STRUCTURE_DefinedOrganicForm>
parent

> <STRUCTURE_IUPAC>
2-(phenylcarbamoyl)phenyl methylcarbamate

> <STRUCTURE_SMILES>
O=C(Oc2ccccc2C(=O)Nc1ccccc1)NC

> <STRUCTURE_SMILES_Desalt>
O=C(Oc2ccccc2C(=O)Nc1ccccc1)NC

> <Substance_modify_yyyymmdd>
20110817

$$$$
