55981-09-4
ChemmineR-0915142007XD

 21 22  0  0  0  0  0  0  0  0  2 V2000
    6.3804   -2.6420    0.0000 C   0  0  0  0  0  0  0  0  0  0  0  0
    7.5315   -1.9952    0.0000 C   0  0  0  0  0  0  0  0  0  0  0  0
    6.3804   -3.9685    0.0000 C   0  0  0  0  0  0  0  0  0  0  0  0
    5.2293   -1.9952    0.0000 C   0  0  0  0  0  0  0  0  0  0  0  0
    7.5315   -0.6578    0.0000 C   0  0  0  0  0  0  0  0  0  0  0  0
    8.6606   -2.6420    0.0000 O   0  0  0  0  0  0  0  0  0  0  0  0
    5.2293   -4.6373    0.0000 N   0  0  0  0  0  0  0  0  0  0  0  0
    7.5315   -4.6373    0.0000 O   0  0  0  0  0  0  0  0  0  0  0  0
    5.2293   -0.6578    0.0000 C   0  0  0  0  0  0  0  0  0  0  0  0
    6.3804    0.0000    0.0000 C   0  0  0  0  0  0  0  0  0  0  0  0
    9.8117   -1.9952    0.0000 C   0  0  0  0  0  0  0  0  0  0  0  0
    4.0672   -3.9905    0.0000 C   0  0  0  0  0  0  0  0  0  0  0  0
    9.8117   -0.6578    0.0000 C   0  0  0  0  0  0  0  0  0  0  0  0
   10.9628   -2.6420    0.0000 O   0  0  0  0  0  0  0  0  0  0  0  0
    2.7955   -4.4071    0.0000 S   0  0  0  0  0  0  0  0  0  0  0  0
    4.0672   -2.6640    0.0000 N   0  0  0  0  0  0  0  0  0  0  0  0
    2.0062   -3.3217    0.0000 C   0  0  0  0  0  0  0  0  0  0  0  0
    2.7955   -2.2583    0.0000 C   0  0  0  0  0  0  0  0  0  0  0  0
    0.6687   -3.3217    0.0000 N   0  3  0  0  0  0  0  0  0  0  0  0
    0.0000   -4.4948    0.0000 O   0  0  0  0  0  0  0  0  0  0  0  0
    0.0000   -2.1597    0.0000 O   0  5  0  0  0  0  0  0  0  0  0  0
  1  2  2  0  0  0  0
  1  3  1  0  0  0  0
  1  4  1  0  0  0  0
  2  5  1  0  0  0  0
  2  6  1  0  0  0  0
  3  7  1  0  0  0  0
  3  8  2  0  0  0  0
  4  9  2  0  0  0  0
  5 10  2  0  0  0  0
  6 11  1  0  0  0  0
  7 12  1  0  0  0  0
  9 10  1  0  0  0  0
 11 13  1  0  0  0  0
 11 14  2  0  0  0  0
 12 15  1  0  0  0  0
 12 16  2  0  0  0  0
 15 17  1  0  0  0  0
 16 18  1  0  0  0  0
 17 19  1  0  0  0  0
 17 18  2  0  0  0  0
 19 20  2  0  0  0  0
 19 21  1  0  0  0  0
M  END
> <ID>
6645

> <Formula>
C12H9N3O5S

> <FW>
307.282

> <DSSTox_CID>
13757

> <DSSTox_RID>
79095

> <DSSTox_GSID>
33757

> <DSSTox_FileID_Sort>
3777

> <TS_ChemName>
Nitazoxanide

> <TS_ChemName_Synonyms>


> <TS_CASRN>
55981-09-4

> <CASRN_ChemName_Relationship>
primary

> <TS_Description>
single chemical compound

> <ChemNote>


> <STRUCTURE_Shown>
tested chemical

> <STRUCTURE_Formula>
C12H9N3O5S

> <STRUCTURE_MW>
307.282

> <STRUCTURE_ChemType>
defined organic

> <STRUCTURE_DefinedOrganicForm>
parent

> <STRUCTURE_IUPAC>
2-[(5-nitro-1,3-thiazol-2-yl)carbamoyl]phenyl acetate

> <STRUCTURE_SMILES>
O=C(Nc1ncc(s1)[N+]([O-])=O)c2ccccc2OC(C)=O

> <STRUCTURE_SMILES_Desalt>
O=C(Nc1ncc(s1)[N+]([O-])=O)c2ccccc2OC(C)=O

> <Substance_modify_yyyymmdd>
20080429

$$$$
