5598-13-0
ChemmineR-0915142007XD

 16 16  0  0  0  0  0  0  0  0  1 V2000
    3.4455   -1.9889    0.0000 C    0  0  0  0  0  0  0  0  0  0  0  0
    2.3110   -2.6612    0.0000 N    0  0  0  0  0  0  0  0  0  0  0  0
    4.6010   -3.9917    0.0000 P    0  0  0  0  0  0  0  0  0  0  0  0
    4.6010   -2.6612    0.0000 O    0  0  0  0  0  0  0  0  0  0  0  0
    1.1555   -1.9889    0.0000 C    0  0  0  0  0  0  0  0  0  0  0  0
    3.4455   -0.6583    0.0000 C    0  0  0  0  0  0  0  0  0  0  0  0
    2.3110    0.0000    0.0000 C    0  0  0  0  0  0  0  0  0  0  0  0
    1.1555   -0.6583    0.0000 C    0  0  0  0  0  0  0  0  0  0  0  0
    3.2704   -3.9917    0.0000 S    0  0  0  0  0  0  0  0  0  0  0  0
    5.9316   -3.9917    0.0000 O    0  0  0  0  0  0  0  0  0  0  0  0
    4.6010   -5.3223    0.0000 O    0  0  0  0  0  0  0  0  0  0  0  0
    0.0000   -2.6612    0.0000 Cl   0  0  0  0  0  0  0  0  0  0  0  0
    4.6010    0.0000    0.0000 Cl   0  0  0  0  0  0  0  0  0  0  0  0
    0.0000    0.0000    0.0000 Cl   0  0  0  0  0  0  0  0  0  0  0  0
    7.0030   -3.1934    0.0000 C    0  0  0  0  0  0  0  0  0  0  0  0
    5.7565   -5.9806    0.0000 C    0  0  0  0  0  0  0  0  0  0  0  0
  1  2  2  0  0  0  0
  1  4  1  0  0  0  0
  1  6  1  0  0  0  0
  2  5  1  0  0  0  0
  3  4  1  0  0  0  0
  3  9  2  0  0  0  0
  3 10  1  0  0  0  0
  3 11  1  0  0  0  0
  5 12  1  0  0  0  0
  5  8  2  0  0  0  0
  6  7  2  0  0  0  0
  6 13  1  0  0  0  0
  7  8  1  0  0  0  0
  8 14  1  0  0  0  0
 10 15  1  0  0  0  0
 11 16  1  0  0  0  0
M  END
> <ID>
6427

> <Formula>
C7H7Cl3NO3PS

> <FW>
322.5331

> <DSSTox_CID>
12352

> <DSSTox_RID>
78920

> <DSSTox_GSID>
32352

> <DSSTox_FileID_Sort>
3602

> <TS_ChemName>
Chlorpyrifos-methyl

> <TS_ChemName_Synonyms>


> <TS_CASRN>
5598-13-0

> <CASRN_ChemName_Relationship>
primary

> <TS_Description>
single chemical compound

> <ChemNote>


> <STRUCTURE_Shown>
tested chemical

> <STRUCTURE_Formula>
C7H7Cl3NO3PS

> <STRUCTURE_MW>
322.5331

> <STRUCTURE_ChemType>
defined organic

> <STRUCTURE_DefinedOrganicForm>
parent

> <STRUCTURE_IUPAC>
O,O-dimethyl O-(3,5,6-trichloropyridin-2-yl) phosphorothioate

> <STRUCTURE_SMILES>
Clc1cc(Cl)c(Cl)nc1OP(=S)(OC)OC

> <STRUCTURE_SMILES_Desalt>
Clc1cc(Cl)c(Cl)nc1OP(=S)(OC)OC

> <Substance_modify_yyyymmdd>
20080429

$$$$
