5598-15-2
ChemmineR-0915142007XD

 18 18  0  0  0  0  0  0  0  0  1 V2000
    3.4555   -3.4555    0.0000 C    0  0  0  0  0  0  0  0  0  0  0  0
    2.3036   -4.1189    0.0000 N    0  0  0  0  0  0  0  0  0  0  0  0
    5.7591   -3.4555    0.0000 P    0  0  0  0  0  0  0  0  0  0  0  0
    4.6073   -4.1189    0.0000 O    0  0  0  0  0  0  0  0  0  0  0  0
    1.1518   -3.4555    0.0000 C    0  0  0  0  0  0  0  0  0  0  0  0
    3.4555   -2.1286    0.0000 C    0  0  0  0  0  0  0  0  0  0  0  0
    2.3036   -1.4559    0.0000 C    0  0  0  0  0  0  0  0  0  0  0  0
    1.1518   -2.1286    0.0000 C    0  0  0  0  0  0  0  0  0  0  0  0
    6.4226   -4.6073    0.0000 O    0  0  0  0  0  0  0  0  0  0  0  0
    5.0957   -2.3036    0.0000 O    0  0  0  0  0  0  0  0  0  0  0  0
    6.9109   -2.7920    0.0000 O    0  0  0  0  0  0  0  0  0  0  0  0
    0.0000   -4.1189    0.0000 Cl   0  0  0  0  0  0  0  0  0  0  0  0
    4.6073   -1.4559    0.0000 Cl   0  0  0  0  0  0  0  0  0  0  0  0
    0.0000   -1.4559    0.0000 Cl   0  0  0  0  0  0  0  0  0  0  0  0
    5.7591   -1.1518    0.0000 C    0  0  0  0  0  0  0  0  0  0  0  0
    8.0627   -3.4555    0.0000 C    0  0  0  0  0  0  0  0  0  0  0  0
    9.2146   -2.7920    0.0000 C    0  0  0  0  0  0  0  0  0  0  0  0
    5.0957    0.0000    0.0000 C    0  0  0  0  0  0  0  0  0  0  0  0
  1  2  2  0  0  0  0
  1  4  1  0  0  0  0
  1  6  1  0  0  0  0
  2  5  1  0  0  0  0
  3  4  1  0  0  0  0
  3  9  2  0  0  0  0
  3 10  1  0  0  0  0
  3 11  1  0  0  0  0
  5 12  1  0  0  0  0
  5  8  2  0  0  0  0
  6  7  2  0  0  0  0
  6 13  1  0  0  0  0
  7  8  1  0  0  0  0
  8 14  1  0  0  0  0
 10 15  1  0  0  0  0
 11 16  1  0  0  0  0
 15 18  1  0  0  0  0
 16 17  1  0  0  0  0
M  END
> <ID>
7466

> <Formula>
C9H11Cl3NO4P

> <FW>
334.5207

> <DSSTox_CID>
18666

> <DSSTox_RID>
79383

> <DSSTox_GSID>
38666

> <DSSTox_FileID_Sort>
4065

> <TS_ChemName>
Chlorpyrifos oxon

> <TS_ChemName_Synonyms>


> <TS_CASRN>
5598-15-2

> <CASRN_ChemName_Relationship>
primary

> <TS_Description>
single chemical compound

> <ChemNote>


> <STRUCTURE_Shown>
tested chemical

> <STRUCTURE_Formula>
C9H11Cl3NO4P

> <STRUCTURE_MW>
334.5207

> <STRUCTURE_ChemType>
defined organic

> <STRUCTURE_DefinedOrganicForm>
parent

> <STRUCTURE_IUPAC>
diethyl 3,5,6-trichloropyridin-2-yl phosphate

> <STRUCTURE_SMILES>
Clc1cc(Cl)c(Cl)nc1OP(=O)(OCC)OCC

> <STRUCTURE_SMILES_Desalt>
Clc1cc(Cl)c(Cl)nc1OP(=O)(OCC)OCC

> <Substance_modify_yyyymmdd>
20080429

$$$$
