55985-32-5
ChemmineR-0915142007XD

 35 37  0  0  0  0  0  0  0  0  2 V2000
    1.1475   -4.6451    0.0000 C   0  0  0  0  0  0  0  0  0  0  0  0
    0.0000   -3.9815    0.0000 C   0  0  0  0  0  0  0  0  0  0  0  0
    2.3087   -3.9815    0.0000 C   0  0  0  0  0  0  0  0  0  0  0  0
    2.3087   -2.6544    0.0000 C   0  0  0  0  0  0  0  0  0  0  0  0
    3.4562   -1.9908    0.0000 O   0  0  0  0  0  0  0  0  0  0  0  0
    1.1475   -1.9908    0.0000 O   0  0  0  0  0  0  0  0  0  0  0  0
    0.0000   -2.6544    0.0000 C   0  0  0  0  0  0  0  0  0  0  0  0
    3.4562   -4.6451    0.0000 C   0  0  0  0  0  0  0  0  0  0  0  0
    4.6036   -3.9815    0.0000 C   0  0  0  0  0  0  0  0  0  0  0  0
    5.7649   -4.6451    0.0000 C   0  0  0  0  0  0  0  0  0  0  0  0
    6.9124   -3.9815    0.0000 C   0  0  0  0  0  0  0  0  0  0  0  0
    6.9124   -2.6544    0.0000 C   0  0  0  0  0  0  0  0  0  0  0  0
    5.7649   -1.9908    0.0000 C   0  0  0  0  0  0  0  0  0  0  0  0
    5.7649   -0.6636    0.0000 N   0  3  0  0  0  0  0  0  0  0  0  0
    6.9124    0.0000    0.0000 O   0  5  0  0  0  0  0  0  0  0  0  0
    4.6036    0.0000    0.0000 O   0  0  0  0  0  0  0  0  0  0  0  0
    4.6036   -2.6544    0.0000 C   0  0  0  0  0  0  0  0  0  0  0  0
    3.4562   -5.9861    0.0000 C   0  0  0  0  0  0  0  0  0  0  0  0
    4.6036   -6.6497    0.0000 C   0  0  0  0  0  0  0  0  0  0  0  0
    4.6036   -7.9769    0.0000 O   0  0  0  0  0  0  0  0  0  0  0  0
    5.7649   -5.9861    0.0000 O   0  0  0  0  0  0  0  0  0  0  0  0
    6.9124   -6.6497    0.0000 C   0  0  0  0  0  0  0  0  0  0  0  0
    8.0598   -5.9861    0.0000 C   0  0  0  0  0  0  0  0  0  0  0  0
    9.2211   -6.6497    0.0000 N   0  0  0  0  0  0  0  0  0  0  0  0
    9.2211   -7.9769    0.0000 C   0  0  0  0  0  0  0  0  0  0  0  0
   10.3686   -5.9861    0.0000 C   0  0  0  0  0  0  0  0  0  0  0  0
   11.5160   -6.6497    0.0000 C   0  0  0  0  0  0  0  0  0  0  0  0
   12.6773   -5.9861    0.0000 C   0  0  0  0  0  0  0  0  0  0  0  0
   13.8248   -6.6497    0.0000 C   0  0  0  0  0  0  0  0  0  0  0  0
   13.8248   -7.9769    0.0000 C   0  0  0  0  0  0  0  0  0  0  0  0
   12.6773   -8.6405    0.0000 C   0  0  0  0  0  0  0  0  0  0  0  0
   11.5160   -7.9769    0.0000 C   0  0  0  0  0  0  0  0  0  0  0  0
    2.3087   -6.6497    0.0000 C   0  0  0  0  0  0  0  0  0  0  0  0
    2.3087   -7.9769    0.0000 C   0  0  0  0  0  0  0  0  0  0  0  0
    1.1475   -5.9861    0.0000 N   0  0  0  0  0  0  0  0  0  0  0  0
  1  2  1  0  0  0  0
  1  3  2  0  0  0  0
  1 35  1  0  0  0  0
  3  4  1  0  0  0  0
  3  8  1  0  0  0  0
  4  5  2  0  0  0  0
  4  6  1  0  0  0  0
  6  7  1  0  0  0  0
  8  9  1  0  0  0  0
  8 18  1  0  0  0  0
  9 10  2  0  0  0  0
  9 17  1  0  0  0  0
 10 11  1  0  0  0  0
 11 12  2  0  0  0  0
 12 13  1  0  0  0  0
 13 14  1  0  0  0  0
 13 17  2  0  0  0  0
 14 15  1  0  0  0  0
 14 16  2  0  0  0  0
 18 19  1  0  0  0  0
 18 33  2  0  0  0  0
 19 20  2  0  0  0  0
 19 21  1  0  0  0  0
 21 22  1  0  0  0  0
 22 23  1  0  0  0  0
 23 24  1  0  0  0  0
 24 25  1  0  0  0  0
 24 26  1  0  0  0  0
 26 27  1  0  0  0  0
 27 28  2  0  0  0  0
 27 32  1  0  0  0  0
 28 29  1  0  0  0  0
 29 30  2  0  0  0  0
 30 31  1  0  0  0  0
 31 32  2  0  0  0  0
 33 34  1  0  0  0  0
 33 35  1  0  0  0  0
M  END
> <ID>
3017

> <Formula>
C26H29N3O6

> <FW>
479.525

> <DSSTox_CID>
3363

> <DSSTox_RID>
76992

> <DSSTox_GSID>
23363

> <DSSTox_FileID_Sort>
1676

> <TS_ChemName>
Nicardipine

> <TS_ChemName_Synonyms>


> <TS_CASRN>
55985-32-5

> <CASRN_ChemName_Relationship>
primary

> <TS_Description>
single chemical compound

> <ChemNote>


> <STRUCTURE_Shown>
tested chemical

> <STRUCTURE_Formula>
C26H29N3O6

> <STRUCTURE_MW>
479.525

> <STRUCTURE_ChemType>
defined organic

> <STRUCTURE_DefinedOrganicForm>
parent

> <STRUCTURE_IUPAC>
2-[benzyl(methyl)amino]ethyl methyl 2,6-dimethyl-4-(3-nitrophenyl)-1,4-dihydropyridine-3,5-dicarboxylate

> <STRUCTURE_SMILES>
CC=2NC(C)=C(C(C=2C(=O)OCCN(C)Cc1ccccc1)c3cccc(c3)[N+]([O-])=O)C(=O)OC

> <STRUCTURE_SMILES_Desalt>
CC=2NC(C)=C(C(C=2C(=O)OCCN(C)Cc1ccccc1)c3cccc(c3)[N+]([O-])=O)C(=O)OC

> <Substance_modify_yyyymmdd>
20080429

$$$$
