56-06-4
ChemmineR-0915142007XD

  9  9  0  0  0  0  0  0  0  0  1 V2000
    3.4563   -2.0185    0.0000 N   0  0  0  0  0  0  0  0  0  0  0  0
    2.3042   -4.0232    0.0000 N   0  0  0  0  0  0  0  0  0  0  0  0
    3.4563   -3.3273    0.0000 C   0  0  0  0  0  0  0  0  0  0  0  0
    1.1521   -2.0185    0.0000 C   0  0  0  0  0  0  0  0  0  0  0  0
    2.3042   -1.3088    0.0000 C   0  0  0  0  0  0  0  0  0  0  0  0
    1.1521   -3.3273    0.0000 C   0  0  0  0  0  0  0  0  0  0  0  0
    4.6084   -3.9771    0.0000 N   0  0  0  0  0  0  0  0  0  0  0  0
    0.0000   -3.9771    0.0000 N   0  0  0  0  0  0  0  0  0  0  0  0
    2.3042    0.0000    0.0000 O   0  0  0  0  0  0  0  0  0  0  0  0
  1  3  2  0  0  0  0
  1  5  1  0  0  0  0
  2  3  1  0  0  0  0
  2  6  1  0  0  0  0
  3  7  1  0  0  0  0
  4  5  1  0  0  0  0
  4  6  2  0  0  0  0
  5  9  2  0  0  0  0
  6  8  1  0  0  0  0
M  END
> <ID>
14022

> <Formula>
C4H6N4O

> <FW>
126.1166

> <DSSTox_CID>
28964

> <DSSTox_RID>
83229

> <DSSTox_GSID>
49038

> <DSSTox_FileID_Sort>
404

> <TS_ChemName>
2,4-Diamino-6-hydroxypyrimidine

> <TS_ChemName_Synonyms>


> <TS_CASRN>
56-06-4

> <CASRN_ChemName_Relationship>
primary

> <TS_Description>
single chemical compound

> <ChemNote>
tautomers

> <STRUCTURE_Shown>
tested chemical

> <STRUCTURE_Formula>
C4H6N4O

> <STRUCTURE_MW>
126.1166

> <STRUCTURE_ChemType>
defined organic

> <STRUCTURE_DefinedOrganicForm>
parent

> <STRUCTURE_IUPAC>
2,6-diaminopyrimidin-4(1H)-one

> <STRUCTURE_SMILES>
NC1=CC(=O)N=C(N)N1

> <STRUCTURE_SMILES_Desalt>
NC1=CC(=O)N=C(N)N1

> <Substance_modify_yyyymmdd>
20111204

$$$$
