56-18-8
ChemmineR-0915142007XD

  9  8  0  0  0  0  0  0  0  0  1 V2000
    4.6099   -0.6638    0.0000 N   0  0  0  0  0  0  0  0  0  0  0  0
    3.4575    0.0000    0.0000 C   0  0  0  0  0  0  0  0  0  0  0  0
    2.3050   -0.6638    0.0000 C   0  0  0  0  0  0  0  0  0  0  0  0
    1.1525    0.0000    0.0000 C   0  0  0  0  0  0  0  0  0  0  0  0
    0.0000   -0.6638    0.0000 N   0  0  0  0  0  0  0  0  0  0  0  0
    5.7624    0.0000    0.0000 C   0  0  0  0  0  0  0  0  0  0  0  0
    6.9149   -0.6638    0.0000 C   0  0  0  0  0  0  0  0  0  0  0  0
    8.0674    0.0000    0.0000 C   0  0  0  0  0  0  0  0  0  0  0  0
    9.2199   -0.6638    0.0000 N   0  0  0  0  0  0  0  0  0  0  0  0
  1  2  1  0  0  0  0
  1  6  1  0  0  0  0
  2  3  1  0  0  0  0
  3  4  1  0  0  0  0
  4  5  1  0  0  0  0
  6  7  1  0  0  0  0
  7  8  1  0  0  0  0
  8  9  1  0  0  0  0
M  END
> <ID>
4199

> <Formula>
C6H17N3

> <FW>
131.2193

> <DSSTox_CID>
5440

> <DSSTox_RID>
77788

> <DSSTox_GSID>
25440

> <DSSTox_FileID_Sort>
2471

> <TS_ChemName>
Iminobis-3-propylamine

> <TS_ChemName_Synonyms>
3,3'-Iminobis(propylamine)

> <TS_CASRN>
56-18-8

> <CASRN_ChemName_Relationship>
primary

> <TS_Description>
single chemical compound

> <ChemNote>


> <STRUCTURE_Shown>
tested chemical

> <STRUCTURE_Formula>
C6H17N3

> <STRUCTURE_MW>
131.2193

> <STRUCTURE_ChemType>
defined organic

> <STRUCTURE_DefinedOrganicForm>
parent

> <STRUCTURE_IUPAC>
N-(3-aminopropyl)propane-1,3-diamine

> <STRUCTURE_SMILES>
NCCCNCCCN

> <STRUCTURE_SMILES_Desalt>
NCCCNCCCN

> <Substance_modify_yyyymmdd>
20080429

$$$$
