56-49-5
ChemmineR-0915142007XD

 21 25  0  0  0  0  0  0  0  0  1 V2000
    9.9762   -1.1572    0.0000 C   0  0  0  0  0  0  0  0  0  0  0  0
    8.6494   -1.1572    0.0000 C   0  0  0  0  0  0  0  0  0  0  0  0
    7.9809   -2.3045    0.0000 C   0  0  0  0  0  0  0  0  0  0  0  0
    6.6541   -2.3045    0.0000 C   0  0  0  0  0  0  0  0  0  0  0  0
    5.9857   -1.1572    0.0000 C   0  0  0  0  0  0  0  0  0  0  0  0
    4.6589   -1.1572    0.0000 C   0  0  0  0  0  0  0  0  0  0  0  0
    3.9905   -2.3045    0.0000 C   0  0  0  0  0  0  0  0  0  0  0  0
    4.6589   -3.4617    0.0000 C   0  0  0  0  0  0  0  0  0  0  0  0
    5.9857   -3.4617    0.0000 C   0  0  0  0  0  0  0  0  0  0  0  0
    7.0232   -4.2898    0.0000 C   0  0  0  0  0  0  0  0  0  0  0  0
    8.1805   -3.6214    0.0000 C   0  0  0  0  0  0  0  0  0  0  0  0
    3.9905   -4.6090    0.0000 C   0  0  0  0  0  0  0  0  0  0  0  0
    2.6636   -4.6090    0.0000 C   0  0  0  0  0  0  0  0  0  0  0  0
    1.9952   -3.4617    0.0000 C   0  0  0  0  0  0  0  0  0  0  0  0
    0.6684   -3.4617    0.0000 C   0  0  0  0  0  0  0  0  0  0  0  0
    0.0000   -2.3045    0.0000 C   0  0  0  0  0  0  0  0  0  0  0  0
    0.6684   -1.1572    0.0000 C   0  0  0  0  0  0  0  0  0  0  0  0
    1.9952   -1.1572    0.0000 C   0  0  0  0  0  0  0  0  0  0  0  0
    2.6636   -2.3045    0.0000 C   0  0  0  0  0  0  0  0  0  0  0  0
    6.6541    0.0000    0.0000 C   0  0  0  0  0  0  0  0  0  0  0  0
    7.9809    0.0000    0.0000 C   0  0  0  0  0  0  0  0  0  0  0  0
  1  2  1  0  0  0  0
  2  3  2  0  0  0  0
  2 21  1  0  0  0  0
  3  4  1  0  0  0  0
  3 11  1  0  0  0  0
  4  5  2  0  0  0  0
  4  9  1  0  0  0  0
  5  6  1  0  0  0  0
  5 20  1  0  0  0  0
  6  7  2  0  0  0  0
  7  8  1  0  0  0  0
  7 19  1  0  0  0  0
  8  9  2  0  0  0  0
  8 12  1  0  0  0  0
  9 10  1  0  0  0  0
 10 11  1  0  0  0  0
 12 13  2  0  0  0  0
 13 14  1  0  0  0  0
 14 15  2  0  0  0  0
 14 19  1  0  0  0  0
 15 16  1  0  0  0  0
 16 17  2  0  0  0  0
 17 18  1  0  0  0  0
 18 19  2  0  0  0  0
 20 21  2  0  0  0  0
M  END
> <ID>
828

> <Formula>
C21H16

> <FW>
268.3517

> <DSSTox_CID>
862

> <DSSTox_RID>
75832

> <DSSTox_GSID>
20862

> <DSSTox_FileID_Sort>
516

> <TS_ChemName>
3-Methylcholanthrene

> <TS_ChemName_Synonyms>


> <TS_CASRN>
56-49-5

> <CASRN_ChemName_Relationship>
primary

> <TS_Description>
single chemical compound

> <ChemNote>


> <STRUCTURE_Shown>
tested chemical

> <STRUCTURE_Formula>
C21H16

> <STRUCTURE_MW>
268.3517

> <STRUCTURE_ChemType>
defined organic

> <STRUCTURE_DefinedOrganicForm>
parent

> <STRUCTURE_IUPAC>
3-methyl-1,2-dihydrocyclopenta[ij]tetraphene

> <STRUCTURE_SMILES>
Cc2ccc3cc1c5ccccc5ccc1c4CCc2c34

> <STRUCTURE_SMILES_Desalt>
Cc2ccc3cc1c5ccccc5ccc1c4CCc2c34

> <Substance_modify_yyyymmdd>
20080429

$$$$
