56-40-6
ChemmineR-0915142007XD

  5  4  0  0  0  0  0  0  0  0  1 V2000
    2.3124   -1.3174    0.0000 C   0  0  0  0  0  0  0  0  0  0  0  0
    2.3124    0.0000    0.0000 O   0  0  0  0  0  0  0  0  0  0  0  0
    3.4669   -1.9900    0.0000 O   0  0  0  0  0  0  0  0  0  0  0  0
    0.0000   -1.3001    0.0000 N   0  0  0  0  0  0  0  0  0  0  0  0
    1.1718   -1.9726    0.0000 C   0  0  0  0  0  0  0  0  0  0  0  0
  1  2  2  0  0  0  0
  1  3  1  0  0  0  0
  1  5  1  0  0  0  0
  4  5  1  0  0  0  0
M  END
> <ID>
640

> <Formula>
C2H5NO2

> <FW>
75.0666

> <DSSTox_CID>
667

> <DSSTox_RID>
75720

> <DSSTox_GSID>
20667

> <DSSTox_FileID_Sort>
8306

> <TS_ChemName>
Glycine

> <TS_ChemName_Synonyms>
Glycine (Amino-acetic acid)

> <TS_CASRN>
56-40-6

> <CASRN_ChemName_Relationship>
primary

> <TS_Description>
single chemical compound

> <ChemNote>
HCl [6000-43-7]

> <STRUCTURE_Shown>
tested chemical

> <STRUCTURE_Formula>
C2H5NO2

> <STRUCTURE_MW>
75.0666

> <STRUCTURE_ChemType>
defined organic

> <STRUCTURE_DefinedOrganicForm>
parent

> <STRUCTURE_IUPAC>
glycine

> <STRUCTURE_SMILES>
NCC(=O)O

> <STRUCTURE_SMILES_Desalt>
NCC(=O)O

> <Substance_modify_yyyymmdd>
20080429

$$$$
