56-59-7
ChemmineR-0915142007XD

 72 75  0  0  1  0  0  0  0  0  1 V2000
    0.0000  -12.7572    0.0000 N   0  0  0  0  0  0  0  0  0  0  0  0
    1.1122  -12.1030    0.0000 C   0  0  0  0  0  0  0  0  0  0  0  0
    2.3116  -12.7572    0.0000 C   0  0  0  0  0  0  0  0  0  0  0  0
    3.4455  -12.1030    0.0000 N   0  0  0  0  0  0  0  0  0  0  0  0
    4.6013  -12.7572    0.0000 C   0  0  0  0  0  0  0  0  0  0  0  0
    5.7571  -12.1030    0.0000 C   0  0  0  0  0  0  0  0  0  0  0  0
    6.9129  -12.7572    0.0000 N   0  0  0  0  0  0  0  0  0  0  0  0
    8.0469  -12.1030    0.0000 C   0  0  0  0  0  0  0  0  0  0  0  0
    9.2027  -12.7572    0.0000 O   0  0  0  0  0  0  0  0  0  0  0  0
    1.1122  -10.7728    0.0000 O   0  0  0  0  0  0  0  0  0  0  0  0
    4.6013  -14.0875    0.0000 O   0  0  0  0  0  0  0  0  0  0  0  0
    5.7571  -10.7728    0.0000 C   0  0  0  0  0  0  0  0  0  0  0  0
    4.6013  -10.0967    0.0000 C   0  0  0  0  0  0  0  0  0  0  0  0
    4.6231   -8.7229    0.0000 C   0  0  0  0  0  0  0  0  0  0  0  0
    3.4892   -8.0687    0.0000 C   0  0  0  0  0  0  0  0  0  0  0  0
    8.0469  -10.7728    0.0000 C   0  0  0  0  0  0  0  0  0  0  0  0
    6.9783   -9.9877    0.0000 C   0  0  0  0  0  0  0  0  0  0  0  0
    9.1372   -9.9877    0.0000 N   0  0  0  0  0  0  0  0  0  0  0  0
    7.3927   -8.7229    0.0000 C   0  0  0  0  0  0  0  0  0  0  0  0
    8.7229   -8.7229    0.0000 C   0  0  0  0  0  0  0  0  0  0  0  0
   10.2712  -10.6419    0.0000 C   0  0  0  0  0  0  0  0  0  0  0  0
   11.4270   -9.9877    0.0000 C   0  0  0  0  0  0  0  0  0  0  0  0
   12.5828  -10.6419    0.0000 N   0  0  0  0  0  0  0  0  0  0  0  0
   13.7386   -9.9877    0.0000 C   0  0  0  0  0  0  0  0  0  0  0  0
   14.8725  -10.6419    0.0000 C   0  0  0  0  0  0  0  0  0  0  0  0
   16.0501   -9.9877    0.0000 N   0  0  0  0  0  0  0  0  0  0  0  0
   10.2712  -11.9722    0.0000 O   0  0  0  0  0  0  0  0  0  0  0  0
   11.4270   -8.6575    0.0000 C   0  0  0  0  0  0  0  0  0  0  0  0
   10.2712   -7.9814    0.0000 S   0  0  0  0  0  0  0  0  0  0  0  0
   10.2712   -6.6512    0.0000 S   0  0  0  0  0  0  0  0  0  0  0  0
   13.7386   -8.6575    0.0000 O   0  0  0  0  0  0  0  0  0  0  0  0
   14.8725  -11.9722    0.0000 C   0  0  0  0  0  0  0  0  0  0  0  0
   16.0283  -12.6482    0.0000 C   0  0  0  0  0  0  0  0  0  0  0  0
   16.0283  -13.9784    0.0000 O   0  0  0  0  0  0  0  0  0  0  0  0
   17.1841  -11.9940    0.0000 N   0  0  0  0  0  0  0  0  0  0  0  0
   16.0501   -8.6575    0.0000 C   0  0  0  0  0  0  0  0  0  0  0  0
   17.2059   -8.0033    0.0000 C   0  0  0  0  0  0  0  0  0  0  0  0
   14.8943   -7.9814    0.0000 O   0  0  0  0  0  0  0  0  0  0  0  0
   18.3399   -8.6575    0.0000 C   0  0  0  0  0  0  0  0  0  0  0  0
   19.4957   -8.0033    0.0000 C   0  0  0  0  0  0  0  0  0  0  0  0
   20.6514   -8.6575    0.0000 C   0  0  0  0  0  0  0  0  0  0  0  0
   21.8072   -8.0033    0.0000 N   0  0  0  0  0  0  0  0  0  0  0  0
   20.6514   -9.9877    0.0000 O   0  0  0  0  0  0  0  0  0  0  0  0
   17.2059   -6.6730    0.0000 N   0  0  0  0  0  0  0  0  0  0  0  0
   18.3399   -4.6667    0.0000 C   0  0  0  0  0  0  0  0  0  0  0  0
   18.3399   -5.9970    0.0000 C   0  0  0  0  0  0  0  0  0  0  0  0
   17.2059   -3.9907    0.0000 C   0  0  0  0  0  0  0  0  0  0  0  0
   16.0501   -4.6667    0.0000 C   0  0  0  0  0  0  0  0  0  0  0  0
   16.0501   -5.9970    0.0000 C   0  0  0  0  0  0  0  0  0  0  0  0
   20.6514   -4.6667    0.0000 C   0  0  0  0  0  0  0  0  0  0  0  0
   20.6514   -5.9970    0.0000 C   0  0  0  0  0  0  0  0  0  0  0  0
   19.4957   -3.9907    0.0000 C   0  0  0  0  0  0  0  0  0  0  0  0
   19.4957   -6.6730    0.0000 C   0  0  0  0  0  0  0  0  0  0  0  0
   11.4270   -4.6667    0.0000 N   0  0  0  0  0  0  0  0  0  0  0  0
   10.2712   -3.9907    0.0000 C   0  0  0  0  0  0  0  0  0  0  0  0
    9.1372   -4.6667    0.0000 C   0  0  0  0  0  0  0  0  0  0  0  0
    9.1372   -5.9970    0.0000 C   0  0  0  0  0  0  0  0  0  0  0  0
   13.7167   -4.6667    0.0000 C   0  0  0  0  0  0  0  0  0  0  0  0
   13.7167   -5.9970    0.0000 O   0  0  0  0  0  0  0  0  0  0  0  0
   12.5828   -3.9907    0.0000 C   0  0  0  0  0  0  0  0  0  0  0  0
   14.8725   -3.9907    0.0000 N   0  0  0  0  0  0  0  0  0  0  0  0
   14.8725   -6.6512    0.0000 O   0  0  0  0  0  0  0  0  0  0  0  0
   12.5828   -2.6605    0.0000 C   0  0  0  0  0  0  0  0  0  0  0  0
   14.8725   -2.6605    0.0000 C   0  0  0  0  0  0  0  0  0  0  0  0
   13.7167   -2.0063    0.0000 C   0  0  0  0  0  0  0  0  0  0  0  0
   16.0283   -2.0063    0.0000 C   0  0  0  0  0  0  0  0  0  0  0  0
   16.0283   -0.6760    0.0000 C   0  0  0  0  0  0  0  0  0  0  0  0
   13.7167   -0.6760    0.0000 C   0  0  0  0  0  0  0  0  0  0  0  0
   14.8725    0.0000    0.0000 C   0  0  0  0  0  0  0  0  0  0  0  0
    8.0033   -3.9907    0.0000 N   0  0  0  0  0  0  0  0  0  0  0  0
   10.2712   -2.6605    0.0000 O   0  0  0  0  0  0  0  0  0  0  0  0
    3.4892   -6.7602    0.0000 N   0  0  0  0  0  0  0  0  0  0  0  0
  1  2  1  0  0  0  0
  2  3  1  0  0  0  0
  2 10  2  0  0  0  0
  3  4  1  0  0  0  0
  4  5  1  0  0  0  0
  5  6  1  0  0  0  0
  5 11  2  0  0  0  0
  6  7  1  0  0  0  0
  6 12  1  6  0  0  0
  7  8  1  0  0  0  0
  8  9  2  0  0  0  0
 16  8  1  6  0  0  0
 12 13  1  0  0  0  0
 13 14  1  0  0  0  0
 14 15  1  0  0  0  0
 15 72  1  0  0  0  0
 16 17  1  0  0  0  0
 16 18  1  0  0  0  0
 17 19  1  0  0  0  0
 18 20  1  0  0  0  0
 18 21  1  0  0  0  0
 19 20  1  0  0  0  0
 22 21  1  6  0  0  0
 21 27  2  0  0  0  0
 22 23  1  0  0  0  0
 22 28  1  0  0  0  0
 23 24  1  0  0  0  0
 24 25  1  0  0  0  0
 24 31  2  0  0  0  0
 25 26  1  0  0  0  0
 25 32  1  1  0  0  0
 26 36  1  0  0  0  0
 28 29  1  0  0  0  0
 29 30  1  0  0  0  0
 30 57  1  0  0  0  0
 32 33  1  0  0  0  0
 33 34  2  0  0  0  0
 33 35  1  0  0  0  0
 36 37  1  0  0  0  0
 36 38  2  0  0  0  0
 37 39  1  1  0  0  0
 37 44  1  0  0  0  0
 39 40  1  0  0  0  0
 40 41  1  0  0  0  0
 41 42  1  0  0  0  0
 41 43  2  0  0  0  0
 44 49  1  0  0  0  0
 45 47  1  0  0  0  0
 45 52  1  0  0  0  0
 45 46  2  0  0  0  0
 46 53  1  0  0  0  0
 48 47  1  1  0  0  0
 48 61  1  0  0  0  0
 48 49  1  0  0  0  0
 49 62  2  0  0  0  0
 50 51  1  0  0  0  0
 50 52  2  0  0  0  0
 51 53  2  0  0  0  0
 54 55  1  0  0  0  0
 54 60  1  0  0  0  0
 55 56  1  0  0  0  0
 55 71  2  0  0  0  0
 56 57  1  0  0  0  0
 56 70  1  6  0  0  0
 58 59  2  0  0  0  0
 58 60  1  0  0  0  0
 58 61  1  0  0  0  0
 60 63  1  1  0  0  0
 63 65  1  0  0  0  0
 64 66  2  0  0  0  0
 64 65  1  0  0  0  0
 65 68  2  0  0  0  0
 66 67  1  0  0  0  0
 67 69  2  0  0  0  0
 68 69  1  0  0  0  0
M  END
> <ID>
13597

> <Formula>
C46H65N13O11S2

> <FW>
1040.2188

> <DSSTox_CID>
28525

> <DSSTox_RID>
82797

> <DSSTox_GSID>
48599

> <DSSTox_FileID_Sort>
7474

> <TS_ChemName>
Felypressin

> <TS_ChemName_Synonyms>


> <TS_CASRN>
56-59-7

> <CASRN_ChemName_Relationship>
primary

> <TS_Description>
single chemical compound

> <ChemNote>
stereochem

> <STRUCTURE_Shown>
tested chemical

> <STRUCTURE_Formula>
C46H65N13O11S2

> <STRUCTURE_MW>
1040.2188

> <STRUCTURE_ChemType>
defined organic

> <STRUCTURE_DefinedOrganicForm>
parent

> <STRUCTURE_IUPAC>
1-{[(4R,7S,10S,13S,16S,19R)-19-amino-7-(2-amino-2-oxoethyl)-10-(3-amino-3-oxopropyl)-13,16-dibenzyl-6,9,12,15,18-pentaoxo-1,2-dithia-5,8,11,14,17-pentaazacycloicosan-4-yl]carbonyl}-L-prolyl-L-lysylglycinamide

> <STRUCTURE_SMILES>
NC(=O)CNC(=O)[C@H](CCCCN)NC(=O)[C@@H]1CCCN1C(=O)[C@@H]4CSSC[C@H](N)C(=O)N[C@@H](Cc2ccccc2)C(=O)N[C@@H](Cc3ccccc3)C(=O)N[C@@H](CCC(N)=O)C(=O)N[C@@H](CC(N)=O)C(=O)N4

> <STRUCTURE_SMILES_Desalt>
NC(=O)CNC(=O)[C@H](CCCCN)NC(=O)[C@@H]1CCCN1C(=O)[C@@H]4CSSC[C@H](N)C(=O)N[C@@H](Cc2ccccc2)C(=O)N[C@@H](Cc3ccccc3)C(=O)N[C@@H](CCC(N)=O)C(=O)N[C@@H](CC(N)=O)C(=O)N4

> <Substance_modify_yyyymmdd>
20111014

$$$$
