56-55-3
ChemmineR-0915142007XD

 18 21  0  0  0  0  0  0  0  0  1 V2000
    4.6014   -2.6754    0.0000 C   0  0  0  0  0  0  0  0  0  0  0  0
    3.4571   -2.0066    0.0000 C   0  0  0  0  0  0  0  0  0  0  0  0
    4.6014   -3.9970    0.0000 C   0  0  0  0  0  0  0  0  0  0  0  0
    5.7538   -2.0066    0.0000 C   0  0  0  0  0  0  0  0  0  0  0  0
    3.4571   -4.6659    0.0000 C   0  0  0  0  0  0  0  0  0  0  0  0
    2.3047   -2.6754    0.0000 C   0  0  0  0  0  0  0  0  0  0  0  0
    2.3047   -3.9970    0.0000 C   0  0  0  0  0  0  0  0  0  0  0  0
    5.7538   -4.6659    0.0000 C   0  0  0  0  0  0  0  0  0  0  0  0
    6.9061   -2.6754    0.0000 C   0  0  0  0  0  0  0  0  0  0  0  0
    6.9061   -3.9970    0.0000 C   0  0  0  0  0  0  0  0  0  0  0  0
    5.7538   -0.6769    0.0000 C   0  0  0  0  0  0  0  0  0  0  0  0
    1.1524   -2.0066    0.0000 C   0  0  0  0  0  0  0  0  0  0  0  0
    1.1524   -4.6659    0.0000 C   0  0  0  0  0  0  0  0  0  0  0  0
    8.0585   -2.0146    0.0000 C   0  0  0  0  0  0  0  0  0  0  0  0
    6.9061    0.0000    0.0000 C   0  0  0  0  0  0  0  0  0  0  0  0
    0.0000   -2.6754    0.0000 C   0  0  0  0  0  0  0  0  0  0  0  0
    0.0000   -3.9970    0.0000 C   0  0  0  0  0  0  0  0  0  0  0  0
    8.0585   -0.6769    0.0000 C   0  0  0  0  0  0  0  0  0  0  0  0
  1  2  2  0  0  0  0
  1  3  1  0  0  0  0
  1  4  1  0  0  0  0
  2  6  1  0  0  0  0
  3  5  2  0  0  0  0
  3  8  1  0  0  0  0
  4  9  2  0  0  0  0
  4 11  1  0  0  0  0
  5  7  1  0  0  0  0
  6 12  1  0  0  0  0
  6  7  2  0  0  0  0
  7 13  1  0  0  0  0
  8 10  2  0  0  0  0
  9 10  1  0  0  0  0
  9 14  1  0  0  0  0
 11 15  2  0  0  0  0
 12 16  2  0  0  0  0
 13 17  2  0  0  0  0
 14 18  2  0  0  0  0
 15 18  1  0  0  0  0
 16 17  1  0  0  0  0
M  END
> <ID>
3419

> <Formula>
C18H12

> <FW>
228.2879

> <DSSTox_CID>
3902

> <DSSTox_RID>
77226

> <DSSTox_GSID>
23902

> <DSSTox_FileID_Sort>
1909

> <TS_ChemName>
Benz(a)anthracene

> <TS_ChemName_Synonyms>


> <TS_CASRN>
56-55-3

> <CASRN_ChemName_Relationship>
primary

> <TS_Description>
single chemical compound

> <ChemNote>


> <STRUCTURE_Shown>
tested chemical

> <STRUCTURE_Formula>
C18H12

> <STRUCTURE_MW>
228.2879

> <STRUCTURE_ChemType>
defined organic

> <STRUCTURE_DefinedOrganicForm>
parent

> <STRUCTURE_IUPAC>
tetraphene

> <STRUCTURE_SMILES>
c1c4ccccc4cc3c1ccc2ccccc23

> <STRUCTURE_SMILES_Desalt>
c1c4ccccc4cc3c1ccc2ccccc23

> <Substance_modify_yyyymmdd>
20080429

$$$$
