56-54-2
ChemmineR-0915142007XD

 25 28  0  0  1  0  0  0  0  0  1 V2000
    4.5403   -1.3850    0.0000 C   0  0  0  0  0  0  0  0  0  0  0  0
    5.7418   -2.0821    0.0000 C   0  0  0  0  0  0  0  0  0  0  0  0
    4.5403    0.0000    0.0000 C   0  0  0  0  0  0  0  0  0  0  0  0
    3.3662   -2.0821    0.0000 C   0  0  0  0  0  0  0  0  0  0  0  0
    4.9897   -2.1830    0.0000 N   0  0  0  0  0  0  0  0  0  0  0  0
    6.1729   -2.8617    0.0000 C   0  0  0  0  0  0  0  0  0  0  0  0
    4.9897   -0.7796    0.0000 C   0  0  0  0  0  0  0  0  0  0  0  0
    3.7973   -2.8617    0.0000 C   0  0  0  0  0  0  0  0  0  0  0  0
    6.7233   -1.1190    0.0000 C   0  0  0  0  0  0  0  0  0  0  0  0
    8.0716   -1.4859    0.0000 C   0  0  0  0  0  0  0  0  0  0  0  0
    3.4304   -4.1917    0.0000 C   0  0  0  0  0  0  0  0  0  0  0  0
    4.8796   -3.7148    0.0000 H   0  0  0  0  0  0  0  0  0  0  0  0
    2.0821   -4.5403    0.0000 O   0  0  0  0  0  0  0  0  0  0  0  0
    4.3752   -5.1732    0.0000 C   0  0  0  0  0  0  0  0  0  0  0  0
    5.7235   -4.8246    0.0000 C   0  0  0  0  0  0  0  0  0  0  0  0
    4.0083   -6.5123    0.0000 C   0  0  0  0  0  0  0  0  0  0  0  0
    6.6958   -5.8244    0.0000 C   0  0  0  0  0  0  0  0  0  0  0  0
    4.9805   -7.4937    0.0000 C   0  0  0  0  0  0  0  0  0  0  0  0
    6.3289   -7.1544    0.0000 N   0  0  0  0  0  0  0  0  0  0  0  0
    2.6783   -6.8609    0.0000 C   0  0  0  0  0  0  0  0  0  0  0  0
    2.2931   -8.1725    0.0000 C   0  0  0  0  0  0  0  0  0  0  0  0
    4.6137   -8.8421    0.0000 C   0  0  0  0  0  0  0  0  0  0  0  0
    3.2837   -9.1723    0.0000 C   0  0  0  0  0  0  0  0  0  0  0  0
    0.9631   -8.5210    0.0000 O   0  0  0  0  0  0  0  0  0  0  0  0
    0.0000   -7.5396    0.0000 C   0  0  0  0  0  0  0  0  0  0  0  0
  1  2  1  0  0  0  0
  3  1  1  6  0  0  0
  1  4  1  0  0  0  0
  2  6  1  0  0  0  0
  2  9  1  1  0  0  0
  3  7  1  0  0  0  0
  4  8  1  0  0  0  0
  5  6  1  0  0  0  0
  7  5  1  6  0  0  0
  5  8  1  0  0  0  0
  8 11  1  0  0  0  0
  8 12  1  6  0  0  0
  9 10  2  0  0  0  0
 11 13  1  6  0  0  0
 11 14  1  0  0  0  0
 14 15  2  0  0  0  0
 14 16  1  0  0  0  0
 15 17  1  0  0  0  0
 16 20  2  0  0  0  0
 16 18  1  0  0  0  0
 17 19  2  0  0  0  0
 18 19  1  0  0  0  0
 18 22  2  0  0  0  0
 20 21  1  0  0  0  0
 21 23  2  0  0  0  0
 21 24  1  0  0  0  0
 22 23  1  0  0  0  0
 24 25  1  0  0  0  0
M  END
> <ID>
3176

> <Formula>
C20H24N2O2

> <FW>
324.4168

> <DSSTox_CID>
3549

> <DSSTox_RID>
77075

> <DSSTox_GSID>
23549

> <DSSTox_FileID_Sort>
1758

> <TS_ChemName>
Quinidine

> <TS_ChemName_Synonyms>


> <TS_CASRN>
56-54-2

> <CASRN_ChemName_Relationship>
primary

> <TS_Description>
single chemical compound

> <ChemNote>
stereochem

> <STRUCTURE_Shown>
tested chemical

> <STRUCTURE_Formula>
C20H24N2O2

> <STRUCTURE_MW>
324.4168

> <STRUCTURE_ChemType>
defined organic

> <STRUCTURE_DefinedOrganicForm>
parent

> <STRUCTURE_IUPAC>
(9S)-6'-methoxycinchonan-9-ol

> <STRUCTURE_SMILES>
COc1cc2c(cc1)nccc2[C@H](O)[C@H]4CC3CCN4C[C@@H]3C=C

> <STRUCTURE_SMILES_Desalt>
COc1cc2c(cc1)nccc2[C@H](O)[C@H]4CC3CCN4C[C@@H]3C=C

> <Substance_modify_yyyymmdd>
20080429

$$$$
