56-72-4
ChemmineR-0915142007XD

 22 23  0  0  0  0  0  0  0  0  1 V2000
    2.3022   -0.1266    0.0000 C    0  0  0  0  0  0  0  0  0  0  0  0
    2.3022   -1.4619    0.0000 C    0  0  0  0  0  0  0  0  0  0  0  0
    1.1511   -2.1295    0.0000 C    0  0  0  0  0  0  0  0  0  0  0  0
    0.0000   -1.4619    0.0000 Cl   0  0  0  0  0  0  0  0  0  0  0  0
    1.1511   -3.4533    0.0000 C    0  0  0  0  0  0  0  0  0  0  0  0
    0.0000   -4.1209    0.0000 O    0  0  0  0  0  0  0  0  0  0  0  0
    2.3022   -4.1209    0.0000 O    0  0  0  0  0  0  0  0  0  0  0  0
    3.4533   -3.4533    0.0000 C    0  0  0  0  0  0  0  0  0  0  0  0
    3.4533   -2.1295    0.0000 C    0  0  0  0  0  0  0  0  0  0  0  0
    4.6044   -1.4619    0.0000 C    0  0  0  0  0  0  0  0  0  0  0  0
    5.7555   -2.1295    0.0000 C    0  0  0  0  0  0  0  0  0  0  0  0
    5.7555   -3.4533    0.0000 C    0  0  0  0  0  0  0  0  0  0  0  0
    4.6044   -4.1209    0.0000 C    0  0  0  0  0  0  0  0  0  0  0  0
    6.9066   -4.1209    0.0000 O    0  0  0  0  0  0  0  0  0  0  0  0
    8.0577   -3.4533    0.0000 P    0  0  0  0  0  0  0  0  0  0  0  0
    8.7254   -4.6044    0.0000 S    0  0  0  0  0  0  0  0  0  0  0  0
    7.3901   -2.3022    0.0000 O    0  0  0  0  0  0  0  0  0  0  0  0
    8.0577   -1.1511    0.0000 C    0  0  0  0  0  0  0  0  0  0  0  0
    7.3901    0.0000    0.0000 C    0  0  0  0  0  0  0  0  0  0  0  0
    9.2088   -2.7857    0.0000 O    0  0  0  0  0  0  0  0  0  0  0  0
   10.3599   -3.4533    0.0000 C    0  0  0  0  0  0  0  0  0  0  0  0
   11.5110   -2.7857    0.0000 C    0  0  0  0  0  0  0  0  0  0  0  0
  1  2  1  0  0  0  0
  2  3  2  0  0  0  0
  2  9  1  0  0  0  0
  3  4  1  0  0  0  0
  3  5  1  0  0  0  0
  5  6  2  0  0  0  0
  5  7  1  0  0  0  0
  7  8  1  0  0  0  0
  8  9  2  0  0  0  0
  8 13  1  0  0  0  0
  9 10  1  0  0  0  0
 10 11  2  0  0  0  0
 11 12  1  0  0  0  0
 12 13  2  0  0  0  0
 12 14  1  0  0  0  0
 14 15  1  0  0  0  0
 15 16  2  0  0  0  0
 15 17  1  0  0  0  0
 15 20  1  0  0  0  0
 17 18  1  0  0  0  0
 18 19  1  0  0  0  0
 20 21  1  0  0  0  0
 21 22  1  0  0  0  0
M  END
> <ID>
337

> <Formula>
C14H16ClO5PS

> <FW>
362.7656

> <DSSTox_CID>
347

> <DSSTox_RID>
75528

> <DSSTox_GSID>
20347

> <DSSTox_FileID_Sort>
212

> <TS_ChemName>
Coumaphos

> <TS_ChemName_Synonyms>


> <TS_CASRN>
56-72-4

> <CASRN_ChemName_Relationship>
primary

> <TS_Description>
single chemical compound

> <ChemNote>


> <STRUCTURE_Shown>
tested chemical

> <STRUCTURE_Formula>
C14H16ClO5PS

> <STRUCTURE_MW>
362.7656

> <STRUCTURE_ChemType>
defined organic

> <STRUCTURE_DefinedOrganicForm>
parent

> <STRUCTURE_IUPAC>
O-(3-chloro-4-methyl-2-oxo-2H-chromen-7-yl) O,O-diethyl phosphorothioate

> <STRUCTURE_SMILES>
CCOP(=S)(OCC)Oc1ccc2c(c1)OC(=O)C(Cl)=C2C

> <STRUCTURE_SMILES_Desalt>
CCOP(=S)(OCC)Oc1ccc2c(c1)OC(=O)C(Cl)=C2C

> <Substance_modify_yyyymmdd>
20080429

$$$$
