56-81-5
ChemmineR-0915142007XD

  6  5  0  0  0  0  0  0  0  0  1 V2000
    2.3058   -0.6641    0.0000 C   0  0  0  0  0  0  0  0  0  0  0  0
    2.3058   -2.0014    0.0000 O   0  0  0  0  0  0  0  0  0  0  0  0
    0.0000   -0.6456    0.0000 O   0  0  0  0  0  0  0  0  0  0  0  0
    4.6115   -0.6641    0.0000 O   0  0  0  0  0  0  0  0  0  0  0  0
    3.4494    0.0000    0.0000 C   0  0  0  0  0  0  0  0  0  0  0  0
    1.1437    0.0000    0.0000 C   0  0  0  0  0  0  0  0  0  0  0  0
  1  2  1  0  0  0  0
  1  5  1  0  0  0  0
  1  6  1  0  0  0  0
  3  6  1  0  0  0  0
  4  5  1  0  0  0  0
M  END
> <ID>
636

> <Formula>
C3H8O3

> <FW>
92.0938

> <DSSTox_CID>
662

> <DSSTox_RID>
75717

> <DSSTox_GSID>
20663

> <DSSTox_FileID_Sort>
401

> <TS_ChemName>
Glycerol

> <TS_ChemName_Synonyms>
Glycerol (1,2,3-Propanetriol) (Glycerin)

> <TS_CASRN>
56-81-5

> <CASRN_ChemName_Relationship>
primary

> <TS_Description>
single chemical compound

> <ChemNote>


> <STRUCTURE_Shown>
tested chemical

> <STRUCTURE_Formula>
C3H8O3

> <STRUCTURE_MW>
92.0938

> <STRUCTURE_ChemType>
defined organic

> <STRUCTURE_DefinedOrganicForm>
parent

> <STRUCTURE_IUPAC>
propane-1,2,3-triol

> <STRUCTURE_SMILES>
OCC(O)CO

> <STRUCTURE_SMILES_Desalt>
OCC(O)CO

> <Substance_modify_yyyymmdd>
20080429

$$$$
