56-95-1
ChemmineR-0915142007XD

 42 41  0  0  0  0  0  0  0  0  1 V2000
   20.8276   -2.0052    0.0000 C    0  0  0  0  0  0  0  0  0  0  0  0
    5.7216   -2.5934    0.0000 C    0  0  0  0  0  0  0  0  0  0  0  0
   19.6779   -2.6469    0.0000 N    0  0  0  0  0  0  0  0  0  0  0  0
    6.8712   -1.9517    0.0000 N    0  0  0  0  0  0  0  0  0  0  0  0
    8.0744   -2.5934    0.0000 C    0  0  0  0  0  0  0  0  0  0  0  0
   18.4748   -2.0052    0.0000 C    0  0  0  0  0  0  0  0  0  0  0  0
    4.5986   -1.9785    0.0000 N    0  0  0  0  0  0  0  0  0  0  0  0
   21.9505   -2.6469    0.0000 N    0  0  0  0  0  0  0  0  0  0  0  0
   20.8276   -0.6684    0.0000 N    0  0  0  0  0  0  0  0  0  0  0  0
    5.7216   -3.9302    0.0000 N    0  0  0  0  0  0  0  0  0  0  0  0
   18.4748   -0.6684    0.0000 N    0  0  0  0  0  0  0  0  0  0  0  0
    8.0744   -3.9302    0.0000 N    0  0  0  0  0  0  0  0  0  0  0  0
   17.3251   -2.6469    0.0000 N    0  0  0  0  0  0  0  0  0  0  0  0
    9.2240   -1.9785    0.0000 N    0  0  0  0  0  0  0  0  0  0  0  0
    3.3955   -2.5934    0.0000 C    0  0  0  0  0  0  0  0  0  0  0  0
   23.1001   -2.0052    0.0000 C    0  0  0  0  0  0  0  0  0  0  0  0
    1.1229   -3.9302    0.0000 C    0  0  0  0  0  0  0  0  0  0  0  0
   25.4262   -0.6951    0.0000 C    0  0  0  0  0  0  0  0  0  0  0  0
    0.0000   -4.7858    0.0000 Cl   0  0  0  0  0  0  0  0  0  0  0  0
   26.7363   -0.1069    0.0000 Cl   0  0  0  0  0  0  0  0  0  0  0  0
    2.2458   -1.9517    0.0000 C    0  0  0  0  0  0  0  0  0  0  0  0
    3.3955   -3.9302    0.0000 C    0  0  0  0  0  0  0  0  0  0  0  0
   23.1001   -0.6951    0.0000 C    0  0  0  0  0  0  0  0  0  0  0  0
   24.3033   -2.6469    0.0000 C    0  0  0  0  0  0  0  0  0  0  0  0
    2.2458   -4.5986    0.0000 C    0  0  0  0  0  0  0  0  0  0  0  0
   24.2765    0.0000    0.0000 C    0  0  0  0  0  0  0  0  0  0  0  0
   25.4262   -2.0052    0.0000 C    0  0  0  0  0  0  0  0  0  0  0  0
    1.1229   -2.5667    0.0000 C    0  0  0  0  0  0  0  0  0  0  0  0
   10.3737   -2.5934    0.0000 C    0  0  0  0  0  0  0  0  0  0  0  0
   16.1754   -1.9785    0.0000 C    0  0  0  0  0  0  0  0  0  0  0  0
   14.9990   -2.6469    0.0000 C    0  0  0  0  0  0  0  0  0  0  0  0
   11.5501   -1.9785    0.0000 C    0  0  0  0  0  0  0  0  0  0  0  0
   12.7532   -2.5934    0.0000 C    0  0  0  0  0  0  0  0  0  0  0  0
   13.8494   -1.9785    0.0000 C    0  0  0  0  0  0  0  0  0  0  0  0
   11.7105   -9.1438    0.0000 C    0  0  0  0  0  0  0  0  0  0  0  0
   11.7105   -7.8070    0.0000 O    0  0  0  0  0  0  0  0  0  0  0  0
   10.5608   -9.7855    0.0000 O    0  0  0  0  0  0  0  0  0  0  0  0
   12.8601   -9.7855    0.0000 C    0  0  0  0  0  0  0  0  0  0  0  0
   20.9078   -8.3952    0.0000 C    0  0  0  0  0  0  0  0  0  0  0  0
   20.9078   -7.0584    0.0000 O    0  0  0  0  0  0  0  0  0  0  0  0
   19.7581   -9.0369    0.0000 O    0  0  0  0  0  0  0  0  0  0  0  0
   22.0574   -9.0369    0.0000 C    0  0  0  0  0  0  0  0  0  0  0  0
  1  3  1  0  0  0  0
  1  8  1  0  0  0  0
  1  9  2  0  0  0  0
  2  4  1  0  0  0  0
  2  7  1  0  0  0  0
  2 10  2  0  0  0  0
  3  6  1  0  0  0  0
  4  5  1  0  0  0  0
  5 14  1  0  0  0  0
  5 12  2  0  0  0  0
  6 11  2  0  0  0  0
  6 13  1  0  0  0  0
  7 15  1  0  0  0  0
  8 16  1  0  0  0  0
 13 30  1  0  0  0  0
 14 29  1  0  0  0  0
 15 21  1  0  0  0  0
 15 22  2  0  0  0  0
 16 23  2  0  0  0  0
 16 24  1  0  0  0  0
 17 25  2  0  0  0  0
 17 19  1  0  0  0  0
 17 28  1  0  0  0  0
 18 27  1  0  0  0  0
 18 20  1  0  0  0  0
 18 26  2  0  0  0  0
 21 28  2  0  0  0  0
 22 25  1  0  0  0  0
 23 26  1  0  0  0  0
 24 27  2  0  0  0  0
 29 32  1  0  0  0  0
 30 31  1  0  0  0  0
 31 34  1  0  0  0  0
 32 33  1  0  0  0  0
 33 34  1  0  0  0  0
 35 36  2  0  0  0  0
 35 37  1  0  0  0  0
 35 38  1  0  0  0  0
 39 40  2  0  0  0  0
 39 41  1  0  0  0  0
 39 42  1  0  0  0  0
M  END
> <ID>
6425

> <Formula>
C26H38Cl2N10O4

> <FW>
625.5505 (505.4466+60.0520+60.0520)

> <DSSTox_CID>
12345

> <DSSTox_RID>
78918

> <DSSTox_GSID>
32345

> <DSSTox_FileID_Sort>
3600

> <TS_ChemName>
Chlorhexidine diacetate

> <TS_ChemName_Synonyms>


> <TS_CASRN>
56-95-1

> <CASRN_ChemName_Relationship>
primary

> <TS_Description>
single chemical compound

> <ChemNote>
tautomers; parent [55-56-1]

> <STRUCTURE_Shown>
tested chemical

> <STRUCTURE_Formula>
C26H38Cl2N10O4

> <STRUCTURE_MW>
625.5505

> <STRUCTURE_ChemType>
defined organic

> <STRUCTURE_DefinedOrganicForm>
complex

> <STRUCTURE_IUPAC>
N,N''''-hexane-1,6-diylbis[N'-(4-chlorophenyl)(imidodicarbonimidic diamide)] acetate (1:2)

> <STRUCTURE_SMILES>
Clc2ccc(NC(=N)NC(=N)NCCCCCCNC(=N)NC(=N)Nc1ccc(Cl)cc1)cc2.CC(=O)O.CC(=O)O

> <STRUCTURE_SMILES_Desalt>
Clc2ccc(NC(=N)NC(=N)NCCCCCCNC(=N)NC(=N)Nc1ccc(Cl)cc1)cc2

> <Substance_modify_yyyymmdd>
20080429

$$$$
