56-94-0
ChemmineR-0915142007XD

 42 41  0  0  0  0  0  0  0  0  2 V2000
   18.6263   -5.7195    0.0000 C    0  0  0  0  0  0  0  0  0  0  0  0
   18.6263   -4.3782    0.0000 N    0  0  0  0  0  0  0  0  0  0  0  0
   17.4622   -3.7202    0.0000 C    0  0  0  0  0  0  0  0  0  0  0  0
   16.2980   -4.3782    0.0000 C    0  0  0  0  0  0  0  0  0  0  0  0
   15.1592   -3.7202    0.0000 C    0  0  0  0  0  0  0  0  0  0  0  0
   13.9950   -4.3782    0.0000 C    0  0  0  0  0  0  0  0  0  0  0  0
   12.8562   -3.7202    0.0000 C    0  0  0  0  0  0  0  0  0  0  0  0
   11.7174   -4.3782    0.0000 C    0  0  0  0  0  0  0  0  0  0  0  0
   10.5785   -3.7202    0.0000 C    0  0  0  0  0  0  0  0  0  0  0  0
    9.4144   -4.3782    0.0000 C    0  0  0  0  0  0  0  0  0  0  0  0
    8.2502   -3.7202    0.0000 C    0  0  0  0  0  0  0  0  0  0  0  0
    7.0861   -4.3782    0.0000 C    0  0  0  0  0  0  0  0  0  0  0  0
    5.9473   -3.7202    0.0000 N    0  0  0  0  0  0  0  0  0  0  0  0
    5.9473   -2.3789    0.0000 C    0  0  0  0  0  0  0  0  0  0  0  0
    4.8084   -4.3782    0.0000 C    0  0  0  0  0  0  0  0  0  0  0  0
    4.8084   -5.7195    0.0000 O    0  0  0  0  0  0  0  0  0  0  0  0
    3.6443   -3.7202    0.0000 O    0  0  0  0  0  0  0  0  0  0  0  0
    2.5054   -4.3782    0.0000 C    0  0  0  0  0  0  0  0  0  0  0  0
    1.3413   -3.7202    0.0000 C    0  0  0  0  0  0  0  0  0  0  0  0
    0.2025   -4.3782    0.0000 C    0  0  0  0  0  0  0  0  0  0  0  0
    0.2025   -5.7195    0.0000 C    0  0  0  0  0  0  0  0  0  0  0  0
    1.3413   -6.3775    0.0000 C    0  0  0  0  0  0  0  0  0  0  0  0
    2.5054   -5.7195    0.0000 C    0  0  0  0  0  0  0  0  0  0  0  0
    1.3413   -2.3789    0.0000 N    0  3  0  0  0  0  0  0  0  0  0  0
    2.6573   -2.3789    0.0000 C    0  0  0  0  0  0  0  0  0  0  0  0
    0.0000   -2.3789    0.0000 C    0  0  0  0  0  0  0  0  0  0  0  0
    1.3413   -1.0629    0.0000 C    0  0  0  0  0  0  0  0  0  0  0  0
   19.7652   -3.7202    0.0000 C    0  0  0  0  0  0  0  0  0  0  0  0
   19.7652   -2.3789    0.0000 O    0  0  0  0  0  0  0  0  0  0  0  0
   20.9293   -4.3782    0.0000 O    0  0  0  0  0  0  0  0  0  0  0  0
   22.0681   -3.7202    0.0000 C    0  0  0  0  0  0  0  0  0  0  0  0
   23.2323   -4.3782    0.0000 C    0  0  0  0  0  0  0  0  0  0  0  0
   24.3711   -3.7202    0.0000 C    0  0  0  0  0  0  0  0  0  0  0  0
   24.3711   -2.3789    0.0000 C    0  0  0  0  0  0  0  0  0  0  0  0
   23.2323   -1.7209    0.0000 C    0  0  0  0  0  0  0  0  0  0  0  0
   22.0681   -2.3789    0.0000 C    0  0  0  0  0  0  0  0  0  0  0  0
   23.2323   -5.7195    0.0000 N    0  3  0  0  0  0  0  0  0  0  0  0
   21.8910   -5.7195    0.0000 C    0  0  0  0  0  0  0  0  0  0  0  0
   24.5736   -5.7195    0.0000 C    0  0  0  0  0  0  0  0  0  0  0  0
   23.2323   -7.0355    0.0000 C    0  0  0  0  0  0  0  0  0  0  0  0
    0.1012    0.0000    0.0000 Br   0  5  0  0  0  0  0  0  0  0  0  0
   25.3075   -7.9972    0.0000 Br   0  5  0  0  0  0  0  0  0  0  0  0
  1  2  1  0  0  0  0
  2  3  1  0  0  0  0
  2 28  1  0  0  0  0
  3  4  1  0  0  0  0
  4  5  1  0  0  0  0
  5  6  1  0  0  0  0
  6  7  1  0  0  0  0
  7  8  1  0  0  0  0
  8  9  1  0  0  0  0
  9 10  1  0  0  0  0
 10 11  1  0  0  0  0
 11 12  1  0  0  0  0
 12 13  1  0  0  0  0
 13 14  1  0  0  0  0
 13 15  1  0  0  0  0
 15 16  2  0  0  0  0
 15 17  1  0  0  0  0
 17 18  1  0  0  0  0
 18 19  2  0  0  0  0
 18 23  1  0  0  0  0
 19 20  1  0  0  0  0
 19 24  1  0  0  0  0
 20 21  2  0  0  0  0
 21 22  1  0  0  0  0
 22 23  2  0  0  0  0
 24 25  1  0  0  0  0
 24 26  1  0  0  0  0
 24 27  1  0  0  0  0
 28 29  2  0  0  0  0
 28 30  1  0  0  0  0
 30 31  1  0  0  0  0
 31 32  2  0  0  0  0
 31 36  1  0  0  0  0
 32 33  1  0  0  0  0
 32 37  1  0  0  0  0
 33 34  2  0  0  0  0
 34 35  1  0  0  0  0
 35 36  2  0  0  0  0
 37 38  1  0  0  0  0
 37 39  1  0  0  0  0
 37 40  1  0  0  0  0
M  END
> <ID>
10840

> <Formula>
C32H52Br2N4O4

> <FW>
716.5877 (556.7786+79.9045+79.9045)

> <DSSTox_CID>
25240

> <DSSTox_RID>
80770

> <DSSTox_GSID>
45240

> <DSSTox_FileID_Sort>
5451

> <TS_ChemName>
Demecarium bromide

> <TS_ChemName_Synonyms>


> <TS_CASRN>
56-94-0

> <CASRN_ChemName_Relationship>
primary

> <TS_Description>
single chemical compound

> <ChemNote>
ammonium; parent [NOCAS]

> <STRUCTURE_Shown>
tested chemical

> <STRUCTURE_Formula>
C32H52Br2N4O4

> <STRUCTURE_MW>
716.5877

> <STRUCTURE_ChemType>
defined organic

> <STRUCTURE_DefinedOrganicForm>
salt

> <STRUCTURE_IUPAC>
2,2'-{decane-1,10-diylbis[(methylcarbamoyl)oxy]}bis(N,N,N-trimethylanilinium) dibromide

> <STRUCTURE_SMILES>
[Br-].[Br-].O=C(Oc1ccccc1[N+](C)(C)C)N(C)CCCCCCCCCCN(C)C(=O)Oc2ccccc2[N+](C)(C)C

> <STRUCTURE_SMILES_Desalt>
O=C(Oc1ccccc1[N+](C)(C)C)N(C)CCCCCCCCCCN(C)C(=O)Oc2ccccc2[N+](C)(C)C

> <Substance_modify_yyyymmdd>
20100107

$$$$
