56038-13-2
ChemmineR-0915142007XD

 23 24  0  0  1  0  0  0  0  0  1 V2000
    6.1079   -4.0684    0.0000 C    0  0  0  0  0  0  0  0  0  0  0  0
    3.4587   -3.9948    0.0000 C    0  0  0  0  0  0  0  0  0  0  0  0
    6.5179   -5.3404    0.0000 C    0  0  0  0  0  0  0  0  0  0  0  0
    2.3023   -4.6571    0.0000 C    0  0  0  0  0  0  0  0  0  0  0  0
    7.1802   -3.2800    0.0000 O    0  0  0  0  0  0  0  0  0  0  0  0
    5.0146   -4.6781    0.0000 O    0  0  0  0  0  0  0  0  0  0  0  0
    1.1564   -3.9948    0.0000 C    0  0  0  0  0  0  0  0  0  0  0  0
    3.4587   -2.6597    0.0000 O    0  0  0  0  0  0  0  0  0  0  0  0
    7.8530   -5.3194    0.0000 C    0  0  0  0  0  0  0  0  0  0  0  0
    1.1564   -2.6597    0.0000 C    0  0  0  0  0  0  0  0  0  0  0  0
    8.2630   -4.0579    0.0000 C    0  0  0  0  0  0  0  0  0  0  0  0
    2.3023   -1.9974    0.0000 C    0  0  0  0  0  0  0  0  0  0  0  0
    6.0974   -2.8910    0.0000 C    0  0  0  0  0  0  0  0  0  0  0  0
    5.7399   -6.4127    0.0000 O    0  0  0  0  0  0  0  0  0  0  0  0
    2.3023   -5.9817    0.0000 O    0  0  0  0  0  0  0  0  0  0  0  0
    0.0000   -1.9974    0.0000 Cl   0  0  0  0  0  0  0  0  0  0  0  0
    0.0000   -4.6571    0.0000 O    0  0  0  0  0  0  0  0  0  0  0  0
    8.6204   -6.4022    0.0000 O    0  0  0  0  0  0  0  0  0  0  0  0
    9.5245   -3.6479    0.0000 C    0  0  0  0  0  0  0  0  0  0  0  0
    2.3023   -0.6623    0.0000 C    0  0  0  0  0  0  0  0  0  0  0  0
    5.1828   -2.1341    0.0000 Cl   0  0  0  0  0  0  0  0  0  0  0  0
   10.5127   -4.5415    0.0000 Cl   0  0  0  0  0  0  0  0  0  0  0  0
    1.1564    0.0000    0.0000 O    0  0  0  0  0  0  0  0  0  0  0  0
  1  3  1  0  0  0  0
  1  5  1  0  0  0  0
  1  6  1  6  0  0  0
  1 13  1  1  0  0  0
  2  6  1  6  0  0  0
  2  4  1  0  0  0  0
  2  8  1  0  0  0  0
  3  9  1  0  0  0  0
  3 14  1  6  0  0  0
  4  7  1  0  0  0  0
  4 15  1  6  0  0  0
  5 11  1  0  0  0  0
  7 17  1  1  0  0  0
  7 10  1  0  0  0  0
  8 12  1  0  0  0  0
  9 18  1  1  0  0  0
  9 11  1  0  0  0  0
 10 12  1  0  0  0  0
 10 16  1  1  0  0  0
 11 19  1  6  0  0  0
 12 20  1  1  0  0  0
 13 21  1  0  0  0  0
 19 22  1  0  0  0  0
 20 23  1  0  0  0  0
M  END
> <ID>
7630

> <Formula>
C12H19Cl3O8

> <FW>
397.6335

> <DSSTox_CID>
20245

> <DSSTox_RID>
79457

> <DSSTox_GSID>
40245

> <DSSTox_FileID_Sort>
4139

> <TS_ChemName>
Sucralose

> <TS_ChemName_Synonyms>
Sucralose (trichlorosucrose)

> <TS_CASRN>
56038-13-2

> <CASRN_ChemName_Relationship>
primary

> <TS_Description>
single chemical compound

> <ChemNote>
stereochem

> <STRUCTURE_Shown>
tested chemical

> <STRUCTURE_Formula>
C12H19Cl3O8

> <STRUCTURE_MW>
397.6335

> <STRUCTURE_ChemType>
defined organic

> <STRUCTURE_DefinedOrganicForm>
parent

> <STRUCTURE_IUPAC>
1,6-dichloro-1,6-dideoxy-beta-D-fructofuranosyl 4-chloro-4-deoxy-alpha-D-galactopyranoside

> <STRUCTURE_SMILES>
O[C@H]1[C@H](O[C@H](CO)[C@H](Cl)[C@@H]1O)O[C@]2(CCl)O[C@H](CCl)[C@@H](O)[C@@H]2O

> <STRUCTURE_SMILES_Desalt>
O[C@H]1[C@H](O[C@H](CO)[C@H](Cl)[C@@H]1O)O[C@]2(CCl)O[C@H](CCl)[C@@H](O)[C@@H]2O

> <Substance_modify_yyyymmdd>
20080429

$$$$
