561-27-3
ChemmineR-0915142007XD

 28 32  0  0  1  0  0  0  0  0  1 V2000
    4.7717   -3.3316    0.0000 C   0  0  0  0  0  0  0  0  0  0  0  0
    6.0721   -3.3316    0.0000 C   0  0  0  0  0  0  0  0  0  0  0  0
    6.7170   -2.1817    0.0000 C   0  0  0  0  0  0  0  0  0  0  0  0
    4.1054   -2.2247    0.0000 C   0  0  0  0  0  0  0  0  0  0  0  0
    4.1054   -4.4601    0.0000 C   0  0  0  0  0  0  0  0  0  0  0  0
    5.4703   -1.4186    0.0000 O   0  0  0  0  0  0  0  0  0  0  0  0
    4.7717   -5.6100    0.0000 C   0  0  0  0  0  0  0  0  0  0  0  0
    6.7170   -4.4601    0.0000 C   0  0  0  0  0  0  0  0  0  0  0  0
    2.7943   -4.4601    0.0000 C   0  0  0  0  0  0  0  0  0  0  0  0
    6.0829   -5.6100    0.0000 C   0  0  0  0  0  0  0  0  0  0  0  0
    4.1699   -6.2118    0.0000 N   0  0  0  0  0  0  0  0  0  0  0  0
    2.7943   -2.2247    0.0000 C   0  0  0  0  0  0  0  0  0  0  0  0
    8.0496   -2.1817    0.0000 C   0  0  0  0  0  0  0  0  0  0  0  0
    2.1494   -3.3531    0.0000 C   0  0  0  0  0  0  0  0  0  0  0  0
    3.4821   -3.3531    0.0000 C   0  0  0  0  0  0  0  0  0  0  0  0
    8.7052   -1.0747    0.0000 O   0  0  0  0  0  0  0  0  0  0  0  0
    2.1064   -1.1177    0.0000 O   0  0  0  0  0  0  0  0  0  0  0  0
   10.0163   -1.0747    0.0000 C   0  0  0  0  0  0  0  0  0  0  0  0
    0.6771   -1.1177    0.0000 C   0  0  0  0  0  0  0  0  0  0  0  0
    3.4821   -5.8572    0.0000 C   0  0  0  0  0  0  0  0  0  0  0  0
    8.0496   -4.4601    0.0000 C   0  0  0  0  0  0  0  0  0  0  0  0
    8.6944   -3.3531    0.0000 C   0  0  0  0  0  0  0  0  0  0  0  0
   10.7471    0.0000    0.0000 O   0  0  0  0  0  0  0  0  0  0  0  0
    0.0000    0.0000    0.0000 O   0  0  0  0  0  0  0  0  0  0  0  0
    4.1699   -7.4585    0.0000 C   0  0  0  0  0  0  0  0  0  0  0  0
   10.6397   -2.1817    0.0000 C   0  0  0  0  0  0  0  0  0  0  0  0
    0.0752   -2.3106    0.0000 C   0  0  0  0  0  0  0  0  0  0  0  0
    5.4488   -4.4601    0.0000 H   0  0  0  0  0  0  0  0  0  0  0  0
  1  2  1  0  0  0  0
  1  4  1  0  0  0  0
  1  5  1  0  0  0  0
  1 15  1  1  0  0  0
  2  3  1  0  0  0  0
  2  8  2  0  0  0  0
  3 13  2  0  0  0  0
  3  6  1  0  0  0  0
  4  6  1  6  0  0  0
  4 12  1  0  0  0  0
  5  7  1  0  0  0  0
  5  9  1  0  0  0  0
  5 28  1  1  0  0  0
  7 10  1  0  0  0  0
  7 11  1  1  0  0  0
  8 21  1  0  0  0  0
  8 10  1  0  0  0  0
  9 14  2  0  0  0  0
 11 20  1  0  0  0  0
 11 25  1  0  0  0  0
 12 17  1  6  0  0  0
 12 14  1  0  0  0  0
 13 16  1  0  0  0  0
 13 22  1  0  0  0  0
 15 20  1  0  0  0  0
 16 18  1  0  0  0  0
 17 19  1  0  0  0  0
 18 23  2  0  0  0  0
 18 26  1  0  0  0  0
 19 24  2  0  0  0  0
 19 27  1  0  0  0  0
 21 22  2  0  0  0  0
M  END
> <ID>
11949

> <Formula>
C21H23NO5

> <FW>
369.411

> <DSSTox_CID>
26761

> <DSSTox_RID>
81885

> <DSSTox_GSID>
46761

> <DSSTox_FileID_Sort>
6566

> <TS_ChemName>
3,6-Diacetylmorphine

> <TS_ChemName_Synonyms>


> <TS_CASRN>
561-27-3

> <CASRN_ChemName_Relationship>
primary

> <TS_Description>
single chemical compound

> <ChemNote>
stereochem

> <STRUCTURE_Shown>
tested chemical

> <STRUCTURE_Formula>
C21H23NO5

> <STRUCTURE_MW>
369.411

> <STRUCTURE_ChemType>
defined organic

> <STRUCTURE_DefinedOrganicForm>
parent

> <STRUCTURE_IUPAC>
(5alpha,6alpha)-17-methyl-7,8-didehydro-4,5-epoxymorphinan-3,6-diyl diacetate

> <STRUCTURE_SMILES>
CC(=O)Oc1ccc2C[C@H]4N(C)CC[C@@]35[C@@H](Oc1c23)[C@H](C=C[C@@H]45)OC(C)=O

> <STRUCTURE_SMILES_Desalt>
CC(=O)Oc1ccc2C[C@H]4N(C)CC[C@@]35[C@@H](Oc1c23)[C@H](C=C[C@@H]45)OC(C)=O

> <Substance_modify_yyyymmdd>
20110803

$$$$
