5611-51-8
ChemmineR-0915142007XD

 41 45  0  0  1  0  0  0  0  0  1 V2000
    8.2056   -5.2891    0.0000 C   0  0  0  0  0  0  0  0  0  0  0  0
    6.8747   -5.7058    0.0000 C   0  0  0  0  0  0  0  0  0  0  0  0
    4.6410   -7.0367    0.0000 C   0  0  0  0  0  0  0  0  0  0  0  0
    3.4721   -7.6964    0.0000 C   0  0  0  0  0  0  0  0  0  0  0  0
    6.8747   -7.0367    0.0000 C   0  0  0  0  0  0  0  0  0  0  0  0
    5.7983   -7.6964    0.0000 C   0  0  0  0  0  0  0  0  0  0  0  0
    8.9348   -6.3654    0.0000 C   0  0  0  0  0  0  0  0  0  0  0  0
    3.4721   -9.0389    0.0000 C   0  0  0  0  0  0  0  0  0  0  0  0
    8.9695   -4.2706    0.0000 O   0  0  0  0  0  0  0  0  0  0  0  0
    4.6410   -5.7058    0.0000 C   0  0  0  0  0  0  0  0  0  0  0  0
    5.7983   -5.0461    0.0000 C   0  0  0  0  0  0  0  0  0  0  0  0
   10.2194   -4.7104    0.0000 C   0  0  0  0  0  0  0  0  0  0  0  0
   10.2194   -5.9719    0.0000 O   0  0  0  0  0  0  0  0  0  0  0  0
    2.2916   -7.0367    0.0000 C   0  0  0  0  0  0  0  0  0  0  0  0
    8.2056   -7.4534    0.0000 C   0  0  0  0  0  0  0  0  0  0  0  0
    8.2056   -4.0392    0.0000 C   0  0  0  0  0  0  0  0  0  0  0  0
    2.2916   -9.7218    0.0000 C   0  0  0  0  0  0  0  0  0  0  0  0
    5.7983   -9.0389    0.0000 C   0  0  0  0  0  0  0  0  0  0  0  0
    1.1342   -7.6964    0.0000 C   0  0  0  0  0  0  0  0  0  0  0  0
    1.1342   -9.0389    0.0000 C   0  0  0  0  0  0  0  0  0  0  0  0
    5.9372   -1.3773    0.0000 C   0  0  0  0  0  0  0  0  0  0  0  0
    4.6410   -9.7218    0.0000 C   0  0  0  0  0  0  0  0  0  0  0  0
    4.6526   -8.3214    0.0000 F   0  0  0  0  0  0  0  0  0  0  0  0
    7.0136   -3.3679    0.0000 C   0  0  0  0  0  0  0  0  0  0  0  0
    9.3630   -3.3679    0.0000 O   0  0  0  0  0  0  0  0  0  0  0  0
    7.0136   -2.0254    0.0000 O   0  0  0  0  0  0  0  0  0  0  0  0
    5.9372    0.0000    0.0000 O   0  0  0  0  0  0  0  0  0  0  0  0
    0.0000   -9.7333    0.0000 O   0  0  0  0  0  0  0  0  0  0  0  0
    4.8030   -2.0254    0.0000 C   0  0  0  0  0  0  0  0  0  0  0  0
    3.6225   -1.3310    0.0000 C   0  0  0  0  0  0  0  0  0  0  0  0
    6.8747   -4.4095    0.0000 C   0  0  0  0  0  0  0  0  0  0  0  0
    3.4721   -5.0345    0.0000 O   0  0  0  0  0  0  0  0  0  0  0  0
    3.4721   -6.3654    0.0000 C   0  0  0  0  0  0  0  0  0  0  0  0
   10.5666   -3.4026    0.0000 C   0  0  0  0  0  0  0  0  0  0  0  0
   11.5735   -4.7104    0.0000 C   0  0  0  0  0  0  0  0  0  0  0  0
    4.2706   -0.1620    0.0000 C   0  0  0  0  0  0  0  0  0  0  0  0
    2.4536   -0.6134    0.0000 C   0  0  0  0  0  0  0  0  0  0  0  0
    2.9281   -2.4767    0.0000 C   0  0  0  0  0  0  0  0  0  0  0  0
    5.7983   -6.3654    0.0000 H   0  0  0  0  0  0  0  0  0  0  0  0
    6.8747   -8.3561    0.0000 H   0  0  0  0  0  0  0  0  0  0  0  0
    9.8722   -7.3145    0.0000 H   0  0  0  0  0  0  0  0  0  0  0  0
  1  2  1  0  0  0  0
  1  7  1  0  0  0  0
  1  9  1  6  0  0  0
  1 16  1  1  0  0  0
  2  5  1  0  0  0  0
  2 11  1  0  0  0  0
  2 31  1  1  0  0  0
  3 10  1  0  0  0  0
  3  4  1  0  0  0  0
  3 23  1  6  0  0  0
  3  6  1  0  0  0  0
  4  8  1  0  0  0  0
  4 14  1  0  0  0  0
  4 33  1  1  0  0  0
  5  6  1  0  0  0  0
  5 15  1  0  0  0  0
  5 40  1  6  0  0  0
  6 18  1  0  0  0  0
  6 39  1  1  0  0  0
  7 13  1  0  0  0  0
  7 15  1  0  0  0  0
  7 41  1  1  0  0  0
  8 17  2  0  0  0  0
  8 22  1  0  0  0  0
  9 12  1  0  0  0  0
 10 11  1  0  0  0  0
 10 32  1  1  0  0  0
 12 34  1  0  0  0  0
 12 35  1  0  0  0  0
 12 13  1  0  0  0  0
 14 19  2  0  0  0  0
 16 24  1  0  0  0  0
 16 25  2  0  0  0  0
 17 20  1  0  0  0  0
 18 22  1  0  0  0  0
 19 20  1  0  0  0  0
 20 28  2  0  0  0  0
 21 26  1  0  0  0  0
 21 27  2  0  0  0  0
 21 29  1  0  0  0  0
 24 26  1  0  0  0  0
 29 30  1  0  0  0  0
 30 36  1  0  0  0  0
 30 37  1  0  0  0  0
 30 38  1  0  0  0  0
M  END
> <ID>
13631

> <Formula>
C30H41FO7

> <FW>
532.6407

> <DSSTox_CID>
28560

> <DSSTox_RID>
82832

> <DSSTox_GSID>
48634

> <DSSTox_FileID_Sort>
7509

> <TS_ChemName>
Triamcinolone hexacetonide

> <TS_ChemName_Synonyms>


> <TS_CASRN>
5611-51-8

> <CASRN_ChemName_Relationship>
primary

> <TS_Description>
single chemical compound

> <ChemNote>
stereochem; tautomers

> <STRUCTURE_Shown>
tested chemical

> <STRUCTURE_Formula>
C30H41FO7

> <STRUCTURE_MW>
532.6407

> <STRUCTURE_ChemType>
defined organic

> <STRUCTURE_DefinedOrganicForm>
parent

> <STRUCTURE_IUPAC>
2-[(4aS,4bR,5S,6aS,6bS,9aR,10aS,10bS)-4b-fluoro-5-hydroxy-4a,6a,8,8-tetramethyl-2-oxo-2,4a,4b,5,6,6a,9a,10,10a,10b,11,12-dodecahydro-6bH-naphtho[2',1':4,5]indeno[1,2-d][1,3]dioxol-6b-yl]-2-oxoethyl 3,3-dimethylbutanoate

> <STRUCTURE_SMILES>
CC(C)(C)CC(=O)OCC(=O)[C@]45OC(C)(C)O[C@@H]5C[C@@H]3[C@]4(C)C[C@H](O)[C@@]2(F)[C@H]3CCC1=CC(=O)C=C[C@@]12C

> <STRUCTURE_SMILES_Desalt>
CC(C)(C)CC(=O)OCC(=O)[C@]45OC(C)(C)O[C@@H]5C[C@@H]3[C@]4(C)C[C@H](O)[C@@]2(F)[C@H]3CCC1=CC(=O)C=C[C@@]12C

> <Substance_modify_yyyymmdd>
20111015

$$$$
