56124-62-0
ChemmineR-0915142007XD

 51 55  0  0  1  0  0  0  0  0  1 V2000
    2.2900   -4.5628    0.0000 C   0  0  0  0  0  0  0  0  0  0  0  0
    2.2900   -5.8886    0.0000 C   0  0  0  0  0  0  0  0  0  0  0  0
    1.1364   -3.8913    0.0000 C   0  0  0  0  0  0  0  0  0  0  0  0
    1.1364   -6.5429    0.0000 C   0  0  0  0  0  0  0  0  0  0  0  0
    0.0000   -4.5628    0.0000 C   0  0  0  0  0  0  0  0  0  0  0  0
    0.0000   -5.8886    0.0000 C   0  0  0  0  0  0  0  0  0  0  0  0
    3.4436   -3.8913    0.0000 C   0  0  0  0  0  0  0  0  0  0  0  0
    4.5973   -4.5628    0.0000 C   0  0  0  0  0  0  0  0  0  0  0  0
    3.4436   -6.5429    0.0000 C   0  0  0  0  0  0  0  0  0  0  0  0
    4.5973   -5.8886    0.0000 C   0  0  0  0  0  0  0  0  0  0  0  0
    5.7509   -3.8913    0.0000 C   0  0  0  0  0  0  0  0  0  0  0  0
    6.8873   -4.5628    0.0000 C   0  0  0  0  0  0  0  0  0  0  0  0
    5.7509   -6.5429    0.0000 C   0  0  0  0  0  0  0  0  0  0  0  0
    6.8873   -5.8886    0.0000 C   0  0  0  0  0  0  0  0  0  0  0  0
    8.0581   -3.8913    0.0000 C   0  0  0  0  0  0  0  0  0  0  0  0
    9.1945   -4.5628    0.0000 C   0  0  0  0  0  0  0  0  0  0  0  0
    8.0581   -6.5429    0.0000 C   0  0  0  0  0  0  0  0  0  0  0  0
    9.1945   -5.8886    0.0000 C   0  0  0  0  0  0  0  0  0  0  0  0
    3.4436   -2.5655    0.0000 O   0  0  0  0  0  0  0  0  0  0  0  0
    1.1364   -7.8859    0.0000 O   0  0  0  0  0  0  0  0  0  0  0  0
    0.0000   -8.5402    0.0000 C   0  0  0  0  0  0  0  0  0  0  0  0
    3.4436   -7.8859    0.0000 O   0  0  0  0  0  0  0  0  0  0  0  0
    5.7509   -2.5655    0.0000 O   0  0  0  0  0  0  0  0  0  0  0  0
    5.7509   -7.8859    0.0000 O   0  0  0  0  0  0  0  0  0  0  0  0
    8.0581   -7.8859    0.0000 O   0  0  0  0  0  0  0  0  0  0  0  0
   10.5375   -4.5628    0.0000 C   0  0  0  0  0  0  0  0  0  0  0  0
    9.8488   -3.3920    0.0000 O   0  0  0  0  0  0  0  0  0  0  0  0
   11.1918   -5.7337    0.0000 O   0  0  0  0  0  0  0  0  0  0  0  0
   11.2090   -3.4264    0.0000 C   0  0  0  0  0  0  0  0  0  0  0  0
   12.5348   -3.4264    0.0000 O   0  0  0  0  0  0  0  0  0  0  0  0
   13.2063   -2.2900    0.0000 C   0  0  0  0  0  0  0  0  0  0  0  0
   14.5321   -2.2900    0.0000 C   0  0  0  0  0  0  0  0  0  0  0  0
   12.5521   -1.1364    0.0000 O   0  0  0  0  0  0  0  0  0  0  0  0
   15.2209   -1.1536    0.0000 C   0  0  0  0  0  0  0  0  0  0  0  0
   16.5467   -1.1708    0.0000 C   0  0  0  0  0  0  0  0  0  0  0  0
   17.2182    0.0000    0.0000 C   0  0  0  0  0  0  0  0  0  0  0  0
    9.1945   -8.5574    0.0000 C   0  0  0  0  0  0  0  0  0  0  0  0
   10.3653   -7.8859    0.0000 O   0  0  0  0  0  0  0  0  0  0  0  0
    9.1945   -9.8660    0.0000 C   0  0  0  0  0  0  0  0  0  0  0  0
   11.5017   -8.5574    0.0000 C   0  0  0  0  0  0  0  0  0  0  0  0
   10.3653  -10.5375    0.0000 C   0  0  0  0  0  0  0  0  0  0  0  0
   11.5017   -9.8832    0.0000 C   0  0  0  0  0  0  0  0  0  0  0  0
   12.6726  -10.5375    0.0000 O   0  0  0  0  0  0  0  0  0  0  0  0
   12.6726   -7.8859    0.0000 C   0  0  0  0  0  0  0  0  0  0  0  0
   10.3653  -11.8633    0.0000 N   0  0  0  0  0  0  0  0  0  0  0  0
    9.2117  -12.5348    0.0000 C   0  0  0  0  0  0  0  0  0  0  0  0
    8.0581  -11.8633    0.0000 O   0  0  0  0  0  0  0  0  0  0  0  0
    9.2117  -13.8779    0.0000 C   0  0  0  0  0  0  0  0  0  0  0  0
    7.8859  -13.8779    0.0000 F   0  0  0  0  0  0  0  0  0  0  0  0
   10.5547  -13.8779    0.0000 F   0  0  0  0  0  0  0  0  0  0  0  0
    9.2117  -15.2037    0.0000 F   0  0  0  0  0  0  0  0  0  0  0  0
  1  3  1  0  0  0  0
  1  7  1  0  0  0  0
  1  2  2  0  0  0  0
  2  4  1  0  0  0  0
  2  9  1  0  0  0  0
  3  5  2  0  0  0  0
  4  6  2  0  0  0  0
  4 20  1  0  0  0  0
  5  6  1  0  0  0  0
  7  8  1  0  0  0  0
  7 19  2  0  0  0  0
  8 11  2  0  0  0  0
  8 10  1  0  0  0  0
  9 10  1  0  0  0  0
  9 22  2  0  0  0  0
 10 13  2  0  0  0  0
 11 12  1  0  0  0  0
 11 23  1  0  0  0  0
 12 15  1  0  0  0  0
 12 14  2  0  0  0  0
 13 14  1  0  0  0  0
 13 24  1  0  0  0  0
 14 17  1  0  0  0  0
 15 16  1  0  0  0  0
 16 18  1  0  0  0  0
 16 26  1  0  0  0  0
 16 27  1  6  0  0  0
 17 18  1  0  0  0  0
 17 25  1  6  0  0  0
 20 21  1  0  0  0  0
 37 25  1  6  0  0  0
 26 28  2  0  0  0  0
 26 29  1  0  0  0  0
 29 30  1  0  0  0  0
 30 31  1  0  0  0  0
 31 32  1  0  0  0  0
 31 33  2  0  0  0  0
 32 34  1  0  0  0  0
 34 35  1  0  0  0  0
 35 36  1  0  0  0  0
 37 38  1  0  0  0  0
 37 39  1  0  0  0  0
 38 40  1  0  0  0  0
 39 41  1  0  0  0  0
 40 42  1  0  0  0  0
 40 44  1  1  0  0  0
 41 42  1  0  0  0  0
 41 45  1  1  0  0  0
 42 43  1  1  0  0  0
 45 46  1  0  0  0  0
 46 47  2  0  0  0  0
 46 48  1  0  0  0  0
 48 49  1  0  0  0  0
 48 50  1  0  0  0  0
 48 51  1  0  0  0  0
M  END
> <ID>
11732

> <Formula>
C34H36F3NO13

> <FW>
723.6437

> <DSSTox_CID>
26497

> <DSSTox_RID>
81666

> <DSSTox_GSID>
46497

> <DSSTox_FileID_Sort>
6347

> <TS_ChemName>
Valrubicin

> <TS_ChemName_Synonyms>


> <TS_CASRN>
56124-62-0

> <CASRN_ChemName_Relationship>
primary

> <TS_Description>
single chemical compound

> <ChemNote>
stereochem; tautomers

> <STRUCTURE_Shown>
tested chemical

> <STRUCTURE_Formula>
C34H36F3NO13

> <STRUCTURE_MW>
723.6437

> <STRUCTURE_ChemType>
defined organic

> <STRUCTURE_DefinedOrganicForm>
parent

> <STRUCTURE_IUPAC>
2-oxo-2-[(2S,4S)-2,5,12-trihydroxy-7-methoxy-6,11-dioxo-4-({2,3,6-trideoxy-3-[(trifluoroacetyl)amino]-alpha-L-lyxo-hexopyranosyl}oxy)-1,2,3,4,6,11-hexahydrotetracen-2-yl]ethyl pentanoate

> <STRUCTURE_SMILES>
CCCCC(=O)OCC(=O)[C@@]4(O)C[C@H](O[C@H]1C[C@H](NC(=O)C(F)(F)F)[C@H](O)[C@H](C)O1)c5c(O)c3C(=O)c2c(OC)cccc2C(=O)c3c(O)c5C4

> <STRUCTURE_SMILES_Desalt>
CCCCC(=O)OCC(=O)[C@@]4(O)C[C@H](O[C@H]1C[C@H](NC(=O)C(F)(F)F)[C@H](O)[C@H](C)O1)c5c(O)c3C(=O)c2c(OC)cccc2C(=O)c3c(O)c5C4

> <Substance_modify_yyyymmdd>
20110812

$$$$
