5613-46-7
ChemmineR-0915142007XD

 21 22  0  0  0  0  0  0  0  0  1 V2000
    7.3689   -3.6533    0.0000 C   0  0  0  0  0  0  0  0  0  0  0  0
    8.3644   -4.5333    0.0000 O   0  0  0  0  0  0  0  0  0  0  0  0
    6.0978   -4.0711    0.0000 C   0  0  0  0  0  0  0  0  0  0  0  0
    7.6266   -2.3378    0.0000 C   0  0  0  0  0  0  0  0  0  0  0  0
    6.6311   -1.4578    0.0000 C   0  0  0  0  0  0  0  0  0  0  0  0
    5.1111   -3.1911    0.0000 C   0  0  0  0  0  0  0  0  0  0  0  0
    5.3689   -1.8933    0.0000 C   0  0  0  0  0  0  0  0  0  0  0  0
    5.8311   -5.3689    0.0000 C   0  0  0  0  0  0  0  0  0  0  0  0
    8.8889   -1.9200    0.0000 C   0  0  0  0  0  0  0  0  0  0  0  0
    1.7333   -3.9911    0.0000 C   0  0  0  0  0  0  0  0  0  0  0  0
    0.8444   -4.9867    0.0000 O   0  0  0  0  0  0  0  0  0  0  0  0
    1.3156   -2.7200    0.0000 C   0  0  0  0  0  0  0  0  0  0  0  0
    3.0311   -4.2578    0.0000 C   0  0  0  0  0  0  0  0  0  0  0  0
    3.9111   -3.2711    0.0000 C   0  0  0  0  0  0  0  0  0  0  0  0
    2.1955   -1.7333    0.0000 C   0  0  0  0  0  0  0  0  0  0  0  0
    3.4933   -2.0000    0.0000 C   0  0  0  0  0  0  0  0  0  0  0  0
    0.0000   -2.4711    0.0000 C   0  0  0  0  0  0  0  0  0  0  0  0
    3.4578   -5.5111    0.0000 C   0  0  0  0  0  0  0  0  0  0  0  0
    4.3733   -1.0133    0.0000 C   0  0  0  0  0  0  0  0  0  0  0  0
    5.2533    0.0000    0.0000 C   0  0  0  0  0  0  0  0  0  0  0  0
    3.3778   -0.1333    0.0000 C   0  0  0  0  0  0  0  0  0  0  0  0
  1  2  1  0  0  0  0
  1  3  2  0  0  0  0
  1  4  1  0  0  0  0
  3  6  1  0  0  0  0
  3  8  1  0  0  0  0
  4  5  2  0  0  0  0
  4  9  1  0  0  0  0
  5  7  1  0  0  0  0
  6  7  2  0  0  0  0
  7 19  1  0  0  0  0
 10 11  1  0  0  0  0
 10 12  2  0  0  0  0
 10 13  1  0  0  0  0
 12 15  1  0  0  0  0
 12 17  1  0  0  0  0
 13 14  2  0  0  0  0
 13 18  1  0  0  0  0
 14 16  1  0  0  0  0
 15 16  2  0  0  0  0
 16 19  1  0  0  0  0
 19 20  1  0  0  0  0
 19 21  1  0  0  0  0
M  END
> <ID>
13046

> <Formula>
C19H24O2

> <FW>
284.3927

> <DSSTox_CID>
27949

> <DSSTox_RID>
82701

> <DSSTox_GSID>
47973

> <DSSTox_FileID_Sort>
7378

> <TS_ChemName>
4,4'-Propane-2,2-diylbis(2,6-dimethylphenol)

> <TS_ChemName_Synonyms>


> <TS_CASRN>
5613-46-7

> <CASRN_ChemName_Relationship>
primary

> <TS_Description>
single chemical compound

> <ChemNote>


> <STRUCTURE_Shown>
tested chemical

> <STRUCTURE_Formula>
C19H24O2

> <STRUCTURE_MW>
284.3927

> <STRUCTURE_ChemType>
defined organic

> <STRUCTURE_DefinedOrganicForm>
parent

> <STRUCTURE_IUPAC>
4,4'-propane-2,2-diylbis(2,6-dimethylphenol)

> <STRUCTURE_SMILES>
Cc1cc(cc(C)c1O)C(C)(C)c2cc(C)c(O)c(C)c2

> <STRUCTURE_SMILES_Desalt>
Cc1cc(cc(C)c1O)C(C)(C)c2cc(C)c(O)c(C)c2

> <Substance_modify_yyyymmdd>
20110418

$$$$
