56180-94-0
ChemmineR-0915142007XD

 44 47  0  0  1  0  0  0  0  0  1 V2000
    3.4480   -5.9925    0.0000 C   0  0  0  0  0  0  0  0  0  0  0  0
    3.4480   -7.3201    0.0000 C   0  0  0  0  0  0  0  0  0  0  0  0
    2.3232   -5.3287    0.0000 C   0  0  0  0  0  0  0  0  0  0  0  0
    2.3232   -7.9839    0.0000 C   0  0  0  0  0  0  0  0  0  0  0  0
    1.1432   -5.9925    0.0000 C   0  0  0  0  0  0  0  0  0  0  0  0
    1.1432   -7.3201    0.0000 C   0  0  0  0  0  0  0  0  0  0  0  0
    4.6096   -7.9839    0.0000 N   0  0  0  0  0  0  0  0  0  0  0  0
    2.3232   -9.3114    0.0000 O   0  0  0  0  0  0  0  0  0  0  0  0
    0.0000   -7.9839    0.0000 O   0  0  0  0  0  0  0  0  0  0  0  0
    0.0000   -5.3287    0.0000 O   0  0  0  0  0  0  0  0  0  0  0  0
    2.3232   -3.9827    0.0000 C   0  0  0  0  0  0  0  0  0  0  0  0
    3.4480   -3.3374    0.0000 O   0  0  0  0  0  0  0  0  0  0  0  0
    8.0760   -5.9925    0.0000 C   0  0  0  0  0  0  0  0  0  0  0  0
    8.0760   -7.3201    0.0000 C   0  0  0  0  0  0  0  0  0  0  0  0
    6.9329   -5.3287    0.0000 O   0  0  0  0  0  0  0  0  0  0  0  0
    6.9329   -7.9839    0.0000 C   0  0  0  0  0  0  0  0  0  0  0  0
    5.7897   -5.9925    0.0000 C   0  0  0  0  0  0  0  0  0  0  0  0
    5.7897   -7.3201    0.0000 C   0  0  0  0  0  0  0  0  0  0  0  0
    9.2377   -5.3287    0.0000 O   0  0  0  0  0  0  0  0  0  0  0  0
    9.2377   -7.9839    0.0000 O   0  0  0  0  0  0  0  0  0  0  0  0
    6.9329   -9.3114    0.0000 O   0  0  0  0  0  0  0  0  0  0  0  0
    4.6096   -5.3287    0.0000 C   0  0  0  0  0  0  0  0  0  0  0  0
   12.6857   -3.3374    0.0000 C   0  0  0  0  0  0  0  0  0  0  0  0
   12.6857   -4.6649    0.0000 C   0  0  0  0  0  0  0  0  0  0  0  0
   11.5240   -2.6551    0.0000 O   0  0  0  0  0  0  0  0  0  0  0  0
   11.5240   -5.3287    0.0000 C   0  0  0  0  0  0  0  0  0  0  0  0
   10.3809   -3.3374    0.0000 C   0  0  0  0  0  0  0  0  0  0  0  0
   10.3809   -4.6649    0.0000 C   0  0  0  0  0  0  0  0  0  0  0  0
   13.8288   -2.6551    0.0000 O   0  0  0  0  0  0  0  0  0  0  0  0
   13.8288   -5.3287    0.0000 O   0  0  0  0  0  0  0  0  0  0  0  0
   11.5240   -6.6563    0.0000 O   0  0  0  0  0  0  0  0  0  0  0  0
    9.2377   -2.6551    0.0000 C   0  0  0  0  0  0  0  0  0  0  0  0
    8.0760   -3.3374    0.0000 O   0  0  0  0  0  0  0  0  0  0  0  0
   17.3137   -0.6822    0.0000 C   0  0  0  0  0  0  0  0  0  0  0  0
   17.3137   -2.0098    0.0000 C   0  0  0  0  0  0  0  0  0  0  0  0
   16.1337    0.0000    0.0000 O   0  0  0  0  0  0  0  0  0  0  0  0
   16.1337   -2.6551    0.0000 C   0  0  0  0  0  0  0  0  0  0  0  0
   14.9905   -0.6822    0.0000 C   0  0  0  0  0  0  0  0  0  0  0  0
   14.9905   -2.0098    0.0000 C   0  0  0  0  0  0  0  0  0  0  0  0
   18.4385    0.0000    0.0000 O   0  0  0  0  0  0  0  0  0  0  0  0
   18.4385   -2.6551    0.0000 O   0  0  0  0  0  0  0  0  0  0  0  0
   16.1337   -3.9827    0.0000 O   0  0  0  0  0  0  0  0  0  0  0  0
   13.8288    0.0000    0.0000 C   0  0  0  0  0  0  0  0  0  0  0  0
   12.6857   -0.6822    0.0000 O   0  0  0  0  0  0  0  0  0  0  0  0
  1  2  1  0  0  0  0
  1  3  2  0  0  0  0
  2  4  1  0  0  0  0
  2  7  1  6  0  0  0
  3  5  1  0  0  0  0
  3 11  1  0  0  0  0
  4  6  1  0  0  0  0
  4  8  1  6  0  0  0
  5  6  1  0  0  0  0
  5 10  1  6  0  0  0
  6  9  1  1  0  0  0
 18  7  1  6  0  0  0
 11 12  1  0  0  0  0
 13 14  1  0  0  0  0
 13 15  1  0  0  0  0
 13 19  1  6  0  0  0
 14 16  1  0  0  0  0
 14 20  1  6  0  0  0
 15 17  1  0  0  0  0
 16 18  1  0  0  0  0
 16 21  1  1  0  0  0
 17 18  1  0  0  0  0
 17 22  1  1  0  0  0
 28 19  1  6  0  0  0
 23 24  1  0  0  0  0
 23 25  1  0  0  0  0
 23 29  1  6  0  0  0
 24 26  1  0  0  0  0
 24 30  1  6  0  0  0
 25 27  1  0  0  0  0
 26 28  1  0  0  0  0
 26 31  1  1  0  0  0
 27 28  1  0  0  0  0
 27 32  1  1  0  0  0
 39 29  1  6  0  0  0
 32 33  1  0  0  0  0
 34 35  1  0  0  0  0
 34 36  1  0  0  0  0
 34 40  1  1  0  0  0
 35 37  1  0  0  0  0
 35 41  1  6  0  0  0
 36 38  1  0  0  0  0
 37 39  1  0  0  0  0
 37 42  1  1  0  0  0
 38 39  1  0  0  0  0
 38 43  1  1  0  0  0
 43 44  1  0  0  0  0
M  END
> <ID>
11368

> <Formula>
C25H43NO18

> <FW>
645.6048

> <DSSTox_CID>
26034

> <DSSTox_RID>
81300

> <DSSTox_GSID>
46034

> <DSSTox_FileID_Sort>
5981

> <TS_ChemName>
Acarbose

> <TS_ChemName_Synonyms>


> <TS_CASRN>
56180-94-0

> <CASRN_ChemName_Relationship>
primary

> <TS_Description>
single chemical compound

> <ChemNote>
stereochem

> <STRUCTURE_Shown>
tested chemical

> <STRUCTURE_Formula>
C25H43NO18

> <STRUCTURE_MW>
645.6048

> <STRUCTURE_ChemType>
defined organic

> <STRUCTURE_DefinedOrganicForm>
parent

> <STRUCTURE_IUPAC>
4,6-dideoxy-4-{[(1S,4R,5S,6S)-4,5,6-trihydroxy-3-(hydroxymethyl)cyclohex-2-en-1-yl]amino}-alpha-D-glucopyranosyl-(1->4)-alpha-D-glucopyranosyl-(1->4)-beta-D-glucopyranose

> <STRUCTURE_SMILES>
OCC4=C[C@H](N[C@H]1[C@H](O)[C@@H](O)[C@H](O[C@@H]1C)O[C@@H]3[C@@H](CO)O[C@H](O[C@@H]2[C@@H](CO)O[C@@H](O)[C@H](O)[C@H]2O)[C@H](O)[C@H]3O)[C@H](O)[C@@H](O)[C@@H]4O

> <STRUCTURE_SMILES_Desalt>
OCC4=C[C@H](N[C@H]1[C@H](O)[C@@H](O)[C@H](O[C@@H]1C)O[C@@H]3[C@@H](CO)O[C@H](O[C@@H]2[C@@H](CO)O[C@@H](O)[C@H](O)[C@H]2O)[C@H](O)[C@H]3O)[C@H](O)[C@@H](O)[C@@H]4O

> <Substance_modify_yyyymmdd>
20100107

$$$$
