562-10-7
ChemmineR-0915142007XD

 28 28  0  0  0  0  0  0  0  0  1 V2000
    4.0344   -8.9083    0.0000 C   0  0  0  0  0  0  0  0  0  0  0  0
    5.1793   -9.5735    0.0000 C   0  0  0  0  0  0  0  0  0  0  0  0
    6.3351   -8.9083    0.0000 C   0  0  0  0  0  0  0  0  0  0  0  0
    6.3351   -7.5781    0.0000 O   0  0  0  0  0  0  0  0  0  0  0  0
    7.4909   -9.5735    0.0000 O   0  0  0  0  0  0  0  0  0  0  0  0
    2.8786   -9.5735    0.0000 C   0  0  0  0  0  0  0  0  0  0  0  0
    2.8786  -10.9037    0.0000 O   0  0  0  0  0  0  0  0  0  0  0  0
    1.7337   -8.9083    0.0000 O   0  0  0  0  0  0  0  0  0  0  0  0
    3.4565   -3.4565    0.0000 C   0  0  0  0  0  0  0  0  0  0  0  0
    4.6123   -2.7914    0.0000 O   0  0  0  0  0  0  0  0  0  0  0  0
    5.7572   -3.4565    0.0000 C   0  0  0  0  0  0  0  0  0  0  0  0
    6.9130   -2.7914    0.0000 C   0  0  0  0  0  0  0  0  0  0  0  0
    8.0578   -3.4565    0.0000 N   0  0  0  0  0  0  0  0  0  0  0  0
    9.2136   -2.7914    0.0000 C   0  0  0  0  0  0  0  0  0  0  0  0
    8.0578   -4.7867    0.0000 C   0  0  0  0  0  0  0  0  0  0  0  0
    4.1216   -4.6123    0.0000 C   0  0  0  0  0  0  0  0  0  0  0  0
    2.3007   -4.1216    0.0000 C   0  0  0  0  0  0  0  0  0  0  0  0
    2.3007   -5.4519    0.0000 C   0  0  0  0  0  0  0  0  0  0  0  0
    1.1558   -6.1170    0.0000 C   0  0  0  0  0  0  0  0  0  0  0  0
    0.0000   -5.4519    0.0000 C   0  0  0  0  0  0  0  0  0  0  0  0
    0.0000   -4.1216    0.0000 C   0  0  0  0  0  0  0  0  0  0  0  0
    1.1558   -3.4565    0.0000 C   0  0  0  0  0  0  0  0  0  0  0  0
    2.7914   -2.3007    0.0000 C   0  0  0  0  0  0  0  0  0  0  0  0
    1.4611   -2.3007    0.0000 C   0  0  0  0  0  0  0  0  0  0  0  0
    0.7960   -1.1558    0.0000 C   0  0  0  0  0  0  0  0  0  0  0  0
    1.4611    0.0000    0.0000 C   0  0  0  0  0  0  0  0  0  0  0  0
    2.7914    0.0000    0.0000 C   0  0  0  0  0  0  0  0  0  0  0  0
    3.4565   -1.1558    0.0000 N   0  0  0  0  0  0  0  0  0  0  0  0
  1  2  1  0  0  0  0
  1  6  1  0  0  0  0
  2  3  1  0  0  0  0
  3  4  2  0  0  0  0
  3  5  1  0  0  0  0
  6  7  2  0  0  0  0
  6  8  1  0  0  0  0
  9 10  1  0  0  0  0
  9 16  1  0  0  0  0
  9 17  1  0  0  0  0
  9 23  1  0  0  0  0
 10 11  1  0  0  0  0
 11 12  1  0  0  0  0
 12 13  1  0  0  0  0
 13 14  1  0  0  0  0
 13 15  1  0  0  0  0
 17 18  2  0  0  0  0
 17 22  1  0  0  0  0
 18 19  1  0  0  0  0
 19 20  2  0  0  0  0
 20 21  1  0  0  0  0
 21 22  2  0  0  0  0
 23 24  2  0  0  0  0
 23 28  1  0  0  0  0
 24 25  1  0  0  0  0
 25 26  2  0  0  0  0
 26 27  1  0  0  0  0
 27 28  2  0  0  0  0
M  END
> <ID>
531

> <Formula>
C21H28N2O5

> <FW>
388.4574 (118.0880+270.3694)

> <DSSTox_CID>
552

> <DSSTox_RID>
75656

> <DSSTox_GSID>
20552

> <DSSTox_FileID_Sort>
340

> <TS_ChemName>
Doxylamine succinate

> <TS_ChemName_Synonyms>


> <TS_CASRN>
562-10-7

> <CASRN_ChemName_Relationship>
primary

> <TS_Description>
single chemical compound

> <ChemNote>
1:1 mixture of doxylamine [469-21-6] and succinic acid [110-15-6]

> <STRUCTURE_Shown>
tested chemical

> <STRUCTURE_Formula>
C21H28N2O5

> <STRUCTURE_MW>
388.4574

> <STRUCTURE_ChemType>
defined organic

> <STRUCTURE_DefinedOrganicForm>
complex

> <STRUCTURE_IUPAC>
N,N-dimethyl-2-[1-phenyl-1-(pyridin-2-yl)ethoxy]ethanamine butanedioate (1:1)

> <STRUCTURE_SMILES>
O=C(O)CCC(=O)O.CN(C)CCOC(C)(c1ccccn1)c2ccccc2

> <STRUCTURE_SMILES_Desalt>
CN(C)CCOC(C)(c1ccccn1)c2ccccc2

> <Substance_modify_yyyymmdd>
20080429

$$$$
