562-74-3
ChemmineR-0915142007XD

 11 11  0  0  0  0  0  0  0  0  1 V2000
    3.9860   -1.9993    0.0000 C   0  0  0  0  0  0  0  0  0  0  0  0
    3.3301   -3.1345    0.0000 C   0  0  0  0  0  0  0  0  0  0  0  0
    1.9993   -3.1345    0.0000 C   0  0  0  0  0  0  0  0  0  0  0  0
    1.3308   -1.9993    0.0000 C   0  0  0  0  0  0  0  0  0  0  0  0
    1.9993   -0.8451    0.0000 C   0  0  0  0  0  0  0  0  0  0  0  0
    3.3301   -0.8451    0.0000 C   0  0  0  0  0  0  0  0  0  0  0  0
    5.1527   -2.6552    0.0000 O   0  0  0  0  0  0  0  0  0  0  0  0
    0.0000   -1.9993    0.0000 C   0  0  0  0  0  0  0  0  0  0  0  0
    5.1527   -1.3245    0.0000 C   0  0  0  0  0  0  0  0  0  0  0  0
    5.1527    0.0000    0.0000 C   0  0  0  0  0  0  0  0  0  0  0  0
    6.3069   -1.9993    0.0000 C   0  0  0  0  0  0  0  0  0  0  0  0
  1  2  1  0  0  0  0
  1  6  1  0  0  0  0
  1  7  1  0  0  0  0
  1  9  1  0  0  0  0
  2  3  1  0  0  0  0
  3  4  2  0  0  0  0
  4  5  1  0  0  0  0
  4  8  1  0  0  0  0
  5  6  1  0  0  0  0
  9 10  1  0  0  0  0
  9 11  1  0  0  0  0
M  END
> <ID>
10472

> <Formula>
C10H18O

> <FW>
154.2493

> <DSSTox_CID>
24824

> <DSSTox_RID>
80505

> <DSSTox_GSID>
44824

> <DSSTox_FileID_Sort>
5187

> <TS_ChemName>
4-Methyl-1-(propan-2-yl)cyclohex-3-en-1-ol

> <TS_ChemName_Synonyms>
4-Methyl-1-(propan-2-yl)cyclohex-3-en-1-ol (3-Cyclohexen-1-ol, 4-methyl-1-(1-methylethyl)-) ((+)-Terpinen-4-ol)

> <TS_CASRN>
562-74-3

> <CASRN_ChemName_Relationship>
primary

> <TS_Description>
single chemical compound

> <ChemNote>


> <STRUCTURE_Shown>
tested chemical

> <STRUCTURE_Formula>
C10H18O

> <STRUCTURE_MW>
154.2493

> <STRUCTURE_ChemType>
defined organic

> <STRUCTURE_DefinedOrganicForm>
parent

> <STRUCTURE_IUPAC>
4-methyl-1-(propan-2-yl)cyclohex-3-en-1-ol

> <STRUCTURE_SMILES>
CC(C)C1(O)CC=C(C)CC1

> <STRUCTURE_SMILES_Desalt>
CC(C)C1(O)CC=C(C)CC1

> <Substance_modify_yyyymmdd>
20091116

$$$$
