562-49-2
ChemmineR-0915142007XD

  7  6  0  0  0  0  0  0  0  0  1 V2000
    3.9864   -2.4875    0.0000 C   0  0  0  0  0  0  0  0  0  0  0  0
    0.0000   -0.1595    0.0000 C   0  0  0  0  0  0  0  0  0  0  0  0
    1.9773   -2.6470    0.0000 C   0  0  0  0  0  0  0  0  0  0  0  0
    1.9932    0.0000    0.0000 C   0  0  0  0  0  0  0  0  0  0  0  0
    0.6697   -1.3235    0.0000 C   0  0  0  0  0  0  0  0  0  0  0  0
    3.3167   -1.3235    0.0000 C   0  0  0  0  0  0  0  0  0  0  0  0
    1.9932   -1.3235    0.0000 C   0  0  0  0  0  0  0  0  0  0  0  0
  1  6  1  0  0  0  0
  2  5  1  0  0  0  0
  3  7  1  0  0  0  0
  4  7  1  0  0  0  0
  5  7  1  0  0  0  0
  6  7  1  0  0  0  0
M  END
> <ID>
14183

> <Formula>
C7H16

> <FW>
100.2019

> <DSSTox_CID>
29275

> <DSSTox_RID>
83394

> <DSSTox_GSID>
49319

> <DSSTox_FileID_Sort>
8069

> <TS_ChemName>
Pentane,3,3-dimethyl-

> <TS_ChemName_Synonyms>


> <TS_CASRN>
562-49-2

> <CASRN_ChemName_Relationship>
primary

> <TS_Description>
single chemical compound

> <ChemNote>


> <STRUCTURE_Shown>
tested chemical

> <STRUCTURE_Formula>
C7H16

> <STRUCTURE_MW>
100.2019

> <STRUCTURE_ChemType>
defined organic

> <STRUCTURE_DefinedOrganicForm>
parent

> <STRUCTURE_IUPAC>
3,3-dimethylpentane

> <STRUCTURE_SMILES>
CC(C)(CC)CC

> <STRUCTURE_SMILES_Desalt>
CC(C)(CC)CC

> <Substance_modify_yyyymmdd>
20111204

$$$$
