56211-40-6
ChemmineR-0915142007XD

 24 25  0  0  0  0  0  0  0  0  1 V2000
    8.6464   -3.4530    0.0000 C   0  0  0  0  0  0  0  0  0  0  0  0
    9.3072   -2.2989    0.0000 C   0  0  0  0  0  0  0  0  0  0  0  0
    8.6464   -1.1541    0.0000 C   0  0  0  0  0  0  0  0  0  0  0  0
    7.3155   -1.1541    0.0000 C   0  0  0  0  0  0  0  0  0  0  0  0
    6.6454    0.0000    0.0000 C   0  0  0  0  0  0  0  0  0  0  0  0
    6.6454   -2.2989    0.0000 C   0  0  0  0  0  0  0  0  0  0  0  0
    7.3155   -3.4530    0.0000 C   0  0  0  0  0  0  0  0  0  0  0  0
    6.6454   -4.6071    0.0000 N   0  0  0  0  0  0  0  0  0  0  0  0
    7.3155   -5.7519    0.0000 C   0  0  0  0  0  0  0  0  0  0  0  0
    6.6454   -6.9060    0.0000 C   0  0  0  0  0  0  0  0  0  0  0  0
    5.3144   -6.9060    0.0000 S   0  0  0  0  0  0  0  0  0  0  0  0
    5.3144   -5.5750    0.0000 O   0  0  0  0  0  0  0  0  0  0  0  0
    5.3144   -8.2369    0.0000 O   0  0  0  0  0  0  0  0  0  0  0  0
    3.9928   -6.9060    0.0000 N   0  0  0  0  0  0  0  0  0  0  0  0
    3.3227   -5.7519    0.0000 C   0  0  0  0  0  0  0  0  0  0  0  0
    3.9928   -4.6071    0.0000 O   0  0  0  0  0  0  0  0  0  0  0  0
    1.9917   -5.7519    0.0000 N   0  0  0  0  0  0  0  0  0  0  0  0
    1.3309   -4.6071    0.0000 C   0  0  0  0  0  0  0  0  0  0  0  0
    0.0000   -4.6071    0.0000 C   0  0  0  0  0  0  0  0  0  0  0  0
    1.9917   -3.4530    0.0000 C   0  0  0  0  0  0  0  0  0  0  0  0
    7.3155   -8.0601    0.0000 C   0  0  0  0  0  0  0  0  0  0  0  0
    8.6464   -8.0601    0.0000 N   0  0  0  0  0  0  0  0  0  0  0  0
    9.3072   -6.9060    0.0000 C   0  0  0  0  0  0  0  0  0  0  0  0
    8.6464   -5.7519    0.0000 C   0  0  0  0  0  0  0  0  0  0  0  0
  1  2  2  0  0  0  0
  1  7  1  0  0  0  0
  2  3  1  0  0  0  0
  3  4  2  0  0  0  0
  4  5  1  0  0  0  0
  4  6  1  0  0  0  0
  6  7  2  0  0  0  0
  7  8  1  0  0  0  0
  8  9  1  0  0  0  0
  9 10  2  0  0  0  0
  9 24  1  0  0  0  0
 10 11  1  0  0  0  0
 10 21  1  0  0  0  0
 11 12  2  0  0  0  0
 11 13  2  0  0  0  0
 11 14  1  0  0  0  0
 14 15  1  0  0  0  0
 15 16  2  0  0  0  0
 15 17  1  0  0  0  0
 17 18  1  0  0  0  0
 18 19  1  0  0  0  0
 18 20  1  0  0  0  0
 21 22  2  0  0  0  0
 22 23  1  0  0  0  0
 23 24  2  0  0  0  0
M  END
> <ID>
3296

> <Formula>
C16H20N4O3S

> <FW>
348.42

> <DSSTox_CID>
3690

> <DSSTox_RID>
77149

> <DSSTox_GSID>
23690

> <DSSTox_FileID_Sort>
1832

> <TS_ChemName>
Torsemide

> <TS_ChemName_Synonyms>


> <TS_CASRN>
56211-40-6

> <CASRN_ChemName_Relationship>
primary

> <TS_Description>
single chemical compound

> <ChemNote>


> <STRUCTURE_Shown>
tested chemical

> <STRUCTURE_Formula>
C16H20N4O3S

> <STRUCTURE_MW>
348.42

> <STRUCTURE_ChemType>
defined organic

> <STRUCTURE_DefinedOrganicForm>
parent

> <STRUCTURE_IUPAC>
4-[(3-methylphenyl)amino]-N-(propan-2-ylcarbamoyl)pyridine-3-sulfonamide

> <STRUCTURE_SMILES>
O=S(=O)(NC(=O)NC(C)C)c2cnccc2Nc1cc(C)ccc1

> <STRUCTURE_SMILES_Desalt>
O=S(=O)(NC(=O)NC(C)C)c2cnccc2Nc1cc(C)ccc1

> <Substance_modify_yyyymmdd>
20080429

$$$$
