5627-46-3
ChemmineR-0915142007XD

 24 27  0  0  0  0  0  0  0  0  1 V2000
    1.5328   -1.8252    0.0000 C    0  0  0  0  0  0  0  0  0  0  0  0
    3.2693   -3.1187    0.0000 C    0  0  0  0  0  0  0  0  0  0  0  0
    2.4276   -2.4276    0.0000 C    0  0  0  0  0  0  0  0  0  0  0  0
    0.8417   -2.4276    0.0000 C    0  0  0  0  0  0  0  0  0  0  0  0
    0.6113   -1.0986    0.0000 N    0  0  0  0  0  0  0  0  0  0  0  0
    2.9947   -1.8429    0.0000 C    0  0  0  0  0  0  0  0  0  0  0  0
    0.0000   -3.5883    0.0000 C    0  0  0  0  0  0  0  0  0  0  0  0
    1.0012   -2.9770    0.0000 C    0  0  0  0  0  0  0  0  0  0  0  0
    1.1784    0.0000    0.0000 C    0  0  0  0  0  0  0  0  0  0  0  0
    3.9604   -4.2705    0.0000 O    0  0  0  0  0  0  0  0  0  0  0  0
    5.3071   -4.2351    0.0000 C    0  0  0  0  0  0  0  0  0  0  0  0
    6.0425   -5.3692    0.0000 C    0  0  0  0  0  0  0  0  0  0  0  0
    5.3692   -6.5298    0.0000 C    0  0  0  0  0  0  0  0  0  0  0  0
    7.3892   -5.3692    0.0000 C    0  0  0  0  0  0  0  0  0  0  0  0
    6.0425   -7.6993    0.0000 C    0  0  0  0  0  0  0  0  0  0  0  0
    8.0537   -6.5298    0.0000 C    0  0  0  0  0  0  0  0  0  0  0  0
    7.3892   -7.6993    0.0000 C    0  0  0  0  0  0  0  0  0  0  0  0
    5.9539   -3.0744    0.0000 C    0  0  0  0  0  0  0  0  0  0  0  0
    7.2918   -3.0744    0.0000 C    0  0  0  0  0  0  0  0  0  0  0  0
    5.2717   -1.9049    0.0000 C    0  0  0  0  0  0  0  0  0  0  0  0
    7.9563   -1.9049    0.0000 C    0  0  0  0  0  0  0  0  0  0  0  0
    5.9539   -0.7442    0.0000 C    0  0  0  0  0  0  0  0  0  0  0  0
    7.2918   -0.7442    0.0000 C    0  0  0  0  0  0  0  0  0  0  0  0
    8.0537   -8.8600    0.0000 Cl   0  0  0  0  0  0  0  0  0  0  0  0
  1  5  1  0  0  0  0
  1  6  1  0  0  0  0
  1  8  1  0  0  0  0
  2  3  1  0  0  0  0
  2  6  1  0  0  0  0
  2 10  1  0  0  0  0
  3  4  1  0  0  0  0
  4  5  1  0  0  0  0
  4  7  1  0  0  0  0
  5  9  1  0  0  0  0
  7  8  1  0  0  0  0
 10 11  1  0  0  0  0
 11 12  1  0  0  0  0
 11 18  1  0  0  0  0
 12 13  1  0  0  0  0
 12 14  2  0  0  0  0
 13 15  2  0  0  0  0
 14 16  1  0  0  0  0
 15 17  1  0  0  0  0
 16 17  2  0  0  0  0
 17 24  1  0  0  0  0
 18 19  1  0  0  0  0
 18 20  2  0  0  0  0
 19 21  2  0  0  0  0
 20 22  1  0  0  0  0
 21 23  1  0  0  0  0
 22 23  2  0  0  0  0
M  END
> <ID>
9727

> <Formula>
C21H24ClNO

> <FW>
341.8744

> <DSSTox_CID>
23897

> <DSSTox_RID>
80084

> <DSSTox_GSID>
43897

> <DSSTox_FileID_Sort>
4766

> <TS_ChemName>
Clobenztropine

> <TS_ChemName_Synonyms>
3alpha-[(4-Chlorophenyl)phenylmethoxy]tropane

> <TS_CASRN>
5627-46-3

> <CASRN_ChemName_Relationship>
primary

> <TS_Description>
single chemical compound

> <ChemNote>


> <STRUCTURE_Shown>
tested chemical

> <STRUCTURE_Formula>
C21H24ClNO

> <STRUCTURE_MW>
341.8744

> <STRUCTURE_ChemType>
defined organic

> <STRUCTURE_DefinedOrganicForm>
parent

> <STRUCTURE_IUPAC>
3-[(4-chlorophenyl)(phenyl)methoxy]-8-methyl-8-azabicyclo[3.2.1]octane

> <STRUCTURE_SMILES>
CN4C1CCC4CC(C1)OC(c2ccccc2)c3ccc(Cl)cc3

> <STRUCTURE_SMILES_Desalt>
CN4C1CCC4CC(C1)OC(c2ccccc2)c3ccc(Cl)cc3

> <Substance_modify_yyyymmdd>
20081229

$$$$
