56275-01-5
ChemmineR-0915142007XD

  9  8  0  0  0  0  0  0  0  0  1 V2000
    1.2428   -1.4183    0.0000 Si   0  0  0  0  0  0  0  0  0  0  0  0
    0.7408   -2.6465    0.0000 O    0  0  0  0  0  0  0  0  0  0  0  0
    2.4710   -1.9057    0.0000 O    0  0  0  0  0  0  0  0  0  0  0  0
    1.4378   -0.0975    0.0000 O    0  0  0  0  0  0  0  0  0  0  0  0
    3.6798   -1.3403    0.0000 Si   0  0  0  0  0  0  0  0  0  0  0  0
    3.6651    0.0000    0.0000 C    0  0  0  0  0  0  0  0  0  0  0  0
    4.2451   -2.5344    0.0000 C    0  0  0  0  0  0  0  0  0  0  0  0
    4.8738   -0.7603    0.0000 C    0  0  0  0  0  0  0  0  0  0  0  0
    0.0000   -0.9358    0.0000 O    0  0  0  0  0  0  0  0  0  0  0  0
  1  2  1  0  0  0  0
  1  3  1  0  0  0  0
  1  4  1  0  0  0  0
  1  9  1  0  0  0  0
  3  5  1  0  0  0  0
  5  6  1  0  0  0  0
  5  7  1  0  0  0  0
  5  8  1  0  0  0  0
M  END
> <ID>
10605

> <Formula>
C3H12O4Si2

> <FW>
168.296

> <DSSTox_CID>
24958

> <DSSTox_RID>
80614

> <DSSTox_GSID>
44958

> <DSSTox_FileID_Sort>
5296

> <TS_ChemName>
Trimethylsilyl silicate

> <TS_ChemName_Synonyms>
3,3,3-Trimethyl-1-oxodisiloxan-1-ol; Silicic acid, trimethylsilyl ester

> <TS_CASRN>
56275-01-5

> <CASRN_ChemName_Relationship>
primary

> <TS_Description>
single chemical compound

> <ChemNote>


> <STRUCTURE_Shown>
tested chemical

> <STRUCTURE_Formula>
C3H12O4Si2

> <STRUCTURE_MW>
168.296

> <STRUCTURE_ChemType>
organometallic

> <STRUCTURE_DefinedOrganicForm>


> <STRUCTURE_IUPAC>
trimethylsilyl trihydrogen orthosilicate

> <STRUCTURE_SMILES>
C[Si](C)(C)O[Si](O)(O)O

> <STRUCTURE_SMILES_Desalt>
C[Si](C)(C)O[Si](O)(O)O

> <Substance_modify_yyyymmdd>
20091116

$$$$
