56287-74-2
ChemmineR-0915142007XD

 21 23  0  0  0  0  0  0  0  0  1 V2000
    5.7572   -3.3438    0.0000 N   0  0  0  0  0  0  0  0  0  0  0  0
    4.6242   -3.9978    0.0000 C   0  0  0  0  0  0  0  0  0  0  0  0
    5.7572   -2.0173    0.0000 C   0  0  0  0  0  0  0  0  0  0  0  0
    3.4728   -3.3438    0.0000 C   0  0  0  0  0  0  0  0  0  0  0  0
    4.6242   -1.3449    0.0000 N   0  0  0  0  0  0  0  0  0  0  0  0
    3.4728   -2.0173    0.0000 C   0  0  0  0  0  0  0  0  0  0  0  0
    6.9087   -3.9978    0.0000 C   0  0  0  0  0  0  0  0  0  0  0  0
    4.6242   -5.3243    0.0000 O   0  0  0  0  0  0  0  0  0  0  0  0
    2.3213   -3.9978    0.0000 C   0  0  0  0  0  0  0  0  0  0  0  0
    6.9087   -5.3243    0.0000 C   0  0  0  0  0  0  0  0  0  0  0  0
    2.3213   -1.3449    0.0000 C   0  0  0  0  0  0  0  0  0  0  0  0
    6.9271   -1.3449    0.0000 C   0  0  0  0  0  0  0  0  0  0  0  0
    1.1699   -3.3438    0.0000 C   0  0  0  0  0  0  0  0  0  0  0  0
    0.0000   -4.0162    0.0000 N   0  0  0  0  0  0  0  0  0  0  0  0
    1.1699   -2.0173    0.0000 C   0  0  0  0  0  0  0  0  0  0  0  0
    6.9271    0.0000    0.0000 F   0  0  0  0  0  0  0  0  0  0  0  0
    8.0601   -3.3438    0.0000 C   0  0  0  0  0  0  0  0  0  0  0  0
    5.7388   -6.0151    0.0000 C   0  0  0  0  0  0  0  0  0  0  0  0
    8.0601   -5.9875    0.0000 C   0  0  0  0  0  0  0  0  0  0  0  0
    9.2116   -3.9978    0.0000 C   0  0  0  0  0  0  0  0  0  0  0  0
    9.2116   -5.3243    0.0000 C   0  0  0  0  0  0  0  0  0  0  0  0
  1  2  1  0  0  0  0
  1  3  1  0  0  0  0
  1  7  1  0  0  0  0
  2  4  1  0  0  0  0
  2  8  2  0  0  0  0
  3  5  2  0  0  0  0
  3 12  1  0  0  0  0
  4  9  1  0  0  0  0
  4  6  2  0  0  0  0
  5  6  1  0  0  0  0
  6 11  1  0  0  0  0
  7 10  2  0  0  0  0
  7 17  1  0  0  0  0
  9 13  2  0  0  0  0
 10 18  1  0  0  0  0
 10 19  1  0  0  0  0
 11 15  2  0  0  0  0
 12 16  1  0  0  0  0
 13 14  1  0  0  0  0
 13 15  1  0  0  0  0
 17 20  2  0  0  0  0
 19 21  2  0  0  0  0
 20 21  1  0  0  0  0
M  END
> <ID>
2324

> <Formula>
C16H14FN3O

> <FW>
283.3003

> <DSSTox_CID>
2562

> <DSSTox_RID>
76631

> <DSSTox_GSID>
22562

> <DSSTox_FileID_Sort>
1315

> <TS_ChemName>
Afloqualone

> <TS_ChemName_Synonyms>


> <TS_CASRN>
56287-74-2

> <CASRN_ChemName_Relationship>
primary

> <TS_Description>
single chemical compound

> <ChemNote>
tautomers

> <STRUCTURE_Shown>
tested chemical

> <STRUCTURE_Formula>
C16H14FN3O

> <STRUCTURE_MW>
283.3003

> <STRUCTURE_ChemType>
defined organic

> <STRUCTURE_DefinedOrganicForm>
parent

> <STRUCTURE_IUPAC>
6-amino-2-(fluoromethyl)-3-(2-methylphenyl)quinazolin-4(3H)-one

> <STRUCTURE_SMILES>
Cc1ccccc1N3C(=Nc2ccc(N)cc2C3=O)CF

> <STRUCTURE_SMILES_Desalt>
Cc1ccccc1N3C(=Nc2ccc(N)cc2C3=O)CF

> <Substance_modify_yyyymmdd>
20080429

$$$$
