563-12-2
ChemmineR-0915142007XD

 19 18  0  0  0  0  0  0  0  0  1 V2000
    7.2276   -2.3060    0.0000 P   0  0  0  0  0  0  0  0  0  0  0  0
    2.6263   -2.3060    0.0000 P   0  0  0  0  0  0  0  0  0  0  0  0
    6.0852   -1.6761    0.0000 S   0  0  0  0  0  0  0  0  0  0  0  0
    3.7793   -1.6761    0.0000 S   0  0  0  0  0  0  0  0  0  0  0  0
    4.9429   -2.3060    0.0000 C   0  0  0  0  0  0  0  0  0  0  0  0
    7.9001   -1.1743    0.0000 S   0  0  0  0  0  0  0  0  0  0  0  0
    3.3095   -3.4910    0.0000 S   0  0  0  0  0  0  0  0  0  0  0  0
    6.5443   -3.4910    0.0000 O   0  0  0  0  0  0  0  0  0  0  0  0
    1.4733   -2.9892    0.0000 O   0  0  0  0  0  0  0  0  0  0  0  0
    1.9964   -1.1530    0.0000 O   0  0  0  0  0  0  0  0  0  0  0  0
    8.3592   -2.9892    0.0000 O   0  0  0  0  0  0  0  0  0  0  0  0
    7.2276   -4.5799    0.0000 C   0  0  0  0  0  0  0  0  0  0  0  0
    9.5229   -2.3060    0.0000 C   0  0  0  0  0  0  0  0  0  0  0  0
    0.6406   -1.1530    0.0000 C   0  0  0  0  0  0  0  0  0  0  0  0
    1.4733   -4.3024    0.0000 C   0  0  0  0  0  0  0  0  0  0  0  0
    6.5443   -5.7650    0.0000 C   0  0  0  0  0  0  0  0  0  0  0  0
    0.0000    0.0000    0.0000 C   0  0  0  0  0  0  0  0  0  0  0  0
   10.6759   -2.9892    0.0000 C   0  0  0  0  0  0  0  0  0  0  0  0
    0.3203   -4.9750    0.0000 C   0  0  0  0  0  0  0  0  0  0  0  0
  1  3  1  0  0  0  0
  1  6  2  0  0  0  0
  1  8  1  0  0  0  0
  1 11  1  0  0  0  0
  2  4  1  0  0  0  0
  2  7  2  0  0  0  0
  2  9  1  0  0  0  0
  2 10  1  0  0  0  0
  3  5  1  0  0  0  0
  4  5  1  0  0  0  0
  8 12  1  0  0  0  0
  9 15  1  0  0  0  0
 10 14  1  0  0  0  0
 11 13  1  0  0  0  0
 12 16  1  0  0  0  0
 13 18  1  0  0  0  0
 14 17  1  0  0  0  0
 15 19  1  0  0  0  0
M  END
> <ID>
3496

> <Formula>
C9H22O4P2S4

> <FW>
384.4761

> <DSSTox_CID>
4086

> <DSSTox_RID>
77283

> <DSSTox_GSID>
24086

> <DSSTox_FileID_Sort>
1966

> <TS_ChemName>
Ethion

> <TS_ChemName_Synonyms>


> <TS_CASRN>
563-12-2

> <CASRN_ChemName_Relationship>
primary

> <TS_Description>
single chemical compound

> <ChemNote>


> <STRUCTURE_Shown>
tested chemical

> <STRUCTURE_Formula>
C9H22O4P2S4

> <STRUCTURE_MW>
384.4761

> <STRUCTURE_ChemType>
defined organic

> <STRUCTURE_DefinedOrganicForm>
parent

> <STRUCTURE_IUPAC>
O,O,O',O'-tetraethyl S,S'-methanediyl bis(phosphorodithioate)

> <STRUCTURE_SMILES>
S=P(SCSP(=S)(OCC)OCC)(OCC)OCC

> <STRUCTURE_SMILES_Desalt>
S=P(SCSP(=S)(OCC)OCC)(OCC)OCC

> <Substance_modify_yyyymmdd>
20080429

$$$$
