563-72-4
ChemmineR-0915142007XD

  7  5  0  0  0  0  0  0  0  0  2 V2000
    1.1533   -1.3486    0.0000 C    0  0  0  0  0  0  0  0  0  0  0  0
    2.3128   -1.9893    0.0000 C    0  0  0  0  0  0  0  0  0  0  0  0
    1.1533    0.0000    0.0000 O    0  0  0  0  0  0  0  0  0  0  0  0
    0.0000   -1.9893    0.0000 O    0  5  0  0  0  0  0  0  0  0  0  0
    2.3128   -3.3380    0.0000 O    0  0  0  0  0  0  0  0  0  0  0  0
    3.4539   -1.3486    0.0000 O    0  5  0  0  0  0  0  0  0  0  0  0
    6.1023   -1.6659    0.0000 Ca   0  2  0  0  0  0  0  0  0  0  0  0
  1  2  1  0  0  0  0
  1  4  1  0  0  0  0
  1  3  2  0  0  0  0
  2  6  1  0  0  0  0
  2  5  2  0  0  0  0
M  END
> <ID>
5001

> <Formula>
C2CaO4

> <FW>
128.0970 (88.0201+40.0769)

> <DSSTox_CID>
7214

> <DSSTox_RID>
78352

> <DSSTox_GSID>
27214

> <DSSTox_FileID_Sort>
3035

> <TS_ChemName>
Ethanedioic acid, calcium salt (1:1)

> <TS_ChemName_Synonyms>


> <TS_CASRN>
563-72-4

> <CASRN_ChemName_Relationship>
primary

> <TS_Description>
single chemical compound

> <ChemNote>
parent [144-62-7]

> <STRUCTURE_Shown>
tested chemical

> <STRUCTURE_Formula>
C2CaO4

> <STRUCTURE_MW>
128.097

> <STRUCTURE_ChemType>
defined organic

> <STRUCTURE_DefinedOrganicForm>
salt

> <STRUCTURE_IUPAC>
calcium ethanedioate

> <STRUCTURE_SMILES>
[Ca+2].[O-]C(=O)C([O-])=O

> <STRUCTURE_SMILES_Desalt>
O=C(O)C(=O)O

> <Substance_modify_yyyymmdd>
20080429

$$$$
