563-68-8
ChemmineR-0915142007XD

  5  3  0  0  0  0  0  0  0  0  2 V2000
    2.3018   -1.9965    0.0000 O    0  5  0  0  0  0  0  0  0  0  0  0
    1.1558    0.0000    0.0000 O    0  0  0  0  0  0  0  0  0  0  0  0
    1.1558   -1.3302    0.0000 C    0  0  0  0  0  0  0  0  0  0  0  0
    0.0000   -1.9965    0.0000 C    0  0  0  0  0  0  0  0  0  0  0  0
    2.4230   -0.6469    0.0000 Tl   0  3  0  0  0  0  0  0  0  0  0  0
  1  3  1  0  0  0  0
  2  3  2  0  0  0  0
  3  4  1  0  0  0  0
M  END
> <ID>
3626

> <Formula>
C2H3O2Tl

> <FW>
263.4273 (59.0446+204.3828)

> <DSSTox_CID>
4331

> <DSSTox_RID>
77370

> <DSSTox_GSID>
24331

> <DSSTox_FileID_Sort>
2053

> <TS_ChemName>
Thallium acetate

> <TS_ChemName_Synonyms>


> <TS_CASRN>
563-68-8

> <CASRN_ChemName_Relationship>
primary

> <TS_Description>
single chemical compound

> <ChemNote>


> <STRUCTURE_Shown>
tested chemical

> <STRUCTURE_Formula>
C2H3O2Tl

> <STRUCTURE_MW>
263.4273

> <STRUCTURE_ChemType>
organometallic

> <STRUCTURE_DefinedOrganicForm>


> <STRUCTURE_IUPAC>
thallium(1+) acetate

> <STRUCTURE_SMILES>
[Tl+].[O-]C(C)=O

> <STRUCTURE_SMILES_Desalt>
CC(=O)O

> <Substance_modify_yyyymmdd>
20080429

$$$$
