563-80-4
ChemmineR-0915142007XD

  6  5  0  0  0  0  0  0  0  0  1 V2000
    3.3250   -1.1509    0.0000 C   0  0  0  0  0  0  0  0  0  0  0  0
    1.9943   -1.1509    0.0000 C   0  0  0  0  0  0  0  0  0  0  0  0
    1.3307    0.0000    0.0000 O   0  0  0  0  0  0  0  0  0  0  0  0
    1.3307   -2.3053    0.0000 C   0  0  0  0  0  0  0  0  0  0  0  0
    1.9943   -3.4563    0.0000 C   0  0  0  0  0  0  0  0  0  0  0  0
    0.0000   -2.3053    0.0000 C   0  0  0  0  0  0  0  0  0  0  0  0
  1  2  1  0  0  0  0
  2  3  2  0  0  0  0
  2  4  1  0  0  0  0
  4  5  1  0  0  0  0
  4  6  1  0  0  0  0
M  END
> <ID>
1906

> <Formula>
C5H10O

> <FW>
86.1323

> <DSSTox_CID>
2062

> <DSSTox_RID>
76478

> <DSSTox_GSID>
22062

> <DSSTox_FileID_Sort>
1162

> <TS_ChemName>
3-Methyl-2-butanone

> <TS_ChemName_Synonyms>
3-Methyl-2-butanone (Methyl isopropyl ketone)

> <TS_CASRN>
563-80-4

> <CASRN_ChemName_Relationship>
primary

> <TS_Description>
single chemical compound

> <ChemNote>


> <STRUCTURE_Shown>
tested chemical

> <STRUCTURE_Formula>
C5H10O

> <STRUCTURE_MW>
86.1323

> <STRUCTURE_ChemType>
defined organic

> <STRUCTURE_DefinedOrganicForm>
parent

> <STRUCTURE_IUPAC>
3-methylbutan-2-one

> <STRUCTURE_SMILES>
CC(C)C(C)=O

> <STRUCTURE_SMILES_Desalt>
CC(C)C(C)=O

> <Substance_modify_yyyymmdd>
20080429

$$$$
