563-58-6
ChemmineR-0915142007XD

  5  4  0  0  0  0  0  0  0  0  1 V2000
    1.1541   -1.3308    0.0000 C    0  0  0  0  0  0  0  0  0  0  0  0
    2.3116   -1.9893    0.0000 C    0  0  0  0  0  0  0  0  0  0  0  0
    3.4657   -1.3308    0.0000 C    0  0  0  0  0  0  0  0  0  0  0  0
    1.1541    0.0000    0.0000 Cl   0  0  0  0  0  0  0  0  0  0  0  0
    0.0000   -1.9893    0.0000 Cl   0  0  0  0  0  0  0  0  0  0  0  0
  1  2  2  0  0  0  0
  1  4  1  0  0  0  0
  1  5  1  0  0  0  0
  2  3  1  0  0  0  0
M  END
> <ID>
6249

> <Formula>
C3H4Cl2

> <FW>
110.9699

> <DSSTox_CID>
9910

> <DSSTox_RID>
78832

> <DSSTox_GSID>
29910

> <DSSTox_FileID_Sort>
3514

> <TS_ChemName>
1,1-Dichloropropene

> <TS_ChemName_Synonyms>


> <TS_CASRN>
563-58-6

> <CASRN_ChemName_Relationship>
primary

> <TS_Description>
single chemical compound

> <ChemNote>


> <STRUCTURE_Shown>
tested chemical

> <STRUCTURE_Formula>
C3H4Cl2

> <STRUCTURE_MW>
110.9699

> <STRUCTURE_ChemType>
defined organic

> <STRUCTURE_DefinedOrganicForm>
parent

> <STRUCTURE_IUPAC>
1,1-dichloroprop-1-ene

> <STRUCTURE_SMILES>
C\C=C(\Cl)Cl

> <STRUCTURE_SMILES_Desalt>
C\C=C(\Cl)Cl

> <Substance_modify_yyyymmdd>
20080429

$$$$
