5632-47-3
ChemmineR-0915142007XD

  8  8  0  0  0  0  0  0  0  0  1 V2000
    0.0000    0.0000    0.0000 O   0  0  0  0  0  0  0  0  0  0  0  0
    0.6654   -1.1540    0.0000 N   0  0  0  0  0  0  0  0  0  0  0  0
    1.9962   -1.1540    0.0000 N   0  0  0  0  0  0  0  0  0  0  0  0
    2.6569    0.0000    0.0000 C   0  0  0  0  0  0  0  0  0  0  0  0
    3.9877    0.0000    0.0000 C   0  0  0  0  0  0  0  0  0  0  0  0
    4.6531   -1.1540    0.0000 N   0  0  0  0  0  0  0  0  0  0  0  0
    2.6569   -2.3033    0.0000 C   0  0  0  0  0  0  0  0  0  0  0  0
    3.9877   -2.3033    0.0000 C   0  0  0  0  0  0  0  0  0  0  0  0
  1  2  2  0  0  0  0
  2  3  1  0  0  0  0
  3  4  1  0  0  0  0
  3  7  1  0  0  0  0
  4  5  1  0  0  0  0
  5  6  1  0  0  0  0
  6  8  1  0  0  0  0
  7  8  1  0  0  0  0
M  END
> <ID>
1023

> <Formula>
C4H9N3O

> <FW>
115.1338

> <DSSTox_CID>
1059

> <DSSTox_RID>
75923

> <DSSTox_GSID>
21059

> <DSSTox_FileID_Sort>
607

> <TS_ChemName>
N-Nitrosopiperazine

> <TS_ChemName_Synonyms>


> <TS_CASRN>
5632-47-3

> <CASRN_ChemName_Relationship>
primary

> <TS_Description>
single chemical compound

> <ChemNote>


> <STRUCTURE_Shown>
tested chemical

> <STRUCTURE_Formula>
C4H9N3O

> <STRUCTURE_MW>
115.1338

> <STRUCTURE_ChemType>
defined organic

> <STRUCTURE_DefinedOrganicForm>
parent

> <STRUCTURE_IUPAC>
1-nitrosopiperazine

> <STRUCTURE_SMILES>
O=NN1CCNCC1

> <STRUCTURE_SMILES_Desalt>
O=NN1CCNCC1

> <Substance_modify_yyyymmdd>
20080429

$$$$
