5634-42-4
ChemmineR-0915142007XD

 30 30  0  0  0  0  0  0  0  0  1 V2000
    5.2802   -6.9443    0.0000 C   0  0  0  0  0  0  0  0  0  0  0  0
    4.6722   -5.9202    0.0000 C   0  0  0  0  0  0  0  0  0  0  0  0
    5.2802   -4.8962    0.0000 O   0  0  0  0  0  0  0  0  0  0  0  0
    6.4482   -4.8962    0.0000 C   0  0  0  0  0  0  0  0  0  0  0  0
    7.0403   -5.9202    0.0000 O   0  0  0  0  0  0  0  0  0  0  0  0
    7.0403   -3.8881    0.0000 C   0  0  0  0  0  0  0  0  0  0  0  0
    7.8243   -4.7682    0.0000 C   0  0  0  0  0  0  0  0  0  0  0  0
    6.0002   -3.3121    0.0000 C   0  0  0  0  0  0  0  0  0  0  0  0
    6.2402   -2.1761    0.0000 C   0  0  0  0  0  0  0  0  0  0  0  0
    7.4403   -2.0481    0.0000 C   0  0  0  0  0  0  0  0  0  0  0  0
    8.0163   -1.0080    0.0000 C   0  0  0  0  0  0  0  0  0  0  0  0
    9.1843   -1.0080    0.0000 O   0  0  0  0  0  0  0  0  0  0  0  0
    7.4403    0.0000    0.0000 O   0  0  0  0  0  0  0  0  0  0  0  0
    7.9203   -3.1201    0.0000 C   0  0  0  0  0  0  0  0  0  0  0  0
    8.7043   -3.9681    0.0000 C   0  0  0  0  0  0  0  0  0  0  0  0
    8.9763   -2.6401    0.0000 C   0  0  0  0  0  0  0  0  0  0  0  0
    3.5201   -5.9202    0.0000 C   0  0  0  0  0  0  0  0  0  0  0  0
    2.9281   -4.8962    0.0000 C   0  0  0  0  0  0  0  0  0  0  0  0
    1.7601   -4.8962    0.0000 C   0  0  0  0  0  0  0  0  0  0  0  0
    1.1680   -5.9202    0.0000 C   0  0  0  0  0  0  0  0  0  0  0  0
    0.0000   -5.9202    0.0000 C   0  0  0  0  0  0  0  0  0  0  0  0
    1.7601   -6.9443    0.0000 C   0  0  0  0  0  0  0  0  0  0  0  0
    2.9281   -6.9443    0.0000 C   0  0  0  0  0  0  0  0  0  0  0  0
    5.8722   -8.8323    0.0000 O   0  0  0  0  0  0  0  0  0  0  0  0
   16.0006   -8.8323    0.0000 O   0  0  0  0  0  0  0  0  0  0  0  0
   14.3205   -7.8563    0.0000 C   0  0  0  0  0  0  0  0  0  0  0  0
   12.6245   -8.8323    0.0000 C   0  0  0  0  0  0  0  0  0  0  0  0
   10.9444   -7.8563    0.0000 N   0  0  0  0  0  0  0  0  0  0  0  0
    7.5683   -7.8563    0.0000 C   0  0  0  0  0  0  0  0  0  0  0  0
    9.2643   -8.8323    0.0000 C   0  0  0  0  0  0  0  0  0  0  0  0
  1  2  1  0  0  0  0
  2  3  1  0  0  0  0
  2 17  1  0  0  0  0
  3  4  1  0  0  0  0
  4  5  2  0  0  0  0
  4  6  1  0  0  0  0
  6  7  1  0  0  0  0
  6  8  1  0  0  0  0
  6 14  1  0  0  0  0
  8  9  1  0  0  0  0
  9 10  1  0  0  0  0
 10 11  1  0  0  0  0
 10 14  1  0  0  0  0
 11 12  1  0  0  0  0
 11 13  2  0  0  0  0
 14 15  1  0  0  0  0
 14 16  1  0  0  0  0
 17 18  2  0  0  0  0
 17 23  1  0  0  0  0
 18 19  1  0  0  0  0
 19 20  2  0  0  0  0
 20 21  1  0  0  0  0
 20 22  1  0  0  0  0
 22 23  2  0  0  0  0
 24 29  1  0  0  0  0
 25 26  1  0  0  0  0
 26 27  1  0  0  0  0
 27 28  1  0  0  0  0
 28 30  1  0  0  0  0
 29 30  1  0  0  0  0
M  END
> <ID>
16177

> <Formula>
C23H37NO6

> <FW>
423.5430 (318.4073+105.1356)

> <DSSTox_CID>
31567

> <DSSTox_RID>
97452

> <DSSTox_GSID>
57778

> <DSSTox_FileID_Sort>
8519

> <TS_ChemName>
Tocanfil

> <TS_ChemName_Synonyms>


> <TS_CASRN>
5634-42-4

> <CASRN_ChemName_Relationship>
primary

> <TS_Description>
single chemical compound

> <ChemNote>


> <STRUCTURE_Shown>
tested chemical

> <STRUCTURE_Formula>
C23H37NO6

> <STRUCTURE_MW>
423.543

> <STRUCTURE_ChemType>
defined organic

> <STRUCTURE_DefinedOrganicForm>
complex

> <STRUCTURE_IUPAC>
2,2,3-trimethyl-3-{[1-(4-methylphenyl)ethoxy]carbonyl}cyclopentanecarboxylic acid - 2,2'-iminodiethanol (1:1)

> <STRUCTURE_SMILES>
CC1(CCC(C(=O)O)C1(C)C)C(=O)OC(C)c2ccc(C)cc2.OCCNCCO

> <STRUCTURE_SMILES_Desalt>
CC1(CCC(C(=O)O)C1(C)C)C(=O)OC(C)c2ccc(C)cc2

> <Substance_modify_yyyymmdd>
20131018

$$$$
