56392-17-7
ChemmineR-0915142007XD

 48 47  0  0  1  0  0  0  0  0  1 V2000
   13.5728   -2.6669    0.0000 N   0  0  0  0  0  0  0  0  0  0  0  0
    8.9533   -2.6669    0.0000 O   0  0  0  0  0  0  0  0  0  0  0  0
   11.2710   -2.6669    0.0000 C   0  0  0  0  0  0  0  0  0  0  0  0
    7.7944   -2.0161    0.0000 C   0  0  0  0  0  0  0  0  0  0  0  0
   12.4298   -2.0161    0.0000 C   0  0  0  0  0  0  0  0  0  0  0  0
   10.0963   -2.0161    0.0000 C   0  0  0  0  0  0  0  0  0  0  0  0
    5.5085   -0.6826    0.0000 C   0  0  0  0  0  0  0  0  0  0  0  0
    6.6673   -2.6669    0.0000 C   0  0  0  0  0  0  0  0  0  0  0  0
    7.7944   -0.6826    0.0000 C   0  0  0  0  0  0  0  0  0  0  0  0
    6.6673    0.0000    0.0000 C   0  0  0  0  0  0  0  0  0  0  0  0
    5.5085   -2.0161    0.0000 C   0  0  0  0  0  0  0  0  0  0  0  0
   11.2710   -4.0004    0.0000 O   0  0  0  0  0  0  0  0  0  0  0  0
   14.7158   -2.0161    0.0000 C   0  0  0  0  0  0  0  0  0  0  0  0
    2.0320    0.0000    0.0000 O   0  0  0  0  0  0  0  0  0  0  0  0
    4.3655    0.0000    0.0000 C   0  0  0  0  0  0  0  0  0  0  0  0
    3.2067   -0.6826    0.0000 C   0  0  0  0  0  0  0  0  0  0  0  0
    0.9049   -0.6826    0.0000 C   0  0  0  0  0  0  0  0  0  0  0  0
   14.7158   -0.6826    0.0000 C   0  0  0  0  0  0  0  0  0  0  0  0
   15.8746   -2.6669    0.0000 C   0  0  0  0  0  0  0  0  0  0  0  0
    2.3018   -5.8736    0.0000 C   0  0  0  0  0  0  0  0  0  0  0  0
    3.4448   -5.2069    0.0000 C   0  0  0  0  0  0  0  0  0  0  0  0
    1.1747   -5.2069    0.0000 C   0  0  0  0  0  0  0  0  0  0  0  0
    4.6354   -5.8736    0.0000 C   0  0  0  0  0  0  0  0  0  0  0  0
    4.6354   -7.2071    0.0000 O   0  0  0  0  0  0  0  0  0  0  0  0
    1.1747   -3.8734    0.0000 O   0  0  0  0  0  0  0  0  0  0  0  0
    5.7942   -5.2069    0.0000 O   0  0  0  0  0  0  0  0  0  0  0  0
    0.0159   -5.8736    0.0000 O   0  0  0  0  0  0  0  0  0  0  0  0
    3.4448   -3.8734    0.0000 O   0  0  0  0  0  0  0  0  0  0  0  0
    2.3018   -7.2071    0.0000 O   0  0  0  0  0  0  0  0  0  0  0  0
   12.6838  -11.9695    0.0000 N   0  0  0  0  0  0  0  0  0  0  0  0
    8.0643  -11.9695    0.0000 O   0  0  0  0  0  0  0  0  0  0  0  0
   10.3661  -11.9695    0.0000 C   0  0  0  0  0  0  0  0  0  0  0  0
    6.9055  -11.3345    0.0000 C   0  0  0  0  0  0  0  0  0  0  0  0
   11.5250  -11.3345    0.0000 C   0  0  0  0  0  0  0  0  0  0  0  0
    9.1914  -11.3345    0.0000 C   0  0  0  0  0  0  0  0  0  0  0  0
    4.6036  -10.0010    0.0000 C   0  0  0  0  0  0  0  0  0  0  0  0
    5.7625  -11.9695    0.0000 C   0  0  0  0  0  0  0  0  0  0  0  0
    6.9055  -10.0010    0.0000 C   0  0  0  0  0  0  0  0  0  0  0  0
    5.7625   -9.3025    0.0000 C   0  0  0  0  0  0  0  0  0  0  0  0
    4.6036  -11.3345    0.0000 C   0  0  0  0  0  0  0  0  0  0  0  0
   10.3661  -13.3030    0.0000 O   0  0  0  0  0  0  0  0  0  0  0  0
   13.8268  -11.3345    0.0000 C   0  0  0  0  0  0  0  0  0  0  0  0
    1.1430   -9.3025    0.0000 O   0  0  0  0  0  0  0  0  0  0  0  0
    3.4607   -9.3025    0.0000 C   0  0  0  0  0  0  0  0  0  0  0  0
    2.3177  -10.0010    0.0000 C   0  0  0  0  0  0  0  0  0  0  0  0
    0.0000  -10.0010    0.0000 C   0  0  0  0  0  0  0  0  0  0  0  0
   13.8268  -10.0010    0.0000 C   0  0  0  0  0  0  0  0  0  0  0  0
   14.9698  -11.9695    0.0000 C   0  0  0  0  0  0  0  0  0  0  0  0
  1  5  1  0  0  0  0
  1 13  1  0  0  0  0
  2  6  1  0  0  0  0
  2  4  1  0  0  0  0
  3  5  1  0  0  0  0
  3  6  1  0  0  0  0
  3 12  1  0  0  0  0
  4  8  1  0  0  0  0
  4  9  2  0  0  0  0
  7 10  2  0  0  0  0
  7 15  1  0  0  0  0
  7 11  1  0  0  0  0
  8 11  2  0  0  0  0
  9 10  1  0  0  0  0
 13 18  1  0  0  0  0
 13 19  1  0  0  0  0
 14 16  1  0  0  0  0
 14 17  1  0  0  0  0
 15 16  1  0  0  0  0
 20 21  1  0  0  0  0
 20 22  1  0  0  0  0
 20 29  1  1  0  0  0
 21 23  1  0  0  0  0
 21 28  1  1  0  0  0
 22 25  2  0  0  0  0
 22 27  1  0  0  0  0
 23 24  2  0  0  0  0
 23 26  1  0  0  0  0
 30 34  1  0  0  0  0
 30 42  1  0  0  0  0
 31 35  1  0  0  0  0
 31 33  1  0  0  0  0
 32 34  1  0  0  0  0
 32 35  1  0  0  0  0
 32 41  1  0  0  0  0
 33 37  1  0  0  0  0
 33 38  2  0  0  0  0
 36 39  2  0  0  0  0
 36 44  1  0  0  0  0
 36 40  1  0  0  0  0
 37 40  2  0  0  0  0
 38 39  1  0  0  0  0
 42 47  1  0  0  0  0
 42 48  1  0  0  0  0
 43 45  1  0  0  0  0
 43 46  1  0  0  0  0
 44 45  1  0  0  0  0
M  END
> <ID>
7286

> <Formula>
C34H56N2O12

> <FW>
684.8146 (267.3639+150.0868+267.3639)

> <DSSTox_CID>
17248

> <DSSTox_RID>
79315

> <DSSTox_GSID>
37248

> <DSSTox_FileID_Sort>
3997

> <TS_ChemName>
Metoprolol tartrate

> <TS_ChemName_Synonyms>


> <TS_CASRN>
56392-17-7

> <CASRN_ChemName_Relationship>
primary

> <TS_Description>
single chemical compound

> <ChemNote>
stereochem; parent [51384-51-1]

> <STRUCTURE_Shown>
tested chemical

> <STRUCTURE_Formula>
C34H56N2O12

> <STRUCTURE_MW>
684.8146

> <STRUCTURE_ChemType>
defined organic

> <STRUCTURE_DefinedOrganicForm>
complex

> <STRUCTURE_IUPAC>
(2R,3R)-2,3-dihydroxybutanedioic acid - 1-[4-(2-methoxyethyl)phenoxy]-3-(propan-2-ylamino)propan-2-ol (1:2)

> <STRUCTURE_SMILES>
O=C(O)[C@H](O)[C@@H](O)C(=O)O.CC(C)NCC(O)COc1ccc(CCOC)cc1.CC(C)NCC(O)COc1ccc(cc1)CCOC

> <STRUCTURE_SMILES_Desalt>
CC(C)NCC(O)COc1ccc(cc1)CCOC

> <Substance_modify_yyyymmdd>
20110714

$$$$
