56391-57-2
ChemmineR-0915142007XD

 91 90  0  0  1  0  0  0  0  0  1 V2000
    3.3644  -16.2307    0.0000 O   0  0  0  0  0  0  0  0  0  0  0  0
    2.2633  -15.5782    0.0000 C   0  0  0  0  0  0  0  0  0  0  0  0
    2.2633  -14.2936    0.0000 O   0  0  0  0  0  0  0  0  0  0  0  0
    1.1215  -13.6615    0.0000 C   0  0  0  0  0  0  0  0  0  0  0  0
    0.0000  -14.2936    0.0000 C   0  0  0  0  0  0  0  0  0  0  0  0
    1.1215  -16.2307    0.0000 C   0  0  0  0  0  0  0  0  0  0  0  0
    0.0000  -15.5782    0.0000 C   0  0  0  0  0  0  0  0  0  0  0  0
    1.1215  -17.5357    0.0000 N   0  0  0  0  0  0  0  0  0  0  0  0
    2.2633  -11.7041    0.0000 N   0  0  0  0  0  0  0  0  0  0  0  0
    1.1215  -12.3565    0.0000 C   0  0  0  0  0  0  0  0  0  0  0  0
    4.4859  -15.5782    0.0000 C   0  0  0  0  0  0  0  0  0  0  0  0
    5.6073  -16.2307    0.0000 C   0  0  0  0  0  0  0  0  0  0  0  0
    4.4859  -14.2936    0.0000 C   0  0  0  0  0  0  0  0  0  0  0  0
    6.7288  -15.5782    0.0000 C   0  0  0  0  0  0  0  0  0  0  0  0
    5.6073  -13.6615    0.0000 C   0  0  0  0  0  0  0  0  0  0  0  0
    6.7288  -14.2936    0.0000 C   0  0  0  0  0  0  0  0  0  0  0  0
    5.6073  -17.6784    0.0000 O   0  0  0  0  0  0  0  0  0  0  0  0
    7.9930  -16.3123    0.0000 O   0  0  0  0  0  0  0  0  0  0  0  0
    3.2421  -13.5800    0.0000 N   0  0  0  0  0  0  0  0  0  0  0  0
    7.9930  -13.5800    0.0000 N   0  0  0  0  0  0  0  0  0  0  0  0
    7.9930  -12.1322    0.0000 C   0  0  0  0  0  0  0  0  0  0  0  0
    9.2368  -11.4186    0.0000 C   0  0  0  0  0  0  0  0  0  0  0  0
    9.1145  -15.6598    0.0000 C   0  0  0  0  0  0  0  0  0  0  0  0
   10.2156  -16.3123    0.0000 C   0  0  0  0  0  0  0  0  0  0  0  0
    9.1145  -14.3752    0.0000 O   0  0  0  0  0  0  0  0  0  0  0  0
   11.3574  -15.6598    0.0000 C   0  0  0  0  0  0  0  0  0  0  0  0
   10.2156  -13.7227    0.0000 C   0  0  0  0  0  0  0  0  0  0  0  0
   11.3574  -14.3752    0.0000 C   0  0  0  0  0  0  0  0  0  0  0  0
   10.2156  -17.7600    0.0000 O   0  0  0  0  0  0  0  0  0  0  0  0
   12.0711  -13.1314    0.0000 O   0  0  0  0  0  0  0  0  0  0  0  0
   12.8051  -14.3752    0.0000 C   0  0  0  0  0  0  0  0  0  0  0  0
   12.5808  -16.3734    0.0000 N   0  0  0  0  0  0  0  0  0  0  0  0
   12.5808  -17.8212    0.0000 C   0  0  0  0  0  0  0  0  0  0  0  0
    4.4247   -4.8121    0.0000 O   0  0  0  0  0  0  0  0  0  0  0  0
    3.3236   -4.1596    0.0000 C   0  0  0  0  0  0  0  0  0  0  0  0
    3.3236   -2.8750    0.0000 O   0  0  0  0  0  0  0  0  0  0  0  0
    2.1818   -2.2429    0.0000 C   0  0  0  0  0  0  0  0  0  0  0  0
    1.0807   -2.8750    0.0000 C   0  0  0  0  0  0  0  0  0  0  0  0
    2.1818   -4.8121    0.0000 C   0  0  0  0  0  0  0  0  0  0  0  0
    1.0807   -4.1596    0.0000 C   0  0  0  0  0  0  0  0  0  0  0  0
    2.1818   -6.1171    0.0000 N   0  0  0  0  0  0  0  0  0  0  0  0
    3.3236   -0.2651    0.0000 N   0  0  0  0  0  0  0  0  0  0  0  0
    2.1818   -0.9176    0.0000 C   0  0  0  0  0  0  0  0  0  0  0  0
    5.5666   -4.1596    0.0000 C   0  0  0  0  0  0  0  0  0  0  0  0
    6.6880   -4.8121    0.0000 C   0  0  0  0  0  0  0  0  0  0  0  0
    5.5666   -2.8750    0.0000 C   0  0  0  0  0  0  0  0  0  0  0  0
    7.8095   -4.1596    0.0000 C   0  0  0  0  0  0  0  0  0  0  0  0
    6.6880   -2.2429    0.0000 C   0  0  0  0  0  0  0  0  0  0  0  0
    7.8095   -2.8750    0.0000 C   0  0  0  0  0  0  0  0  0  0  0  0
    6.6880   -6.2598    0.0000 O   0  0  0  0  0  0  0  0  0  0  0  0
    9.0533   -4.8937    0.0000 O   0  0  0  0  0  0  0  0  0  0  0  0
    4.3024   -2.1614    0.0000 N   0  0  0  0  0  0  0  0  0  0  0  0
    9.0533   -2.1614    0.0000 N   0  0  0  0  0  0  0  0  0  0  0  0
    9.0533   -0.7137    0.0000 C   0  0  0  0  0  0  0  0  0  0  0  0
   10.2971    0.0000    0.0000 C   0  0  0  0  0  0  0  0  0  0  0  0
   10.1748   -4.2412    0.0000 C   0  0  0  0  0  0  0  0  0  0  0  0
   11.2759   -4.8937    0.0000 C   0  0  0  0  0  0  0  0  0  0  0  0
   10.1748   -2.9566    0.0000 O   0  0  0  0  0  0  0  0  0  0  0  0
   12.4381   -4.2412    0.0000 C   0  0  0  0  0  0  0  0  0  0  0  0
   11.2759   -2.3041    0.0000 C   0  0  0  0  0  0  0  0  0  0  0  0
   12.4381   -2.9566    0.0000 C   0  0  0  0  0  0  0  0  0  0  0  0
   11.2759   -6.3414    0.0000 O   0  0  0  0  0  0  0  0  0  0  0  0
   13.1518   -1.7128    0.0000 O   0  0  0  0  0  0  0  0  0  0  0  0
   13.8858   -2.9566    0.0000 C   0  0  0  0  0  0  0  0  0  0  0  0
   13.6615   -4.9549    0.0000 N   0  0  0  0  0  0  0  0  0  0  0  0
   13.6615   -6.4026    0.0000 C   0  0  0  0  0  0  0  0  0  0  0  0
    1.7128   -8.8290    0.0000 S   0  0  0  0  0  0  0  0  0  0  0  0
    2.9974   -8.8290    0.0000 O   0  0  0  0  0  0  0  0  0  0  0  0
    0.4282   -8.8290    0.0000 O   0  0  0  0  0  0  0  0  0  0  0  0
    1.7128  -10.1340    0.0000 O   0  0  0  0  0  0  0  0  0  0  0  0
    1.7128   -7.5444    0.0000 O   0  0  0  0  0  0  0  0  0  0  0  0
    6.5045   -8.8290    0.0000 S   0  0  0  0  0  0  0  0  0  0  0  0
    7.8095   -8.8290    0.0000 O   0  0  0  0  0  0  0  0  0  0  0  0
    5.2199   -8.8290    0.0000 O   0  0  0  0  0  0  0  0  0  0  0  0
    6.5045  -10.1340    0.0000 O   0  0  0  0  0  0  0  0  0  0  0  0
    6.5045   -7.5444    0.0000 O   0  0  0  0  0  0  0  0  0  0  0  0
   11.0312   -8.9310    0.0000 S   0  0  0  0  0  0  0  0  0  0  0  0
   12.3158   -8.9310    0.0000 O   0  0  0  0  0  0  0  0  0  0  0  0
    9.7466   -8.9310    0.0000 O   0  0  0  0  0  0  0  0  0  0  0  0
   11.0312  -10.2156    0.0000 O   0  0  0  0  0  0  0  0  0  0  0  0
   11.0312   -7.6464    0.0000 O   0  0  0  0  0  0  0  0  0  0  0  0
   15.1092   -8.7882    0.0000 S   0  0  0  0  0  0  0  0  0  0  0  0
   16.3938   -8.7882    0.0000 O   0  0  0  0  0  0  0  0  0  0  0  0
   13.8246   -8.7882    0.0000 O   0  0  0  0  0  0  0  0  0  0  0  0
   15.1092  -10.0728    0.0000 O   0  0  0  0  0  0  0  0  0  0  0  0
   15.1092   -7.5036    0.0000 O   0  0  0  0  0  0  0  0  0  0  0  0
   19.1057   -8.5843    0.0000 S   0  0  0  0  0  0  0  0  0  0  0  0
   20.3903   -8.5843    0.0000 O   0  0  0  0  0  0  0  0  0  0  0  0
   17.8008   -8.5843    0.0000 O   0  0  0  0  0  0  0  0  0  0  0  0
   19.1057   -9.8893    0.0000 O   0  0  0  0  0  0  0  0  0  0  0  0
   19.1057   -7.2997    0.0000 O   0  0  0  0  0  0  0  0  0  0  0  0
  1  2  1  0  0  0  0
 11  1  1  6  0  0  0
  2  3  1  0  0  0  0
  2  6  1  0  0  0  0
  3  4  1  0  0  0  0
  4 10  1  0  0  0  0
  4  5  2  0  0  0  0
  5  7  1  0  0  0  0
  6  7  1  0  0  0  0
  6  8  1  0  0  0  0
  9 10  1  0  0  0  0
 11 12  1  0  0  0  0
 11 13  1  0  0  0  0
 12 14  1  0  0  0  0
 12 17  1  1  0  0  0
 13 15  1  0  0  0  0
 13 19  1  1  0  0  0
 14 16  1  0  0  0  0
 14 18  1  6  0  0  0
 15 16  1  0  0  0  0
 16 20  1  1  0  0  0
 23 18  1  1  0  0  0
 20 21  1  0  0  0  0
 21 22  1  0  0  0  0
 23 24  1  0  0  0  0
 23 25  1  0  0  0  0
 24 26  1  0  0  0  0
 24 29  1  1  0  0  0
 25 27  1  0  0  0  0
 26 28  1  0  0  0  0
 26 32  1  6  0  0  0
 27 28  1  0  0  0  0
 28 30  1  6  0  0  0
 28 31  1  0  0  0  0
 32 33  1  0  0  0  0
 34 35  1  0  0  0  0
 44 34  1  6  0  0  0
 35 36  1  0  0  0  0
 35 39  1  0  0  0  0
 36 37  1  0  0  0  0
 37 43  1  0  0  0  0
 37 38  2  0  0  0  0
 38 40  1  0  0  0  0
 39 40  1  0  0  0  0
 39 41  1  0  0  0  0
 42 43  1  0  0  0  0
 44 45  1  0  0  0  0
 44 46  1  0  0  0  0
 45 47  1  0  0  0  0
 45 50  1  1  0  0  0
 46 48  1  0  0  0  0
 46 52  1  1  0  0  0
 47 49  1  0  0  0  0
 47 51  1  6  0  0  0
 48 49  1  0  0  0  0
 49 53  1  1  0  0  0
 56 51  1  1  0  0  0
 53 54  1  0  0  0  0
 54 55  1  0  0  0  0
 56 57  1  0  0  0  0
 56 58  1  0  0  0  0
 57 59  1  0  0  0  0
 57 62  1  1  0  0  0
 58 60  1  0  0  0  0
 59 61  1  0  0  0  0
 59 65  1  6  0  0  0
 60 61  1  0  0  0  0
 61 63  1  6  0  0  0
 61 64  1  0  0  0  0
 65 66  1  0  0  0  0
 67 68  2  0  0  0  0
 67 69  2  0  0  0  0
 67 70  1  0  0  0  0
 67 71  1  0  0  0  0
 72 73  2  0  0  0  0
 72 74  2  0  0  0  0
 72 75  1  0  0  0  0
 72 76  1  0  0  0  0
 77 78  2  0  0  0  0
 77 79  2  0  0  0  0
 77 80  1  0  0  0  0
 77 81  1  0  0  0  0
 82 83  2  0  0  0  0
 82 84  2  0  0  0  0
 82 85  1  0  0  0  0
 82 86  1  0  0  0  0
 87 88  2  0  0  0  0
 87 89  2  0  0  0  0
 87 90  1  0  0  0  0
 87 91  1  0  0  0  0
M  END
> <ID>
10975

> <Formula>
C42H92N10O34S5

> <FW>
1441.5515 (475.5795+475.5795+98.0785+98.0785+98.0785+98.0785+98.0785)

> <DSSTox_CID>
25484

> <DSSTox_RID>
80907

> <DSSTox_GSID>
45484

> <DSSTox_FileID_Sort>
5588

> <TS_ChemName>
Netilmicin sulfate

> <TS_ChemName_Synonyms>


> <TS_CASRN>
56391-57-2

> <CASRN_ChemName_Relationship>
primary

> <TS_Description>
single chemical compound

> <ChemNote>
stereochem; parent [56391-56-1]

> <STRUCTURE_Shown>
tested chemical

> <STRUCTURE_Formula>
C42H92N10O34S5

> <STRUCTURE_MW>
1441.5515

> <STRUCTURE_ChemType>
defined organic

> <STRUCTURE_DefinedOrganicForm>
complex

> <STRUCTURE_IUPAC>
(1S,2S,3R,4S,6R)-4-amino-3-{[3-amino-6-(aminomethyl)-3,4-dihydro-2H-pyran-2-yl]oxy}-6-(ethylamino)-2-hydroxycyclohexyl 3-deoxy-4-C-methyl-3-(methylamino)-beta-L-arabinopyranoside sulfate (2:5)

> <STRUCTURE_SMILES>
O=S(=O)(O)O.O=S(=O)(O)O.O=S(=O)(O)O.O=S(=O)(O)O.O=S(=O)(O)O.NC3CC=C(CN)OC3O[C@@H]2[C@@H](N)C[C@@H](NCC)[C@H](O[C@H]1OC[C@](C)(O)[C@H](NC)[C@H]1O)[C@H]2O.NC3CC=C(CN)OC3O[C@H]2[C@H](O)[C@@H](O[C@H]1OC[C@](C)(O)[C@H](NC)[C@H]1O)[C@H](NCC)C[C@@H]2N

> <STRUCTURE_SMILES_Desalt>
NC3CC=C(CN)OC3O[C@H]2[C@H](O)[C@@H](O[C@H]1OC[C@](C)(O)[C@H](NC)[C@H]1O)[C@H](NCC)C[C@@H]2N

> <Substance_modify_yyyymmdd>
20100107

$$$$
