564-20-5
ChemmineR-0915142007XD

 20 22  0  0  1  0  0  0  0  0  1 V2000
    2.3030   -1.9192    0.0000 C   0  0  0  0  0  0  0  0  0  0  0  0
    2.3030   -3.2498    0.0000 C   0  0  0  0  0  0  0  0  0  0  0  0
    3.4545   -2.5909    0.0000 C   0  0  0  0  0  0  0  0  0  0  0  0
    2.3030   -4.5740    0.0000 C   0  0  0  0  0  0  0  0  0  0  0  0
    1.1515   -2.5909    0.0000 C   0  0  0  0  0  0  0  0  0  0  0  0
    4.5868   -3.2498    0.0000 C   0  0  0  0  0  0  0  0  0  0  0  0
    3.7296   -1.2986    0.0000 C   0  0  0  0  0  0  0  0  0  0  0  0
    1.1515   -5.2457    0.0000 C   0  0  0  0  0  0  0  0  0  0  0  0
    3.4545   -5.2457    0.0000 C   0  0  0  0  0  0  0  0  0  0  0  0
    0.0000   -3.2498    0.0000 C   0  0  0  0  0  0  0  0  0  0  0  0
    5.8406   -3.7104    0.0000 C   0  0  0  0  0  0  0  0  0  0  0  0
    4.5868   -4.5740    0.0000 C   0  0  0  0  0  0  0  0  0  0  0  0
    5.5784   -2.3670    0.0000 O   0  0  0  0  0  0  0  0  0  0  0  0
    5.0410   -1.1515    0.0000 C   0  0  0  0  0  0  0  0  0  0  0  0
    0.4798   -6.3972    0.0000 C   0  0  0  0  0  0  0  0  0  0  0  0
    1.8104   -6.3972    0.0000 C   0  0  0  0  0  0  0  0  0  0  0  0
    0.0000   -4.5740    0.0000 C   0  0  0  0  0  0  0  0  0  0  0  0
    5.7127    0.0000    0.0000 O   0  0  0  0  0  0  0  0  0  0  0  0
    3.5824   -3.9791    0.0000 H   0  0  0  0  0  0  0  0  0  0  0  0
    2.3030   -5.9046    0.0000 H   0  0  0  0  0  0  0  0  0  0  0  0
  2  1  1  1  0  0  0
  2  3  1  0  0  0  0
  2  4  1  0  0  0  0
  2  5  1  0  0  0  0
  3  6  1  0  0  0  0
  3  7  1  0  0  0  0
  3 19  1  6  0  0  0
  4  8  1  0  0  0  0
  4  9  1  0  0  0  0
  4 20  1  6  0  0  0
  5 10  1  0  0  0  0
  6 11  1  1  0  0  0
  6 12  1  0  0  0  0
  6 13  1  0  0  0  0
  7 14  1  0  0  0  0
  8 15  1  0  0  0  0
  8 16  1  0  0  0  0
  8 17  1  0  0  0  0
  9 12  1  0  0  0  0
 10 17  1  0  0  0  0
 13 14  1  0  0  0  0
 14 18  2  0  0  0  0
M  END
> <ID>
12807

> <Formula>
C16H26O2

> <FW>
250.3764

> <DSSTox_CID>
27686

> <DSSTox_RID>
82502

> <DSSTox_GSID>
47686

> <DSSTox_FileID_Sort>
7183

> <TS_ChemName>
(3aR)-(+)-Sclareolide

> <TS_ChemName_Synonyms>


> <TS_CASRN>
564-20-5

> <CASRN_ChemName_Relationship>
primary

> <TS_Description>
single chemical compound

> <ChemNote>
stereochem

> <STRUCTURE_Shown>
tested chemical

> <STRUCTURE_Formula>
C16H26O2

> <STRUCTURE_MW>
250.3764

> <STRUCTURE_ChemType>
defined organic

> <STRUCTURE_DefinedOrganicForm>
parent

> <STRUCTURE_IUPAC>
(3aR,5aS,9aS,9bR)-3a,6,6,9a-tetramethyldecahydronaphtho[2,1-b]furan-2(1H)-one

> <STRUCTURE_SMILES>
O=C1C[C@@H]2[C@@]3(C)CCCC(C)(C)[C@@H]3CC[C@@]2(C)O1

> <STRUCTURE_SMILES_Desalt>
O=C1C[C@@H]2[C@@]3(C)CCCC(C)(C)[C@@H]3CC[C@@]2(C)O1

> <Substance_modify_yyyymmdd>
20101215

$$$$
