56425-91-3
ChemmineR-0915142007XD

 22 23  0  0  0  0  0  0  0  0  1 V2000
    7.1431   -1.3463    0.0000 C   0  0  0  0  0  0  0  0  0  0  0  0
    1.1571   -2.4812    0.0000 C   0  0  0  0  0  0  0  0  0  0  0  0
    8.4672   -1.3463    0.0000 C   0  0  0  0  0  0  0  0  0  0  0  0
    5.8080   -1.3463    0.0000 C   0  0  0  0  0  0  0  0  0  0  0  0
    1.8247   -1.3463    0.0000 O   0  0  0  0  0  0  0  0  0  0  0  0
   10.4699   -0.1891    0.0000 N   0  0  0  0  0  0  0  0  0  0  0  0
   10.4699   -2.4812    0.0000 N   0  0  0  0  0  0  0  0  0  0  0  0
   11.1264   -1.3463    0.0000 C   0  0  0  0  0  0  0  0  0  0  0  0
    5.1626   -2.4812    0.0000 C   0  0  0  0  0  0  0  0  0  0  0  0
    5.1626   -0.1891    0.0000 C   0  0  0  0  0  0  0  0  0  0  0  0
    0.4896   -3.6494    0.0000 F   0  0  0  0  0  0  0  0  0  0  0  0
    2.3143   -3.1599    0.0000 F   0  0  0  0  0  0  0  0  0  0  0  0
    0.0000   -1.8247    0.0000 F   0  0  0  0  0  0  0  0  0  0  0  0
    7.1431   -2.6703    0.0000 C   0  0  0  0  0  0  0  0  0  0  0  0
    3.1376   -1.3463    0.0000 C   0  0  0  0  0  0  0  0  0  0  0  0
    7.1431    0.0000    0.0000 O   0  0  0  0  0  0  0  0  0  0  0  0
    9.1347   -2.4812    0.0000 C   0  0  0  0  0  0  0  0  0  0  0  0
    9.1347   -0.1891    0.0000 C   0  0  0  0  0  0  0  0  0  0  0  0
    3.8163   -0.1891    0.0000 C   0  0  0  0  0  0  0  0  0  0  0  0
    3.8163   -2.4812    0.0000 C   0  0  0  0  0  0  0  0  0  0  0  0
    8.2891   -3.3379    0.0000 C   0  0  0  0  0  0  0  0  0  0  0  0
    5.9860   -3.3379    0.0000 C   0  0  0  0  0  0  0  0  0  0  0  0
  1  3  1  0  0  0  0
  1  4  1  0  0  0  0
  1 14  1  0  0  0  0
  1 16  1  0  0  0  0
  2  5  1  0  0  0  0
  2 11  1  0  0  0  0
  2 12  1  0  0  0  0
  2 13  1  0  0  0  0
  3 17  2  0  0  0  0
  3 18  1  0  0  0  0
  4  9  1  0  0  0  0
  4 10  2  0  0  0  0
  5 15  1  0  0  0  0
  6 18  2  0  0  0  0
  6  8  1  0  0  0  0
  7 17  1  0  0  0  0
  7  8  2  0  0  0  0
  9 20  2  0  0  0  0
 10 19  1  0  0  0  0
 14 21  1  0  0  0  0
 14 22  1  0  0  0  0
 15 19  2  0  0  0  0
 15 20  1  0  0  0  0
M  END
> <ID>
3507

> <Formula>
C15H15F3N2O2

> <FW>
312.287

> <DSSTox_CID>
4108

> <DSSTox_RID>
77293

> <DSSTox_GSID>
24108

> <DSSTox_FileID_Sort>
1976

> <TS_ChemName>
Flurprimidol

> <TS_ChemName_Synonyms>


> <TS_CASRN>
56425-91-3

> <CASRN_ChemName_Relationship>
primary

> <TS_Description>
single chemical compound

> <ChemNote>
mixture of (R,S) isomers; structure shown without stereochem

> <STRUCTURE_Shown>
tested chemical

> <STRUCTURE_Formula>
C15H15F3N2O2

> <STRUCTURE_MW>
312.287

> <STRUCTURE_ChemType>
defined organic

> <STRUCTURE_DefinedOrganicForm>
parent

> <STRUCTURE_IUPAC>
2-methyl-1-(pyrimidin-5-yl)-1-[4-(trifluoromethoxy)phenyl]propan-1-ol

> <STRUCTURE_SMILES>
OC(C(C)C)(c1cncnc1)c2ccc(OC(F)(F)F)cc2

> <STRUCTURE_SMILES_Desalt>
OC(C(C)C)(c1cncnc1)c2ccc(OC(F)(F)F)cc2

> <Substance_modify_yyyymmdd>
20080429

$$$$
