56511-19-4
ChemmineR-0915142007XD

 10  9  0  0  0  0  0  0  0  0  2 V2000
    3.7352   -4.3479    0.0000 C   0  0  0  0  0  0  0  0  0  0  0  0
    0.4175   -3.1906    0.0000 C   0  0  0  0  0  0  0  0  0  0  0  0
    3.0771   -3.1906    0.0000 C   0  0  0  0  0  0  0  0  0  0  0  0
    0.4175    0.0000    0.0000 C   0  0  0  0  0  0  0  0  0  0  0  0
    1.7473    0.0000    0.0000 C   0  0  0  0  0  0  0  0  0  0  0  0
    1.7473   -3.1906    0.0000 C   0  0  0  0  0  0  0  0  0  0  0  0
    0.0000   -1.2662    0.0000 C   0  0  0  0  0  0  0  0  0  0  0  0
    2.1649   -1.2662    0.0000 C   0  0  0  0  0  0  0  0  0  0  0  0
    1.0756   -2.0514    0.0000 N   0  3  0  0  0  0  0  0  0  0  0  0
    1.1074   -4.5385    0.0000 I   0  5  0  0  0  0  0  0  0  0  0  0
  1  3  1  0  0  0  0
  2  9  1  0  0  0  0
  3  6  1  0  0  0  0
  4  5  1  0  0  0  0
  4  7  1  0  0  0  0
  5  8  1  0  0  0  0
  6  9  1  0  0  0  0
  7  9  1  0  0  0  0
  8  9  1  0  0  0  0
M  END
> <ID>
14184

> <Formula>
C8H18IN

> <FW>
255.1397 (128.2347+126.9050)

> <DSSTox_CID>
29276

> <DSSTox_RID>
83395

> <DSSTox_GSID>
49320

> <DSSTox_FileID_Sort>
8070

> <TS_ChemName>
1-Methyl-1-propylpyrrolidinium iodide

> <TS_ChemName_Synonyms>


> <TS_CASRN>
56511-19-4

> <CASRN_ChemName_Relationship>
primary

> <TS_Description>
single chemical compound

> <ChemNote>


> <STRUCTURE_Shown>
tested chemical

> <STRUCTURE_Formula>
C8H18IN

> <STRUCTURE_MW>
255.1397

> <STRUCTURE_ChemType>
defined organic

> <STRUCTURE_DefinedOrganicForm>
salt

> <STRUCTURE_IUPAC>
1-methyl-1-propylpyrrolidinium iodide

> <STRUCTURE_SMILES>
[I-].C[N+]1(CCC)CCCC1

> <STRUCTURE_SMILES_Desalt>
C[N+]1(CCC)CCCC1

> <Substance_modify_yyyymmdd>
20111204

$$$$
