56511-17-2
ChemmineR-0915142007XD

 11 10  0  0  0  0  0  0  0  0  2 V2000
    1.1824   -3.9754    0.0000 N   0  3  0  0  0  0  0  0  0  0  0  0
    2.2682   -4.7536    0.0000 C   0  0  0  0  0  0  0  0  0  0  0  0
    0.0965   -4.7536    0.0000 C   0  0  0  0  0  0  0  0  0  0  0  0
    1.8339   -6.0325    0.0000 C   0  0  0  0  0  0  0  0  0  0  0  0
    0.5128   -6.0325    0.0000 C   0  0  0  0  0  0  0  0  0  0  0  0
    1.1824   -2.6483    0.0000 C   0  0  0  0  0  0  0  0  0  0  0  0
    2.3165   -1.9967    0.0000 C   0  0  0  0  0  0  0  0  0  0  0  0
    2.3165   -0.6696    0.0000 C   0  0  0  0  0  0  0  0  0  0  0  0
    3.4626    0.0000    0.0000 C   0  0  0  0  0  0  0  0  0  0  0  0
    0.0000   -3.3842    0.0000 C   0  0  0  0  0  0  0  0  0  0  0  0
    3.6255   -3.3360    0.0000 I   0  5  0  0  0  0  0  0  0  0  0  0
  1  2  1  0  0  0  0
  1  3  1  0  0  0  0
  1  6  1  0  0  0  0
  1 10  1  0  0  0  0
  2  4  1  0  0  0  0
  3  5  1  0  0  0  0
  4  5  1  0  0  0  0
  6  7  1  0  0  0  0
  7  8  1  0  0  0  0
  8  9  1  0  0  0  0
M  END
> <ID>
13013

> <Formula>
C9H20IN

> <FW>
269.1663 (142.2613+126.9050)

> <DSSTox_CID>
27914

> <DSSTox_RID>
82667

> <DSSTox_GSID>
47938

> <DSSTox_FileID_Sort>
7344

> <TS_ChemName>
1-Butyl-1-methylpyrrolidinium iodide

> <TS_ChemName_Synonyms>


> <TS_CASRN>
56511-17-2

> <CASRN_ChemName_Relationship>
primary

> <TS_Description>
single chemical compound

> <ChemNote>
ammonium; parent [223437-10-3]

> <STRUCTURE_Shown>
tested chemical

> <STRUCTURE_Formula>
C9H20IN

> <STRUCTURE_MW>
269.1663

> <STRUCTURE_ChemType>
defined organic

> <STRUCTURE_DefinedOrganicForm>
salt

> <STRUCTURE_IUPAC>
1-butyl-1-methylpyrrolidinium iodide

> <STRUCTURE_SMILES>
[I-].CCCC[N+]1(C)CCCC1

> <STRUCTURE_SMILES_Desalt>
CCCC[N+]1(C)CCCC1

> <Substance_modify_yyyymmdd>
20110418

$$$$
