566-48-3
ChemmineR-0915142007XD

 25 28  0  0  1  0  0  0  0  0  1 V2000
    4.7118   -3.3399    0.0000 C   0  0  0  0  0  0  0  0  0  0  0  0
    5.8850   -4.0116    0.0000 C   0  0  0  0  0  0  0  0  0  0  0  0
    3.5291   -4.0116    0.0000 C   0  0  0  0  0  0  0  0  0  0  0  0
    4.7118   -1.9774    0.0000 C   0  0  0  0  0  0  0  0  0  0  0  0
    7.0961   -3.3399    0.0000 C   0  0  0  0  0  0  0  0  0  0  0  0
    5.8850   -5.3741    0.0000 C   0  0  0  0  0  0  0  0  0  0  0  0
    3.5291   -5.3741    0.0000 C   0  0  0  0  0  0  0  0  0  0  0  0
    2.3464   -3.3399    0.0000 C   0  0  0  0  0  0  0  0  0  0  0  0
    3.5197   -2.8763    0.0000 C   0  0  0  0  0  0  0  0  0  0  0  0
    5.8850   -1.3151    0.0000 C   0  0  0  0  0  0  0  0  0  0  0  0
    7.0961   -1.9774    0.0000 C   0  0  0  0  0  0  0  0  0  0  0  0
    9.4614   -3.3399    0.0000 C   0  0  0  0  0  0  0  0  0  0  0  0
    4.7118   -6.0459    0.0000 C   0  0  0  0  0  0  0  0  0  0  0  0
    2.3464   -6.0459    0.0000 C   0  0  0  0  0  0  0  0  0  0  0  0
    1.1543   -4.0116    0.0000 C   0  0  0  0  0  0  0  0  0  0  0  0
    8.2598   -1.3151    0.0000 C   0  0  0  0  0  0  0  0  0  0  0  0
    7.0961   -1.1070    0.0000 C   0  0  0  0  0  0  0  0  0  0  0  0
    9.4614   -1.9774    0.0000 C   0  0  0  0  0  0  0  0  0  0  0  0
    1.1543   -5.3741    0.0000 C   0  0  0  0  0  0  0  0  0  0  0  0
    2.3464   -7.3610    0.0000 O   0  0  0  0  0  0  0  0  0  0  0  0
    8.2598    0.0000    0.0000 O   0  0  0  0  0  0  0  0  0  0  0  0
    0.0000   -5.9986    0.0000 O   0  0  0  0  0  0  0  0  0  0  0  0
    4.7496   -4.3523    0.0000 H   0  0  0  0  0  0  0  0  0  0  0  0
    5.8850   -2.9709    0.0000 H   0  0  0  0  0  0  0  0  0  0  0  0
    7.2285   -4.3239    0.0000 H   0  0  0  0  0  0  0  0  0  0  0  0
  1  2  1  0  0  0  0
  1  3  1  0  0  0  0
  1  4  1  0  0  0  0
  1 23  1  6  0  0  0
  2  5  1  0  0  0  0
  2  6  1  0  0  0  0
  2 24  1  1  0  0  0
  3  7  1  0  0  0  0
  3  8  1  0  0  0  0
  3  9  1  1  0  0  0
  4 10  1  0  0  0  0
  5 11  1  0  0  0  0
  5 12  1  0  0  0  0
  5 25  1  6  0  0  0
  6 13  1  0  0  0  0
  7 14  2  0  0  0  0
  7 13  1  0  0  0  0
  8 15  1  0  0  0  0
 10 11  1  0  0  0  0
 11 16  1  0  0  0  0
 11 17  1  1  0  0  0
 12 18  1  0  0  0  0
 14 19  1  0  0  0  0
 14 20  1  0  0  0  0
 15 19  1  0  0  0  0
 16 21  2  0  0  0  0
 16 18  1  0  0  0  0
 19 22  2  0  0  0  0
M  END
> <ID>
6664

> <Formula>
C19H26O3

> <FW>
302.4079

> <DSSTox_CID>
14113

> <DSSTox_RID>
79116

> <DSSTox_GSID>
34113

> <DSSTox_FileID_Sort>
3798

> <TS_ChemName>
4-Hydroxyandrostenedione

> <TS_ChemName_Synonyms>
4-Hydroxyandrostenedione (Formestrone)

> <TS_CASRN>
566-48-3

> <CASRN_ChemName_Relationship>
primary

> <TS_Description>
single chemical compound

> <ChemNote>
stereochem; tautomers

> <STRUCTURE_Shown>
tested chemical

> <STRUCTURE_Formula>
C19H26O3

> <STRUCTURE_MW>
302.4079

> <STRUCTURE_ChemType>
defined organic

> <STRUCTURE_DefinedOrganicForm>
parent

> <STRUCTURE_IUPAC>
4-hydroxyandrost-4-ene-3,17-dione

> <STRUCTURE_SMILES>
O=C2CC[C@H]3[C@@H]4CCC1=C(O)C(=O)CC[C@]1(C)[C@H]4CC[C@]23C

> <STRUCTURE_SMILES_Desalt>
O=C2CC[C@H]3[C@@H]4CCC1=C(O)C(=O)CC[C@]1(C)[C@H]4CC[C@]23C

> <Substance_modify_yyyymmdd>
20080429

$$$$
