5663-71-8
ChemmineR-0915142007XD

 13 13  0  0  0  0  0  0  0  0  1 V2000
    6.9061   -2.0028    0.0000 C   0  0  0  0  0  0  0  0  0  0  0  0
    5.7528   -1.3260    0.0000 C   0  0  0  0  0  0  0  0  0  0  0  0
    5.7528    0.0000    0.0000 O   0  0  0  0  0  0  0  0  0  0  0  0
    4.6064   -2.0028    0.0000 N   0  0  0  0  0  0  0  0  0  0  0  0
    3.4531   -1.3260    0.0000 C   0  0  0  0  0  0  0  0  0  0  0  0
    3.4531    0.0000    0.0000 O   0  0  0  0  0  0  0  0  0  0  0  0
    2.2997   -2.0028    0.0000 C   0  0  0  0  0  0  0  0  0  0  0  0
    1.1533   -1.3467    0.0000 C   0  0  0  0  0  0  0  0  0  0  0  0
    0.0000   -2.0028    0.0000 C   0  0  0  0  0  0  0  0  0  0  0  0
    0.0000   -3.3288    0.0000 C   0  0  0  0  0  0  0  0  0  0  0  0
    1.1533   -3.9987    0.0000 C   0  0  0  0  0  0  0  0  0  0  0  0
    2.2997   -3.3288    0.0000 C   0  0  0  0  0  0  0  0  0  0  0  0
    3.4531   -3.9987    0.0000 O   0  0  0  0  0  0  0  0  0  0  0  0
  1  2  1  0  0  0  0
  2  3  2  0  0  0  0
  2  4  1  0  0  0  0
  4  5  1  0  0  0  0
  5  6  2  0  0  0  0
  5  7  1  0  0  0  0
  7  8  2  0  0  0  0
  7 12  1  0  0  0  0
  8  9  1  0  0  0  0
  9 10  2  0  0  0  0
 10 11  1  0  0  0  0
 11 12  2  0  0  0  0
 12 13  1  0  0  0  0
M  END
> <ID>
11413

> <Formula>
C9H9NO3

> <FW>
179.1727

> <DSSTox_CID>
26108

> <DSSTox_RID>
81345

> <DSSTox_GSID>
46108

> <DSSTox_FileID_Sort>
6026

> <TS_ChemName>
Acetylsalicylamide

> <TS_ChemName_Synonyms>


> <TS_CASRN>
5663-71-8

> <CASRN_ChemName_Relationship>
primary

> <TS_Description>
single chemical compound

> <ChemNote>


> <STRUCTURE_Shown>
tested chemical

> <STRUCTURE_Formula>
C9H9NO3

> <STRUCTURE_MW>
179.1727

> <STRUCTURE_ChemType>
defined organic

> <STRUCTURE_DefinedOrganicForm>
parent

> <STRUCTURE_IUPAC>
N-acetyl-2-hydroxybenzamide

> <STRUCTURE_SMILES>
O=C(NC(C)=O)c1ccccc1O

> <STRUCTURE_SMILES_Desalt>
O=C(NC(C)=O)c1ccccc1O

> <Substance_modify_yyyymmdd>
20110818

$$$$
