56718-70-8
ChemmineR-0915142007XD

 15 16  0  0  0  0  0  0  0  0  1 V2000
    9.1347   -8.2395    0.0000 C   0  0  0  0  0  0  0  0  0  0  0  0
    7.8011   -8.2395    0.0000 O   0  0  0  0  0  0  0  0  0  0  0  0
    7.1434   -7.0886    0.0000 C   0  0  0  0  0  0  0  0  0  0  0  0
    5.8097   -7.0886    0.0000 C   0  0  0  0  0  0  0  0  0  0  0  0
    5.1429   -5.9376    0.0000 C   0  0  0  0  0  0  0  0  0  0  0  0
    5.8097   -4.7866    0.0000 C   0  0  0  0  0  0  0  0  0  0  0  0
    5.1429   -3.6356    0.0000 C   0  0  0  0  0  0  0  0  0  0  0  0
    3.8092   -3.6356    0.0000 C   0  0  0  0  0  0  0  0  0  0  0  0
    3.1515   -2.4755    0.0000 O   0  0  0  0  0  0  0  0  0  0  0  0
    1.8178   -2.4755    0.0000 C   0  0  0  0  0  0  0  0  0  0  0  0
    1.1510   -1.3245    0.0000 C   0  0  0  0  0  0  0  0  0  0  0  0
    1.1510    0.0000    0.0000 C   0  0  0  0  0  0  0  0  0  0  0  0
    0.0000   -0.6668    0.0000 O   0  0  0  0  0  0  0  0  0  0  0  0
    3.1515   -4.7866    0.0000 C   0  0  0  0  0  0  0  0  0  0  0  0
    3.8092   -5.9376    0.0000 C   0  0  0  0  0  0  0  0  0  0  0  0
  1  2  1  0  0  0  0
  2  3  1  0  0  0  0
  3  4  1  0  0  0  0
  4  5  1  0  0  0  0
  5  6  2  0  0  0  0
  5 15  1  0  0  0  0
  6  7  1  0  0  0  0
  7  8  2  0  0  0  0
  8  9  1  0  0  0  0
  8 14  1  0  0  0  0
  9 10  1  0  0  0  0
 10 11  1  0  0  0  0
 11 12  1  0  0  0  0
 11 13  1  0  0  0  0
 12 13  1  0  0  0  0
 14 15  2  0  0  0  0
M  END
> <ID>
16178

> <Formula>
C12H16O3

> <FW>
208.2536

> <DSSTox_CID>
31568

> <DSSTox_RID>
97453

> <DSSTox_GSID>
57779

> <DSSTox_FileID_Sort>
8520

> <TS_ChemName>
2,3-Epoxypropyl 4-(2-methoxyethyl)phenyl ether

> <TS_ChemName_Synonyms>


> <TS_CASRN>
56718-70-8

> <CASRN_ChemName_Relationship>
primary

> <TS_Description>
single chemical compound

> <ChemNote>


> <STRUCTURE_Shown>
tested chemical

> <STRUCTURE_Formula>
C12H16O3

> <STRUCTURE_MW>
208.2536

> <STRUCTURE_ChemType>
defined organic

> <STRUCTURE_DefinedOrganicForm>
parent

> <STRUCTURE_IUPAC>
2-{[4-(2-methoxyethyl)phenoxy]methyl}oxirane

> <STRUCTURE_SMILES>
COCCc2ccc(OCC1CO1)cc2

> <STRUCTURE_SMILES_Desalt>
COCCc2ccc(OCC1CO1)cc2

> <Substance_modify_yyyymmdd>
20131018

$$$$
