56715-13-0
ChemmineR-0915142007XD

 19 19  0  0  1  0  0  0  0  0  1 V2000
   10.3445   -0.6767    0.0000 C   0  0  0  0  0  0  0  0  0  0  0  0
   10.3445   -1.9888    0.0000 C   0  0  0  0  0  0  0  0  0  0  0  0
    9.1981    0.0000    0.0000 C   0  0  0  0  0  0  0  0  0  0  0  0
    9.1981   -2.6655    0.0000 C   0  0  0  0  0  0  0  0  0  0  0  0
    8.0380   -0.6767    0.0000 C   0  0  0  0  0  0  0  0  0  0  0  0
    8.0380   -1.9888    0.0000 C   0  0  0  0  0  0  0  0  0  0  0  0
   11.5046    0.0000    0.0000 C   0  0  0  0  0  0  0  0  0  0  0  0
   12.6509   -0.6629    0.0000 C   0  0  0  0  0  0  0  0  0  0  0  0
   13.8110    0.0000    0.0000 N   0  0  0  0  0  0  0  0  0  0  0  0
   12.6509   -1.9888    0.0000 O   0  0  0  0  0  0  0  0  0  0  0  0
    6.8917   -2.6655    0.0000 O   0  0  0  0  0  0  0  0  0  0  0  0
    5.7592   -1.9888    0.0000 C   0  0  0  0  0  0  0  0  0  0  0  0
    4.5991   -2.6655    0.0000 C   0  0  0  0  0  0  0  0  0  0  0  0
    3.4666   -1.9888    0.0000 C   0  0  0  0  0  0  0  0  0  0  0  0
    2.3064   -2.6655    0.0000 N   0  0  0  0  0  0  0  0  0  0  0  0
    1.1601   -1.9888    0.0000 C   0  0  0  0  0  0  0  0  0  0  0  0
    0.0000   -2.6655    0.0000 C   0  0  0  0  0  0  0  0  0  0  0  0
    1.1601   -0.6629    0.0000 C   0  0  0  0  0  0  0  0  0  0  0  0
    4.5991   -3.9776    0.0000 O   0  0  0  0  0  0  0  0  0  0  0  0
  1  2  1  0  0  0  0
  1  3  2  0  0  0  0
  1  7  1  0  0  0  0
  2  4  2  0  0  0  0
  3  5  1  0  0  0  0
  4  6  1  0  0  0  0
  5  6  2  0  0  0  0
  6 11  1  0  0  0  0
  7  8  1  0  0  0  0
  8  9  1  0  0  0  0
  8 10  2  0  0  0  0
 11 12  1  0  0  0  0
 12 13  1  0  0  0  0
 13 14  1  0  0  0  0
 13 19  1  6  0  0  0
 14 15  1  0  0  0  0
 15 16  1  0  0  0  0
 16 17  1  0  0  0  0
 16 18  1  0  0  0  0
M  END
> <ID>
11165

> <Formula>
C14H22N2O3

> <FW>
266.3361

> <DSSTox_CID>
25753

> <DSSTox_RID>
81097

> <DSSTox_GSID>
45753

> <DSSTox_FileID_Sort>
5778

> <TS_ChemName>
R-(+)-Atenolol

> <TS_ChemName_Synonyms>


> <TS_CASRN>
56715-13-0

> <CASRN_ChemName_Relationship>
primary

> <TS_Description>
single chemical compound

> <ChemNote>
stereochem

> <STRUCTURE_Shown>
tested chemical

> <STRUCTURE_Formula>
C14H22N2O3

> <STRUCTURE_MW>
266.3361

> <STRUCTURE_ChemType>
defined organic

> <STRUCTURE_DefinedOrganicForm>
parent

> <STRUCTURE_IUPAC>
2-{4-[(2R)-2-hydroxy-3-(propan-2-ylamino)propoxy]phenyl}acetamide

> <STRUCTURE_SMILES>
CC(C)NC[C@@H](O)COc1ccc(cc1)CC(N)=O

> <STRUCTURE_SMILES_Desalt>
CC(C)NC[C@@H](O)COc1ccc(cc1)CC(N)=O

> <Substance_modify_yyyymmdd>
20110826

$$$$
