56796-39-5
ChemmineR-0915142007XD

 32 33  0  0  1  0  0  0  0  0  2 V2000
    7.1120   -7.1767    0.0000 Na   0  3  0  0  0  0  0  0  0  0  0  0
    4.4693   -2.1504    0.0000 C    0  0  0  0  0  0  0  0  0  0  0  0
    5.9849   -3.6013    0.0000 N    0  0  0  0  0  0  0  0  0  0  0  0
    4.4693   -3.6013    0.0000 C    0  0  0  0  0  0  0  0  0  0  0  0
    5.9849   -2.1504    0.0000 C    0  0  0  0  0  0  0  0  0  0  0  0
   10.7521   -2.1893    0.0000 C    0  0  0  0  0  0  0  0  0  0  0  0
    7.1638   -4.2879    0.0000 C    0  0  0  0  0  0  0  0  0  0  0  0
   11.8403   -1.4509    0.0000 N    0  0  0  0  0  0  0  0  0  0  0  0
    9.7028   -1.4509    0.0000 N    0  0  0  0  0  0  0  0  0  0  0  0
   10.1174   -0.1684    0.0000 N    0  0  0  0  0  0  0  0  0  0  0  0
   11.4258   -0.1684    0.0000 N    0  0  0  0  0  0  0  0  0  0  0  0
    7.1638   -1.4509    0.0000 S    0  0  0  0  0  0  0  0  0  0  0  0
    8.3815   -3.5754    0.0000 C    0  0  0  0  0  0  0  0  0  0  0  0
    3.2904   -2.1504    0.0000 N    0  0  0  0  0  0  0  0  0  0  0  0
    7.1638   -5.6222    0.0000 C    0  0  0  0  0  0  0  0  0  0  0  0
   10.7521   -3.5365    0.0000 S    0  0  0  0  0  0  0  0  0  0  0  0
    0.0000   -6.7492    0.0000 N    0  0  0  0  0  0  0  0  0  0  0  0
    8.3815   -2.1504    0.0000 C    0  0  0  0  0  0  0  0  0  0  0  0
    2.1634   -1.3602    0.0000 C    0  0  0  0  0  0  0  0  0  0  0  0
    3.6143   -4.5859    0.0000 O    0  0  0  0  0  0  0  0  0  0  0  0
    9.5733   -4.1843    0.0000 C    0  0  0  0  0  0  0  0  0  0  0  0
    0.0000   -5.4020    0.0000 C    0  0  0  0  0  0  0  0  0  0  0  0
    4.4693   -1.0364    0.0000 O    0  0  0  0  0  0  0  0  0  0  0  0
    8.3167   -6.2958    0.0000 O    0  0  0  0  0  0  0  0  0  0  0  0
    2.1634    0.0000    0.0000 O    0  0  0  0  0  0  0  0  0  0  0  0
   12.9544   -1.9302    0.0000 C    0  0  0  0  0  0  0  0  0  0  0  0
    6.0497   -6.2958    0.0000 O    0  5  0  0  0  0  0  0  0  0  0  0
    1.1011   -3.3681    0.0000 S    0  0  0  0  0  0  0  0  0  0  0  0
    0.0000   -4.0547    0.0000 C    0  0  0  0  0  0  0  0  0  0  0  0
    1.1011   -2.0209    0.0000 C    0  0  0  0  0  0  0  0  0  0  0  0
    3.6531   -0.1684    0.0000 C    0  0  0  0  0  0  0  0  0  0  0  0
    5.9849   -1.1011    0.0000 H    0  0  0  0  0  0  0  0  0  0  0  0
  2  4  1  0  0  0  0
  2  5  1  0  0  0  0
  2 14  1  1  0  0  0
  2 23  1  6  0  0  0
  3  5  1  0  0  0  0
  3  7  1  0  0  0  0
  3  4  1  0  0  0  0
  4 20  2  0  0  0  0
  5 12  1  0  0  0  0
  5 32  1  6  0  0  0
  6 16  1  0  0  0  0
  6  8  1  0  0  0  0
  6  9  2  0  0  0  0
  7 15  1  0  0  0  0
  7 13  2  0  0  0  0
  8 11  1  0  0  0  0
  8 26  1  0  0  0  0
  9 10  1  0  0  0  0
 10 11  2  0  0  0  0
 12 18  1  0  0  0  0
 13 18  1  0  0  0  0
 13 21  1  0  0  0  0
 14 19  1  0  0  0  0
 15 24  2  0  0  0  0
 15 27  1  0  0  0  0
 16 21  1  0  0  0  0
 17 22  3  0  0  0  0
 19 25  2  0  0  0  0
 19 30  1  0  0  0  0
 22 29  1  0  0  0  0
 23 31  1  0  0  0  0
 28 30  1  0  0  0  0
 28 29  1  0  0  0  0
M  END
> <ID>
11053

> <Formula>
C15H16N7NaO5S3

> <FW>
493.5162 (22.9892+470.5270)

> <DSSTox_CID>
25590

> <DSSTox_RID>
80985

> <DSSTox_GSID>
45590

> <DSSTox_FileID_Sort>
5666

> <TS_ChemName>
Cefmetazole sodium

> <TS_ChemName_Synonyms>


> <TS_CASRN>
56796-39-5

> <CASRN_ChemName_Relationship>
primary

> <TS_Description>
single chemical compound

> <ChemNote>
stereochem; parent [56796-20-4]

> <STRUCTURE_Shown>
tested chemical

> <STRUCTURE_Formula>
C15H16N7NaO5S3

> <STRUCTURE_MW>
493.5162

> <STRUCTURE_ChemType>
defined organic

> <STRUCTURE_DefinedOrganicForm>
salt

> <STRUCTURE_IUPAC>
sodium (6R,7S)-7-({[(cyanomethyl)sulfanyl]acetyl}amino)-7-methoxy-3-{[(1-methyl-1H-tetrazol-5-yl)sulfanyl]methyl}-8-oxo-5-thia-1-azabicyclo[4.2.0]oct-2-ene-2-carboxylate

> <STRUCTURE_SMILES>
[Na+].N#CCSCC(=O)N[C@]3(OC)C(=O)N2C(=C(CSc1nnnn1C)CS[C@@H]23)C([O-])=O

> <STRUCTURE_SMILES_Desalt>
N#CCSCC(=O)N[C@]3(OC)C(=O)N2C(=C(CSc1nnnn1C)CS[C@@H]23)C(=O)O

> <Substance_modify_yyyymmdd>
20100107

$$$$
