56839-43-1
ChemmineR-0915142007XD

 20 20  0  0  0  0  0  0  0  0  1 V2000
    3.1822   -4.7328    0.0000 Cl   0  0  0  0  0  0  0  0  0  0  0  0
    5.7627   -1.3423    0.0000 C    0  0  0  0  0  0  0  0  0  0  0  0
    4.6055   -1.9903    0.0000 C    0  0  0  0  0  0  0  0  0  0  0  0
    2.3028   -2.0135    0.0000 N    0  0  0  0  0  0  0  0  0  0  0  0
    3.4483   -1.3423    0.0000 C    0  0  0  0  0  0  0  0  0  0  0  0
    6.9198   -2.0135    0.0000 C    0  0  0  0  0  0  0  0  0  0  0  0
    5.7627    0.0000    0.0000 O    0  0  0  0  0  0  0  0  0  0  0  0
    6.9198   -3.3326    0.0000 C    0  0  0  0  0  0  0  0  0  0  0  0
    8.0654   -1.3423    0.0000 C    0  0  0  0  0  0  0  0  0  0  0  0
    9.2342   -2.0135    0.0000 C    0  0  0  0  0  0  0  0  0  0  0  0
    8.0654   -3.9806    0.0000 C    0  0  0  0  0  0  0  0  0  0  0  0
    9.2342   -3.3211    0.0000 C    0  0  0  0  0  0  0  0  0  0  0  0
    4.6055   -3.3326    0.0000 C    0  0  0  0  0  0  0  0  0  0  0  0
    1.1572   -1.3423    0.0000 C    0  0  0  0  0  0  0  0  0  0  0  0
    2.3028   -3.3326    0.0000 C    0  0  0  0  0  0  0  0  0  0  0  0
   10.4260   -3.9575    0.0000 C    0  0  0  0  0  0  0  0  0  0  0  0
    0.0000   -2.0135    0.0000 C    0  0  0  0  0  0  0  0  0  0  0  0
    1.1572   -3.9806    0.0000 C    0  0  0  0  0  0  0  0  0  0  0  0
   11.5716   -3.2516    0.0000 C    0  0  0  0  0  0  0  0  0  0  0  0
    0.0000   -3.3211    0.0000 C    0  0  0  0  0  0  0  0  0  0  0  0
  2  3  1  0  0  0  0
  2  6  1  0  0  0  0
  2  7  2  0  0  0  0
  3  5  1  0  0  0  0
  3 13  1  0  0  0  0
  4  5  1  0  0  0  0
  4 14  1  0  0  0  0
  4 15  1  0  0  0  0
  6  8  1  0  0  0  0
  6  9  2  0  0  0  0
  8 11  2  0  0  0  0
  9 10  1  0  0  0  0
 10 12  2  0  0  0  0
 11 12  1  0  0  0  0
 12 16  1  0  0  0  0
 14 17  1  0  0  0  0
 15 18  1  0  0  0  0
 16 19  1  0  0  0  0
 17 20  1  0  0  0  0
 18 20  1  0  0  0  0
M  END
> <ID>
12921

> <Formula>
C17H26ClNO

> <FW>
295.8474 (36.4609+259.3865)

> <DSSTox_CID>
27822

> <DSSTox_RID>
82585

> <DSSTox_GSID>
47844

> <DSSTox_FileID_Sort>
7262

> <TS_ChemName>
Eperisone hydrochloride

> <TS_ChemName_Synonyms>


> <TS_CASRN>
56839-43-1

> <CASRN_ChemName_Relationship>
primary

> <TS_Description>
single chemical compound

> <ChemNote>
parent [64840-90-0]

> <STRUCTURE_Shown>
tested chemical

> <STRUCTURE_Formula>
C17H26ClNO

> <STRUCTURE_MW>
295.8474

> <STRUCTURE_ChemType>
defined organic

> <STRUCTURE_DefinedOrganicForm>
complex

> <STRUCTURE_IUPAC>
1-(4-ethylphenyl)-2-methyl-3-(piperidin-1-yl)propan-1-one hydrochloride (1:1)

> <STRUCTURE_SMILES>
Cl.CC(CN1CCCCC1)C(=O)c2ccc(CC)cc2

> <STRUCTURE_SMILES_Desalt>
CC(CN1CCCCC1)C(=O)c2ccc(CC)cc2

> <Substance_modify_yyyymmdd>
20110803

$$$$
