5684-90-2
ChemmineR-0915142007XD

 14 14  0  0  0  0  0  0  0  0  1 V2000
    3.3322   -3.1381    0.0000 O    0  0  0  0  0  0  0  0  0  0  0  0
    2.6528   -1.9799    0.0000 C    0  0  0  0  0  0  0  0  0  0  0  0
    3.3322   -0.8347    0.0000 O    0  0  0  0  0  0  0  0  0  0  0  0
    4.6651   -0.8347    0.0000 C    0  0  0  0  0  0  0  0  0  0  0  0
    5.3251   -1.9799    0.0000 C    0  0  0  0  0  0  0  0  0  0  0  0
    4.6651   -3.1381    0.0000 C    0  0  0  0  0  0  0  0  0  0  0  0
    1.3329   -1.9799    0.0000 C    0  0  0  0  0  0  0  0  0  0  0  0
    1.3329   -0.6600    0.0000 Cl   0  0  0  0  0  0  0  0  0  0  0  0
    1.3329   -3.3128    0.0000 Cl   0  0  0  0  0  0  0  0  0  0  0  0
    0.0000   -1.9799    0.0000 Cl   0  0  0  0  0  0  0  0  0  0  0  0
    6.4703   -2.6722    0.0000 C    0  0  0  0  0  0  0  0  0  0  0  0
    6.4703   -1.3329    0.0000 C    0  0  0  0  0  0  0  0  0  0  0  0
    6.4703    0.0000    0.0000 O    0  0  0  0  0  0  0  0  0  0  0  0
    6.4703   -4.0051    0.0000 O    0  0  0  0  0  0  0  0  0  0  0  0
  1  2  1  0  0  0  0
  1  6  1  0  0  0  0
  2  7  1  0  0  0  0
  2  3  1  0  0  0  0
  3  4  1  0  0  0  0
  4  5  1  0  0  0  0
  5 11  1  0  0  0  0
  5 12  1  0  0  0  0
  5  6  1  0  0  0  0
  7  8  1  0  0  0  0
  7  9  1  0  0  0  0
  7 10  1  0  0  0  0
 11 14  1  0  0  0  0
 12 13  1  0  0  0  0
M  END
> <ID>
11545

> <Formula>
C7H11Cl3O4

> <FW>
265.5188

> <DSSTox_CID>
26251

> <DSSTox_RID>
81478

> <DSSTox_GSID>
46251

> <DSSTox_FileID_Sort>
6159

> <TS_ChemName>
Penthrichloral

> <TS_ChemName_Synonyms>


> <TS_CASRN>
5684-90-2

> <CASRN_ChemName_Relationship>
primary

> <TS_Description>
single chemical compound

> <ChemNote>


> <STRUCTURE_Shown>
tested chemical

> <STRUCTURE_Formula>
C7H11Cl3O4

> <STRUCTURE_MW>
265.5188

> <STRUCTURE_ChemType>
defined organic

> <STRUCTURE_DefinedOrganicForm>
parent

> <STRUCTURE_IUPAC>
[2-(trichloromethyl)-1,3-dioxane-5,5-diyl]dimethanol

> <STRUCTURE_SMILES>
ClC(Cl)(Cl)C1OCC(CO)(CO1)CO

> <STRUCTURE_SMILES_Desalt>
ClC(Cl)(Cl)C1OCC(CO)(CO1)CO

> <Substance_modify_yyyymmdd>
20110817

$$$$
