569-57-3
ChemmineR-0915142007XD

 27 29  0  0  0  0  0  0  0  0  1 V2000
    6.6515   -8.0678    0.0000 Cl   0  0  0  0  0  0  0  0  0  0  0  0
    5.9939   -6.9170    0.0000 C    0  0  0  0  0  0  0  0  0  0  0  0
    6.6515   -5.7663    0.0000 C    0  0  0  0  0  0  0  0  0  0  0  0
    5.9939   -4.6156    0.0000 C    0  0  0  0  0  0  0  0  0  0  0  0
    4.6535   -4.6156    0.0000 C    0  0  0  0  0  0  0  0  0  0  0  0
    3.9960   -3.4522    0.0000 C    0  0  0  0  0  0  0  0  0  0  0  0
    4.6535   -2.3015    0.0000 C    0  0  0  0  0  0  0  0  0  0  0  0
    5.9939   -2.3015    0.0000 C    0  0  0  0  0  0  0  0  0  0  0  0
    6.6515   -3.4522    0.0000 C    0  0  0  0  0  0  0  0  0  0  0  0
    3.9960   -1.1507    0.0000 O    0  0  0  0  0  0  0  0  0  0  0  0
    4.6535    0.0000    0.0000 C    0  0  0  0  0  0  0  0  0  0  0  0
    7.9919   -5.7663    0.0000 C    0  0  0  0  0  0  0  0  0  0  0  0
    8.6495   -4.6156    0.0000 C    0  0  0  0  0  0  0  0  0  0  0  0
    9.9772   -4.6156    0.0000 C    0  0  0  0  0  0  0  0  0  0  0  0
   10.6474   -5.7663    0.0000 C    0  0  0  0  0  0  0  0  0  0  0  0
    9.9772   -6.9170    0.0000 C    0  0  0  0  0  0  0  0  0  0  0  0
    8.6495   -6.9170    0.0000 C    0  0  0  0  0  0  0  0  0  0  0  0
   11.9752   -5.7663    0.0000 O    0  0  0  0  0  0  0  0  0  0  0  0
   12.6454   -6.9170    0.0000 C    0  0  0  0  0  0  0  0  0  0  0  0
    4.6535   -6.9170    0.0000 C    0  0  0  0  0  0  0  0  0  0  0  0
    3.9960   -8.0678    0.0000 C    0  0  0  0  0  0  0  0  0  0  0  0
    2.6682   -8.0678    0.0000 C    0  0  0  0  0  0  0  0  0  0  0  0
    1.9980   -6.9170    0.0000 C    0  0  0  0  0  0  0  0  0  0  0  0
    2.6682   -5.7663    0.0000 C    0  0  0  0  0  0  0  0  0  0  0  0
    3.9960   -5.7663    0.0000 C    0  0  0  0  0  0  0  0  0  0  0  0
    0.6702   -6.9170    0.0000 O    0  0  0  0  0  0  0  0  0  0  0  0
    0.0000   -8.0678    0.0000 C    0  0  0  0  0  0  0  0  0  0  0  0
  1  2  1  0  0  0  0
  2  3  2  0  0  0  0
  2 20  1  0  0  0  0
  3  4  1  0  0  0  0
  3 12  1  0  0  0  0
  4  5  2  0  0  0  0
  4  9  1  0  0  0  0
  5  6  1  0  0  0  0
  6  7  2  0  0  0  0
  7  8  1  0  0  0  0
  7 10  1  0  0  0  0
  8  9  2  0  0  0  0
 10 11  1  0  0  0  0
 12 13  2  0  0  0  0
 12 17  1  0  0  0  0
 13 14  1  0  0  0  0
 14 15  2  0  0  0  0
 15 16  1  0  0  0  0
 15 18  1  0  0  0  0
 16 17  2  0  0  0  0
 18 19  1  0  0  0  0
 20 21  2  0  0  0  0
 20 25  1  0  0  0  0
 21 22  1  0  0  0  0
 22 23  2  0  0  0  0
 23 24  1  0  0  0  0
 23 26  1  0  0  0  0
 24 25  2  0  0  0  0
 26 27  1  0  0  0  0
M  END
> <ID>
1249

> <Formula>
C23H21ClO3

> <FW>
380.864

> <DSSTox_CID>
1299

> <DSSTox_RID>
76067

> <DSSTox_GSID>
21299

> <DSSTox_FileID_Sort>
751

> <TS_ChemName>
Chlorotrianisene

> <TS_ChemName_Synonyms>
Chlorotrianisene (Tace)

> <TS_CASRN>
569-57-3

> <CASRN_ChemName_Relationship>
primary

> <TS_Description>
single chemical compound

> <ChemNote>


> <STRUCTURE_Shown>
tested chemical

> <STRUCTURE_Formula>
C23H21ClO3

> <STRUCTURE_MW>
380.864

> <STRUCTURE_ChemType>
defined organic

> <STRUCTURE_DefinedOrganicForm>
parent

> <STRUCTURE_IUPAC>
1,1',1''-(2-chloroethene-1,1,2-triyl)tris(4-methoxybenzene)

> <STRUCTURE_SMILES>
COc1ccc(cc1)C(\Cl)=C(/c2ccc(OC)cc2)c3ccc(OC)cc3

> <STRUCTURE_SMILES_Desalt>
COc1ccc(cc1)C(\Cl)=C(/c2ccc(OC)cc2)c3ccc(OC)cc3

> <Substance_modify_yyyymmdd>
20080429

$$$$
