569-61-9
ChemmineR-0915142007XD

 23 24  0  0  0  0  0  0  0  0  1 V2000
    4.6100   -5.3291    0.0000 C    0  0  0  0  0  0  0  0  0  0  0  0
    4.6100   -3.9922    0.0000 C    0  0  0  0  0  0  0  0  0  0  0  0
    3.4575   -3.3284    0.0000 C    0  0  0  0  0  0  0  0  0  0  0  0
    3.4575   -2.0007    0.0000 C    0  0  0  0  0  0  0  0  0  0  0  0
    4.6100   -1.3369    0.0000 C    0  0  0  0  0  0  0  0  0  0  0  0
    5.7625   -2.0007    0.0000 C    0  0  0  0  0  0  0  0  0  0  0  0
    5.7625   -3.3284    0.0000 C    0  0  0  0  0  0  0  0  0  0  0  0
    4.6100    0.0000    0.0000 N    0  0  0  0  0  0  0  0  0  0  0  0
    5.7625   -5.9930    0.0000 C    0  0  0  0  0  0  0  0  0  0  0  0
    6.9150   -5.3291    0.0000 C    0  0  0  0  0  0  0  0  0  0  0  0
    8.0675   -5.9930    0.0000 C    0  0  0  0  0  0  0  0  0  0  0  0
    8.0675   -7.3207    0.0000 C    0  0  0  0  0  0  0  0  0  0  0  0
    6.9150   -7.9845    0.0000 C    0  0  0  0  0  0  0  0  0  0  0  0
    5.7625   -7.3207    0.0000 C    0  0  0  0  0  0  0  0  0  0  0  0
    9.2200   -7.9845    0.0000 N    0  0  0  0  0  0  0  0  0  0  0  0
    3.4575   -5.9930    0.0000 C    0  0  0  0  0  0  0  0  0  0  0  0
    3.4575   -7.3207    0.0000 C    0  0  0  0  0  0  0  0  0  0  0  0
    2.3050   -7.9845    0.0000 C    0  0  0  0  0  0  0  0  0  0  0  0
    1.1525   -7.3207    0.0000 C    0  0  0  0  0  0  0  0  0  0  0  0
    1.1525   -5.9930    0.0000 C    0  0  0  0  0  0  0  0  0  0  0  0
    2.3050   -5.3291    0.0000 C    0  0  0  0  0  0  0  0  0  0  0  0
    0.0000   -7.9845    0.0000 N    0  0  0  0  0  0  0  0  0  0  0  0
    4.8866   -8.0859    0.0000 Cl   0  0  0  0  0  0  0  0  0  0  0  0
  1  2  1  0  0  0  0
  1  9  1  0  0  0  0
  1 16  2  0  0  0  0
  2  3  2  0  0  0  0
  2  7  1  0  0  0  0
  3  4  1  0  0  0  0
  4  5  2  0  0  0  0
  5  6  1  0  0  0  0
  5  8  1  0  0  0  0
  6  7  2  0  0  0  0
  9 10  2  0  0  0  0
  9 14  1  0  0  0  0
 10 11  1  0  0  0  0
 11 12  2  0  0  0  0
 12 13  1  0  0  0  0
 12 15  1  0  0  0  0
 13 14  2  0  0  0  0
 16 17  1  0  0  0  0
 16 21  1  0  0  0  0
 17 18  2  0  0  0  0
 18 19  1  0  0  0  0
 19 20  1  0  0  0  0
 19 22  2  0  0  0  0
 20 21  2  0  0  0  0
M  END
> <ID>
1200

> <Formula>
C19H18ClN3

> <FW>
323.8193 (287.3584+36.4609)

> <DSSTox_CID>
1247

> <DSSTox_RID>
76037

> <DSSTox_GSID>
21247

> <DSSTox_FileID_Sort>
721

> <TS_ChemName>
C.I. Basic Red 9 monohydrochloride

> <TS_ChemName_Synonyms>
C.I. Basic Red 9 monohydrochloride (p-Rosaniline.HCl)

> <TS_CASRN>
569-61-9

> <CASRN_ChemName_Relationship>
primary

> <TS_Description>
single chemical compound

> <ChemNote>
C.I. 42500; parent [479-73-2]

> <STRUCTURE_Shown>
tested chemical

> <STRUCTURE_Formula>
C19H18ClN3

> <STRUCTURE_MW>
323.8193

> <STRUCTURE_ChemType>
defined organic

> <STRUCTURE_DefinedOrganicForm>
complex

> <STRUCTURE_IUPAC>
4,4'-[(4-iminocyclohexa-2,5-dien-1-ylidene)methanediyl]dianiline hydrochloride (1:1)

> <STRUCTURE_SMILES>
Cl.N=C1C=C/C(C=C1)=C(\c2ccc(N)cc2)c3ccc(N)cc3

> <STRUCTURE_SMILES_Desalt>
N=C1C=C/C(C=C1)=C(\c2ccc(N)cc2)c3ccc(N)cc3

> <Substance_modify_yyyymmdd>
20080429

$$$$
