56917-29-4
ChemmineR-0915142007XD

 15 16  0  0  0  0  0  0  0  0  1 V2000
    2.6635   -3.4550    0.0000 F   0  0  0  0  0  0  0  0  0  0  0  0
    1.9929   -2.3003    0.0000 C   0  0  0  0  0  0  0  0  0  0  0  0
    2.6635   -1.1548    0.0000 C   0  0  0  0  0  0  0  0  0  0  0  0
    1.9929    0.0000    0.0000 C   0  0  0  0  0  0  0  0  0  0  0  0
    0.6612    0.0000    0.0000 C   0  0  0  0  0  0  0  0  0  0  0  0
    0.0000   -1.1548    0.0000 C   0  0  0  0  0  0  0  0  0  0  0  0
    0.6612   -2.3003    0.0000 C   0  0  0  0  0  0  0  0  0  0  0  0
    3.9952   -1.1548    0.0000 C   0  0  0  0  0  0  0  0  0  0  0  0
    4.6564   -2.3003    0.0000 C   0  0  0  0  0  0  0  0  0  0  0  0
    5.9881   -2.3003    0.0000 C   0  0  0  0  0  0  0  0  0  0  0  0
    6.6493   -1.1548    0.0000 C   0  0  0  0  0  0  0  0  0  0  0  0
    5.9881    0.0000    0.0000 C   0  0  0  0  0  0  0  0  0  0  0  0
    4.6564    0.0000    0.0000 C   0  0  0  0  0  0  0  0  0  0  0  0
    7.9811   -1.1548    0.0000 C   0  0  0  0  0  0  0  0  0  0  0  0
    9.3128   -1.1548    0.0000 C   0  0  0  0  0  0  0  0  0  0  0  0
  1  2  1  0  0  0  0
  2  3  2  0  0  0  0
  2  7  1  0  0  0  0
  3  4  1  0  0  0  0
  3  8  1  0  0  0  0
  4  5  2  0  0  0  0
  5  6  1  0  0  0  0
  6  7  2  0  0  0  0
  8  9  2  0  0  0  0
  8 13  1  0  0  0  0
  9 10  1  0  0  0  0
 10 11  2  0  0  0  0
 11 12  1  0  0  0  0
 11 14  1  0  0  0  0
 12 13  2  0  0  0  0
 14 15  3  0  0  0  0
M  END
> <ID>
16179

> <Formula>
C14H9F

> <FW>
196.2197

> <DSSTox_CID>
31569

> <DSSTox_RID>
97454

> <DSSTox_GSID>
57780

> <DSSTox_FileID_Sort>
8521

> <TS_ChemName>
Fluretofene

> <TS_ChemName_Synonyms>


> <TS_CASRN>
56917-29-4

> <CASRN_ChemName_Relationship>
primary

> <TS_Description>
single chemical compound

> <ChemNote>


> <STRUCTURE_Shown>
tested chemical

> <STRUCTURE_Formula>
C14H9F

> <STRUCTURE_MW>
196.2197

> <STRUCTURE_ChemType>
defined organic

> <STRUCTURE_DefinedOrganicForm>
parent

> <STRUCTURE_IUPAC>
4'-ethynyl-2-fluorobiphenyl

> <STRUCTURE_SMILES>
Fc2ccccc2c1ccc(C#C)cc1

> <STRUCTURE_SMILES_Desalt>
Fc2ccccc2c1ccc(C#C)cc1

> <Substance_modify_yyyymmdd>
20131018

$$$$
