56974-61-9
ChemmineR-0915142007XD

 28 27  0  0  0  0  0  0  0  0  1 V2000
   16.0865   -3.9894    0.0000 C   0  0  0  0  0  0  0  0  0  0  0  0
   16.0865   -2.6543    0.0000 C   0  0  0  0  0  0  0  0  0  0  0  0
   14.9443   -1.9786    0.0000 O   0  0  0  0  0  0  0  0  0  0  0  0
   13.8022   -2.6543    0.0000 C   0  0  0  0  0  0  0  0  0  0  0  0
   13.8022   -3.9894    0.0000 O   0  0  0  0  0  0  0  0  0  0  0  0
   12.6600   -1.9786    0.0000 C   0  0  0  0  0  0  0  0  0  0  0  0
   11.4857   -2.6543    0.0000 C   0  0  0  0  0  0  0  0  0  0  0  0
   10.3436   -1.9786    0.0000 C   0  0  0  0  0  0  0  0  0  0  0  0
   10.3436   -0.6435    0.0000 C   0  0  0  0  0  0  0  0  0  0  0  0
    9.1854    0.0000    0.0000 O   0  0  0  0  0  0  0  0  0  0  0  0
    8.0432   -0.6435    0.0000 C   0  0  0  0  0  0  0  0  0  0  0  0
    6.9011    0.0000    0.0000 O   0  0  0  0  0  0  0  0  0  0  0  0
    8.0432   -1.9786    0.0000 C   0  0  0  0  0  0  0  0  0  0  0  0
    6.9011   -2.6543    0.0000 C   0  0  0  0  0  0  0  0  0  0  0  0
    5.7429   -1.9786    0.0000 C   0  0  0  0  0  0  0  0  0  0  0  0
    4.6168   -2.6543    0.0000 C   0  0  0  0  0  0  0  0  0  0  0  0
    3.4425   -1.9786    0.0000 C   0  0  0  0  0  0  0  0  0  0  0  0
    2.3004   -2.6543    0.0000 N   0  0  0  0  0  0  0  0  0  0  0  0
    1.1421   -1.9786    0.0000 C   0  0  0  0  0  0  0  0  0  0  0  0
    0.0000   -2.6543    0.0000 N   0  0  0  0  0  0  0  0  0  0  0  0
    1.1421   -0.6435    0.0000 N   0  0  0  0  0  0  0  0  0  0  0  0
   11.4857    0.0000    0.0000 C   0  0  0  0  0  0  0  0  0  0  0  0
   12.6600   -0.6435    0.0000 C   0  0  0  0  0  0  0  0  0  0  0  0
    8.0915   -7.9628    0.0000 C   0  0  0  0  0  0  0  0  0  0  0  0
    8.0915   -6.6437    0.0000 S   0  0  0  0  0  0  0  0  0  0  0  0
    6.7724   -6.6437    0.0000 O   0  0  0  0  0  0  0  0  0  0  0  0
    8.0915   -5.3085    0.0000 O   0  0  0  0  0  0  0  0  0  0  0  0
    9.4267   -6.6437    0.0000 O   0  0  0  0  0  0  0  0  0  0  0  0
  1  2  1  0  0  0  0
  2  3  1  0  0  0  0
  3  4  1  0  0  0  0
  4  5  2  0  0  0  0
  4  6  1  0  0  0  0
  6  7  2  0  0  0  0
  6 23  1  0  0  0  0
  7  8  1  0  0  0  0
  8  9  2  0  0  0  0
  9 10  1  0  0  0  0
  9 22  1  0  0  0  0
 10 11  1  0  0  0  0
 11 12  2  0  0  0  0
 11 13  1  0  0  0  0
 13 14  1  0  0  0  0
 14 15  1  0  0  0  0
 15 16  1  0  0  0  0
 16 17  1  0  0  0  0
 17 18  1  0  0  0  0
 18 19  1  0  0  0  0
 19 20  1  0  0  0  0
 19 21  2  0  0  0  0
 22 23  2  0  0  0  0
 24 25  1  0  0  0  0
 25 26  1  0  0  0  0
 25 27  2  0  0  0  0
 25 28  2  0  0  0  0
M  END
> <ID>
11054

> <Formula>
C17H27N3O7S

> <FW>
417.4772 (321.3715+96.1057)

> <DSSTox_CID>
25591

> <DSSTox_RID>
80986

> <DSSTox_GSID>
45591

> <DSSTox_FileID_Sort>
5667

> <TS_ChemName>
Gabexate mesilate

> <TS_ChemName_Synonyms>


> <TS_CASRN>
56974-61-9

> <CASRN_ChemName_Relationship>
primary

> <TS_Description>
single chemical compound

> <ChemNote>
parent [39492-01-8 ]

> <STRUCTURE_Shown>
tested chemical

> <STRUCTURE_Formula>
C17H27N3O7S

> <STRUCTURE_MW>
417.4772

> <STRUCTURE_ChemType>
defined organic

> <STRUCTURE_DefinedOrganicForm>
complex

> <STRUCTURE_IUPAC>
ethyl 4-[(6-carbamimidamidohexanoyl)oxy]benzoate methanesulfonate (1:1)

> <STRUCTURE_SMILES>
O=C(Oc1ccc(cc1)C(=O)OCC)CCCCCNC(=N)N.CS(=O)(=O)O

> <STRUCTURE_SMILES_Desalt>
O=C(Oc1ccc(cc1)C(=O)OCC)CCCCCNC(=N)N

> <Substance_modify_yyyymmdd>
20100107

$$$$
