57-09-0
ChemmineR-0915142007XD

 21 19  0  0  0  0  0  0  0  0  2 V2000
    2.2915   -3.0749    0.0000 C    0  0  0  0  0  0  0  0  0  0  0  0
    3.4471   -2.4090    0.0000 C    0  0  0  0  0  0  0  0  0  0  0  0
    4.6026   -3.0749    0.0000 C    0  0  0  0  0  0  0  0  0  0  0  0
    5.7582   -2.4090    0.0000 C    0  0  0  0  0  0  0  0  0  0  0  0
    6.9137   -3.0749    0.0000 C    0  0  0  0  0  0  0  0  0  0  0  0
    8.0693   -2.4090    0.0000 C    0  0  0  0  0  0  0  0  0  0  0  0
    9.2248   -3.0749    0.0000 C    0  0  0  0  0  0  0  0  0  0  0  0
   10.3608   -2.4090    0.0000 C    0  0  0  0  0  0  0  0  0  0  0  0
   11.5163   -3.0749    0.0000 C    0  0  0  0  0  0  0  0  0  0  0  0
   12.6523   -2.4090    0.0000 C    0  0  0  0  0  0  0  0  0  0  0  0
   13.8078   -3.0749    0.0000 C    0  0  0  0  0  0  0  0  0  0  0  0
   14.9634   -2.4090    0.0000 C    0  0  0  0  0  0  0  0  0  0  0  0
   16.1189   -3.0749    0.0000 C    0  0  0  0  0  0  0  0  0  0  0  0
   17.2745   -2.4090    0.0000 C    0  0  0  0  0  0  0  0  0  0  0  0
   18.4300   -3.0749    0.0000 C    0  0  0  0  0  0  0  0  0  0  0  0
   19.5856   -2.4090    0.0000 C    0  0  0  0  0  0  0  0  0  0  0  0
    1.1556   -2.4090    0.0000 N    0  3  0  0  0  0  0  0  0  0  0  0
    1.8019   -1.2535    0.0000 C    0  0  0  0  0  0  0  0  0  0  0  0
    0.4896   -3.5646    0.0000 C    0  0  0  0  0  0  0  0  0  0  0  0
    0.0000   -1.7627    0.0000 C    0  0  0  0  0  0  0  0  0  0  0  0
    0.7443    0.0000    0.0000 Br   0  5  0  0  0  0  0  0  0  0  0  0
  1  2  1  0  0  0  0
  1 17  1  0  0  0  0
  2  3  1  0  0  0  0
  3  4  1  0  0  0  0
  4  5  1  0  0  0  0
  5  6  1  0  0  0  0
  6  7  1  0  0  0  0
  7  8  1  0  0  0  0
  8  9  1  0  0  0  0
  9 10  1  0  0  0  0
 10 11  1  0  0  0  0
 11 12  1  0  0  0  0
 12 13  1  0  0  0  0
 13 14  1  0  0  0  0
 14 15  1  0  0  0  0
 15 16  1  0  0  0  0
 17 18  1  0  0  0  0
 17 19  1  0  0  0  0
 17 20  1  0  0  0  0
M  END
> <ID>
7238

> <Formula>
C19H42BrN

> <FW>
364.4475 (284.5429+79.9045)

> <DSSTox_CID>
17028

> <DSSTox_RID>
79297

> <DSSTox_GSID>
37028

> <DSSTox_FileID_Sort>
3979

> <TS_ChemName>
Hexadecyltrimethylammonium bromide

> <TS_ChemName_Synonyms>
Hexadecyltrimethylammonium bromide (Cetyl trimethyl ammonium bromide)

> <TS_CASRN>
57-09-0

> <CASRN_ChemName_Relationship>
primary

> <TS_Description>
single chemical compound

> <ChemNote>
ammonium; parent [6899-10-1]

> <STRUCTURE_Shown>
tested chemical

> <STRUCTURE_Formula>
C19H42BrN

> <STRUCTURE_MW>
364.4475

> <STRUCTURE_ChemType>
defined organic

> <STRUCTURE_DefinedOrganicForm>
salt

> <STRUCTURE_IUPAC>
N,N,N-trimethylhexadecan-1-aminium bromide

> <STRUCTURE_SMILES>
[Br-].C[N+](C)(C)CCCCCCCCCCCCCCCC

> <STRUCTURE_SMILES_Desalt>
C[N+](C)(C)CCCCCCCCCCCCCCCC

> <Substance_modify_yyyymmdd>
20080429

$$$$
