57-08-9
ChemmineR-0915142007XD

 12 11  0  0  0  0  0  0  0  0  1 V2000
    1.1567   -2.0036    0.0000 C   0  0  0  0  0  0  0  0  0  0  0  0
    9.1917   -1.3323    0.0000 C   0  0  0  0  0  0  0  0  0  0  0  0
    0.0000   -1.3323    0.0000 O   0  0  0  0  0  0  0  0  0  0  0  0
    9.1917    0.0000    0.0000 O   0  0  0  0  0  0  0  0  0  0  0  0
    2.2928   -1.3323    0.0000 N   0  0  0  0  0  0  0  0  0  0  0  0
   10.3278   -2.0036    0.0000 O   0  0  0  0  0  0  0  0  0  0  0  0
    8.0557   -2.0036    0.0000 C   0  0  0  0  0  0  0  0  0  0  0  0
    1.1670   -3.3359    0.0000 C   0  0  0  0  0  0  0  0  0  0  0  0
    3.4495   -2.0036    0.0000 C   0  0  0  0  0  0  0  0  0  0  0  0
    6.8783   -1.3323    0.0000 C   0  0  0  0  0  0  0  0  0  0  0  0
    4.6062   -1.3323    0.0000 C   0  0  0  0  0  0  0  0  0  0  0  0
    5.7526   -2.0036    0.0000 C   0  0  0  0  0  0  0  0  0  0  0  0
  1  3  2  0  0  0  0
  1  5  1  0  0  0  0
  1  8  1  0  0  0  0
  2  7  1  0  0  0  0
  2  4  2  0  0  0  0
  2  6  1  0  0  0  0
  5  9  1  0  0  0  0
  7 10  1  0  0  0  0
  9 11  1  0  0  0  0
 10 12  1  0  0  0  0
 11 12  1  0  0  0  0
M  END
> <ID>
11263

> <Formula>
C8H15NO3

> <FW>
173.2096

> <DSSTox_CID>
25879

> <DSSTox_RID>
81195

> <DSSTox_GSID>
45879

> <DSSTox_FileID_Sort>
5876

> <TS_ChemName>
Acexamic acid

> <TS_ChemName_Synonyms>


> <TS_CASRN>
57-08-9

> <CASRN_ChemName_Relationship>
primary

> <TS_Description>
single chemical compound

> <ChemNote>


> <STRUCTURE_Shown>
tested chemical

> <STRUCTURE_Formula>
C8H15NO3

> <STRUCTURE_MW>
173.2096

> <STRUCTURE_ChemType>
defined organic

> <STRUCTURE_DefinedOrganicForm>
parent

> <STRUCTURE_IUPAC>
6-(acetylamino)hexanoic acid

> <STRUCTURE_SMILES>
O=C(O)CCCCCNC(C)=O

> <STRUCTURE_SMILES_Desalt>
O=C(O)CCCCCNC(C)=O

> <Substance_modify_yyyymmdd>
20110922

$$$$
