57-15-8
ChemmineR-0915142007XD

  8  7  0  0  0  0  0  0  0  0  1 V2000
    1.3277   -1.3277    0.0000 C    0  0  0  0  0  0  0  0  0  0  0  0
    2.6714   -1.3277    0.0000 C    0  0  0  0  0  0  0  0  0  0  0  0
    1.3277   -2.6554    0.0000 Cl   0  0  0  0  0  0  0  0  0  0  0  0
    0.0000   -1.3277    0.0000 Cl   0  0  0  0  0  0  0  0  0  0  0  0
    1.3277    0.0000    0.0000 Cl   0  0  0  0  0  0  0  0  0  0  0  0
    3.9991   -1.3277    0.0000 O    0  0  0  0  0  0  0  0  0  0  0  0
    2.6714   -2.6554    0.0000 C    0  0  0  0  0  0  0  0  0  0  0  0
    2.6714    0.0000    0.0000 C    0  0  0  0  0  0  0  0  0  0  0  0
  1  2  1  0  0  0  0
  1  3  1  0  0  0  0
  1  4  1  0  0  0  0
  1  5  1  0  0  0  0
  2  6  1  0  0  0  0
  2  7  1  0  0  0  0
  2  8  1  0  0  0  0
M  END
> <ID>
8190

> <Formula>
C4H7Cl3O

> <FW>
177.4568

> <DSSTox_CID>
21217

> <DSSTox_RID>
79651

> <DSSTox_GSID>
41217

> <DSSTox_FileID_Sort>
4333

> <TS_ChemName>
1,1,1-Trichloro-2-methyl-2-propanol

> <TS_ChemName_Synonyms>


> <TS_CASRN>
57-15-8

> <CASRN_ChemName_Relationship>
primary

> <TS_Description>
single chemical compound

> <ChemNote>


> <STRUCTURE_Shown>
tested chemical

> <STRUCTURE_Formula>
C4H7Cl3O

> <STRUCTURE_MW>
177.4568

> <STRUCTURE_ChemType>
defined organic

> <STRUCTURE_DefinedOrganicForm>
parent

> <STRUCTURE_IUPAC>
1,1,1-trichloro-2-methylpropan-2-ol

> <STRUCTURE_SMILES>
ClC(Cl)(Cl)C(C)(C)O

> <STRUCTURE_SMILES_Desalt>
ClC(Cl)(Cl)C(C)(C)O

> <Substance_modify_yyyymmdd>
20080825

$$$$
