57-14-7
ChemmineR-0915142007XD

  4  3  0  0  0  0  0  0  0  0  1 V2000
    1.9950    0.0000    0.0000 C   0  0  0  0  0  0  0  0  0  0  0  0
    1.3292   -1.1518    0.0000 N   0  0  0  0  0  0  0  0  0  0  0  0
    1.9950   -2.3037    0.0000 C   0  0  0  0  0  0  0  0  0  0  0  0
    0.0000   -1.1518    0.0000 N   0  0  0  0  0  0  0  0  0  0  0  0
  1  2  1  0  0  0  0
  2  3  1  0  0  0  0
  2  4  1  0  0  0  0
M  END
> <ID>
498

> <Formula>
C2H8N2

> <FW>
60.0983

> <DSSTox_CID>
516

> <DSSTox_RID>
75637

> <DSSTox_GSID>
20516

> <DSSTox_FileID_Sort>
321

> <TS_ChemName>
1,1-Dimethylhydrazine

> <TS_ChemName_Synonyms>
1,1-Dimethylhydrazine (Dimethyl hydrazine) (DMH)

> <TS_CASRN>
57-14-7

> <CASRN_ChemName_Relationship>
primary

> <TS_Description>
single chemical compound

> <ChemNote>


> <STRUCTURE_Shown>
tested chemical

> <STRUCTURE_Formula>
C2H8N2

> <STRUCTURE_MW>
60.0983

> <STRUCTURE_ChemType>
defined organic

> <STRUCTURE_DefinedOrganicForm>
parent

> <STRUCTURE_IUPAC>
1,1-dimethylhydrazine

> <STRUCTURE_SMILES>
CN(C)N

> <STRUCTURE_SMILES_Desalt>
CN(C)N

> <Substance_modify_yyyymmdd>
20080429

$$$$
