57-22-7
ChemmineR-0915142007XD

 62 70  0  0  1  0  0  0  0  0  1 V2000
    6.1892   -3.0272    0.0000 C   0  0  0  0  0  0  0  0  0  0  0  0
    6.1892   -4.3010    0.0000 C   0  0  0  0  0  0  0  0  0  0  0  0
    5.0953   -2.3828    0.0000 C   0  0  0  0  0  0  0  0  0  0  0  0
    5.0953   -4.9454    0.0000 C   0  0  0  0  0  0  0  0  0  0  0  0
    3.9863   -3.0272    0.0000 C   0  0  0  0  0  0  0  0  0  0  0  0
    3.9863   -4.3010    0.0000 C   0  0  0  0  0  0  0  0  0  0  0  0
    7.3132   -2.3828    0.0000 C   0  0  0  0  0  0  0  0  0  0  0  0
    7.3132   -1.0940    0.0000 C   0  0  0  0  0  0  0  0  0  0  0  0
    5.0953   -1.0940    0.0000 N   0  0  0  0  0  0  0  0  0  0  0  0
    6.1892   -0.4496    0.0000 C   0  0  0  0  0  0  0  0  0  0  0  0
    1.9332   -1.5585    0.0000 C   0  0  0  0  0  0  0  0  0  0  0  0
    2.5626   -2.6675    0.0000 C   0  0  0  0  0  0  0  0  0  0  0  0
    0.6444   -1.5585    0.0000 C   0  0  0  0  0  0  0  0  0  0  0  0
    1.9332   -3.7765    0.0000 C   0  0  0  0  0  0  0  0  0  0  0  0
    0.0000   -2.6675    0.0000 C   0  0  0  0  0  0  0  0  0  0  0  0
    0.6444   -3.7765    0.0000 C   0  0  0  0  0  0  0  0  0  0  0  0
    2.8174   -4.7955    0.0000 N   0  0  0  0  0  0  0  0  0  0  0  0
    3.6116   -0.8542    0.0000 C   0  0  0  0  0  0  0  0  0  0  0  0
    3.0272   -2.1430    0.0000 C   0  0  0  0  0  0  0  0  0  0  0  0
    4.4359   -6.0394    0.0000 C   0  0  0  0  0  0  0  0  0  0  0  0
    3.1621   -6.0394    0.0000 O   0  0  0  0  0  0  0  0  0  0  0  0
    5.0803   -7.1483    0.0000 O   0  0  0  0  0  0  0  0  0  0  0  0
    4.4059   -8.2573    0.0000 C   0  0  0  0  0  0  0  0  0  0  0  0
    7.9576    0.0000    0.0000 C   0  0  0  0  0  0  0  0  0  0  0  0
    8.5870   -1.0940    0.0000 O   0  0  0  0  0  0  0  0  0  0  0  0
    9.2464    0.0000    0.0000 C   0  0  0  0  0  0  0  0  0  0  0  0
   12.4234   -9.3513    0.0000 C   0  0  0  0  0  0  0  0  0  0  0  0
   12.4234  -10.6401    0.0000 C   0  0  0  0  0  0  0  0  0  0  0  0
   11.3145   -8.7069    0.0000 C   0  0  0  0  0  0  0  0  0  0  0  0
   11.3145  -11.2695    0.0000 C   0  0  0  0  0  0  0  0  0  0  0  0
   10.2055   -9.3513    0.0000 C   0  0  0  0  0  0  0  0  0  0  0  0
   10.2055  -10.6401    0.0000 C   0  0  0  0  0  0  0  0  0  0  0  0
   13.5474   -8.7069    0.0000 C   0  0  0  0  0  0  0  0  0  0  0  0
   13.5474   -7.4181    0.0000 C   0  0  0  0  0  0  0  0  0  0  0  0
   11.3145   -7.4181    0.0000 N   0  0  0  0  0  0  0  0  0  0  0  0
   12.4234   -6.7887    0.0000 C   0  0  0  0  0  0  0  0  0  0  0  0
    8.1674   -7.8976    0.0000 C   0  0  0  0  0  0  0  0  0  0  0  0
    8.7968   -9.0066    0.0000 C   0  0  0  0  0  0  0  0  0  0  0  0
    6.8636   -7.8976    0.0000 C   0  0  0  0  0  0  0  0  0  0  0  0
    8.1374  -10.1156    0.0000 C   0  0  0  0  0  0  0  0  0  0  0  0
    6.2342   -9.0066    0.0000 C   0  0  0  0  0  0  0  0  0  0  0  0
    6.8636  -10.1156    0.0000 C   0  0  0  0  0  0  0  0  0  0  0  0
    9.0516  -11.1646    0.0000 N   0  0  0  0  0  0  0  0  0  0  0  0
    9.8458   -7.1933    0.0000 C   0  0  0  0  0  0  0  0  0  0  0  0
    9.2614   -8.4821    0.0000 C   0  0  0  0  0  0  0  0  0  0  0  0
   11.9589  -12.3935    0.0000 O   0  0  0  0  0  0  0  0  0  0  0  0
   10.6701  -12.3635    0.0000 C   0  0  0  0  0  0  0  0  0  0  0  0
    9.3962  -12.3635    0.0000 O   0  0  0  0  0  0  0  0  0  0  0  0
   11.2845  -13.4874    0.0000 O   0  0  0  0  0  0  0  0  0  0  0  0
   12.5883  -13.4874    0.0000 C   0  0  0  0  0  0  0  0  0  0  0  0
   14.6563   -9.3513    0.0000 C   0  0  0  0  0  0  0  0  0  0  0  0
   13.5174   -9.9957    0.0000 C   0  0  0  0  0  0  0  0  0  0  0  0
   13.0678  -11.7341    0.0000 O   0  0  0  0  0  0  0  0  0  0  0  0
   14.3566  -11.7341    0.0000 C   0  0  0  0  0  0  0  0  0  0  0  0
   14.9860  -12.8580    0.0000 C   0  0  0  0  0  0  0  0  0  0  0  0
   14.9860  -10.6401    0.0000 O   0  0  0  0  0  0  0  0  0  0  0  0
   11.3145   -9.9807    0.0000 H   0  0  0  0  0  0  0  0  0  0  0  0
   10.2205  -11.9139    0.0000 H   0  0  0  0  0  0  0  0  0  0  0  0
    8.3922  -12.2436    0.0000 C   0  0  0  0  0  0  0  0  0  0  0  0
    7.1184  -12.2436    0.0000 O   0  0  0  0  0  0  0  0  0  0  0  0
    4.9454   -9.0066    0.0000 O   0  0  0  0  0  0  0  0  0  0  0  0
    4.3010  -10.1156    0.0000 C   0  0  0  0  0  0  0  0  0  0  0  0
  1  2  1  0  0  0  0
  1  7  1  0  0  0  0
  1  3  1  6  0  0  0
  2  4  1  0  0  0  0
  9  3  1  6  0  0  0
  4  6  1  0  0  0  0
  4 39  1  6  0  0  0
  4 20  1  1  0  0  0
  5  6  2  0  0  0  0
  5 12  1  0  0  0  0
  5 19  1  0  0  0  0
  6 17  1  0  0  0  0
  7  8  1  0  0  0  0
  8 10  1  0  0  0  0
  8 24  1  6  0  0  0
  8 25  1  1  0  0  0
  9 10  1  0  0  0  0
  9 18  1  0  0  0  0
 11 12  1  0  0  0  0
 11 13  2  0  0  0  0
 12 14  2  0  0  0  0
 13 15  1  0  0  0  0
 14 16  1  0  0  0  0
 14 17  1  0  0  0  0
 15 16  2  0  0  0  0
 18 19  1  0  0  0  0
 20 21  2  0  0  0  0
 20 22  1  0  0  0  0
 22 23  1  0  0  0  0
 24 26  1  0  0  0  0
 27 28  1  0  0  0  0
 27 33  1  0  0  0  0
 27 29  1  0  0  0  0
 27 52  1  6  0  0  0
 28 30  1  0  0  0  0
 28 53  1  1  0  0  0
 29 35  1  0  0  0  0
 29 31  1  0  0  0  0
 29 57  1  6  0  0  0
 30 32  1  0  0  0  0
 30 46  1  1  0  0  0
 30 47  1  6  0  0  0
 31 32  1  0  0  0  0
 31 38  1  0  0  0  0
 31 45  1  1  0  0  0
 32 43  1  0  0  0  0
 32 58  1  1  0  0  0
 33 34  2  0  0  0  0
 34 36  1  0  0  0  0
 35 36  1  0  0  0  0
 35 44  1  0  0  0  0
 37 38  1  0  0  0  0
 37 39  2  0  0  0  0
 38 40  2  0  0  0  0
 39 41  1  0  0  0  0
 40 42  1  0  0  0  0
 40 43  1  0  0  0  0
 41 42  2  0  0  0  0
 41 61  1  0  0  0  0
 43 59  1  0  0  0  0
 44 45  1  0  0  0  0
 47 48  2  0  0  0  0
 47 49  1  0  0  0  0
 49 50  1  0  0  0  0
 51 52  1  0  0  0  0
 53 54  1  0  0  0  0
 54 55  1  0  0  0  0
 54 56  2  0  0  0  0
 59 60  2  0  0  0  0
 61 62  1  0  0  0  0
M  END
> <ID>
6406

> <Formula>
C46H56N4O10

> <FW>
824.9576

> <DSSTox_CID>
12278

> <DSSTox_RID>
78909

> <DSSTox_GSID>
32278

> <DSSTox_FileID_Sort>
3591

> <TS_ChemName>
Vincristine

> <TS_ChemName_Synonyms>


> <TS_CASRN>
57-22-7

> <CASRN_ChemName_Relationship>
primary

> <TS_Description>
single chemical compound

> <ChemNote>
stereochem

> <STRUCTURE_Shown>
tested chemical

> <STRUCTURE_Formula>
C46H56N4O10

> <STRUCTURE_MW>
824.9576

> <STRUCTURE_ChemType>
defined organic

> <STRUCTURE_DefinedOrganicForm>
parent

> <STRUCTURE_IUPAC>
(2'beta)-22-oxovincaleukoblastine

> <STRUCTURE_SMILES>
O=C(OC)[C@@]2(C[C@H]4C[C@@](O)(CC)C[N@@](CCc1c3ccccc3nc12)C4)c5cc9c(cc5OC)N(C=O)[C@@H]6[C@]98CCN7CC=C[C@@](CC)([C@@H](OC(C)=O)[C@]6(O)C(=O)OC)[C@H]78

> <STRUCTURE_SMILES_Desalt>
O=C(OC)[C@@]2(C[C@H]4C[C@@](O)(CC)C[N@@](CCc1c3ccccc3nc12)C4)c5cc9c(cc5OC)N(C=O)[C@@H]6[C@]98CCN7CC=C[C@@](CC)([C@@H](OC(C)=O)[C@]6(O)C(=O)OC)[C@H]78

> <Substance_modify_yyyymmdd>
20080429

$$$$
