57-24-9_2
ChemmineR-0915142007XD

 38 44  0  0  1  0  0  0  0  0  1 V2000
    6.2329   -3.0065    0.0000 C    0  0  0  0  0  0  0  0  0  0  0  0
    5.1788   -3.5931    0.0000 C    0  0  0  0  0  0  0  0  0  0  0  0
    5.1788   -4.7938    0.0000 C    0  0  0  0  0  0  0  0  0  0  0  0
    4.1614   -3.0065    0.0000 C    0  0  0  0  0  0  0  0  0  0  0  0
    3.1164   -3.5931    0.0000 N    0  0  0  0  0  0  0  0  0  0  0  0
    4.1614   -5.4171    0.0000 C    0  0  0  0  0  0  0  0  0  0  0  0
    3.1164   -4.7938    0.0000 C    0  0  0  0  0  0  0  0  0  0  0  0
    6.2329   -1.8057    0.0000 C    0  0  0  0  0  0  0  0  0  0  0  0
    5.1788   -1.2007    0.0000 C    0  0  0  0  0  0  0  0  0  0  0  0
    4.1614   -1.8057    0.0000 C    0  0  0  0  0  0  0  0  0  0  0  0
    2.0807   -3.0065    0.0000 C    0  0  0  0  0  0  0  0  0  0  0  0
    2.0807   -1.8057    0.0000 C    0  0  0  0  0  0  0  0  0  0  0  0
    1.0266   -3.5931    0.0000 C    0  0  0  0  0  0  0  0  0  0  0  0
    0.0000   -3.0065    0.0000 C    0  0  0  0  0  0  0  0  0  0  0  0
    1.0266   -1.2007    0.0000 C    0  0  0  0  0  0  0  0  0  0  0  0
    0.0000   -1.8057    0.0000 C    0  0  0  0  0  0  0  0  0  0  0  0
    5.1788    0.0000    0.0000 N    0  0  0  0  0  0  0  0  0  0  0  0
    3.1164   -1.2007    0.0000 C    0  0  0  0  0  0  0  0  0  0  0  0
    3.1164    0.0000    0.0000 C    0  0  0  0  0  0  0  0  0  0  0  0
    7.4153    0.0000    0.0000 C    0  0  0  0  0  0  0  0  0  0  0  0
    2.0807   -5.4171    0.0000 O    0  0  0  0  0  0  0  0  0  0  0  0
    5.1788   -5.9946    0.0000 H    0  0  0  0  0  0  0  0  0  0  0  0
    4.1614   -4.1980    0.0000 H    0  0  0  0  0  0  0  0  0  0  0  0
    6.2329   -4.1980    0.0000 H    0  0  0  0  0  0  0  0  0  0  0  0
    5.1788   -2.4107    0.0000 H    0  0  0  0  0  0  0  0  0  0  0  0
    7.4153   -3.0065    0.0000 C    0  0  0  0  0  0  0  0  0  0  0  0
    8.4602   -3.5931    0.0000 C    0  0  0  0  0  0  0  0  0  0  0  0
    8.4602   -4.7938    0.0000 C    0  0  0  0  0  0  0  0  0  0  0  0
    6.8012   -5.4813    0.0000 O    0  0  0  0  0  0  0  0  0  0  0  0
    6.2512   -0.6050    0.0000 H    0  0  0  0  0  0  0  0  0  0  0  0
    5.2796   -7.0853    0.0000 C    0  0  0  0  0  0  0  0  0  0  0  0
    6.4804   -7.0853    0.0000 C    0  0  0  0  0  0  0  0  0  0  0  0
    4.6930   -8.1303    0.0000 C    0  0  0  0  0  0  0  0  0  0  0  0
    7.0853   -8.1303    0.0000 C    0  0  0  0  0  0  0  0  0  0  0  0
    5.2796   -9.1660    0.0000 C    0  0  0  0  0  0  0  0  0  0  0  0
    6.4804   -9.1660    0.0000 C    0  0  0  0  0  0  0  0  0  0  0  0
    3.4923   -8.1303    0.0000 C    0  0  0  0  0  0  0  0  0  0  0  0
    2.8873   -7.0853    0.0000 Cl   0  0  0  0  0  0  0  0  0  0  0  0
  1 26  1  0  0  0  0
  1  8  1  0  0  0  0
  1 24  1  6  0  0  0
  1  2  1  0  0  0  0
  2  4  1  0  0  0  0
  2 25  1  6  0  0  0
  2  3  1  0  0  0  0
  3  6  1  0  0  0  0
  3 22  1  6  0  0  0
  3 29  1  0  0  0  0
  4  5  1  0  0  0  0
  4 10  1  0  0  0  0
  4 23  1  1  0  0  0
  5  7  1  0  0  0  0
  5 11  1  0  0  0  0
  6  7  1  0  0  0  0
  7 21  2  0  0  0  0
  8  9  1  0  0  0  0
  9 17  1  0  0  0  0
  9 10  1  0  0  0  0
  9 30  1  6  0  0  0
 10 12  1  0  0  0  0
 10 18  1  1  0  0  0
 11 13  1  0  0  0  0
 11 12  2  0  0  0  0
 12 15  1  0  0  0  0
 13 14  2  0  0  0  0
 14 16  1  0  0  0  0
 15 16  2  0  0  0  0
 17 19  1  0  0  0  0
 17 20  1  0  0  0  0
 18 19  1  0  0  0  0
 20 26  1  0  0  0  0
 26 27  2  0  0  0  0
 27 28  1  0  0  0  0
 28 29  1  0  0  0  0
 31 32  1  0  0  0  0
 31 33  2  0  0  0  0
 32 34  2  0  0  0  0
 33 35  1  0  0  0  0
 33 37  1  0  0  0  0
 34 36  1  0  0  0  0
 35 36  2  0  0  0  0
 37 38  1  0  0  0  0
M  END
> <ID>
12005

> <Formula>
C28H29ClN2O2

> <FW>
460.9951 (334.4116+126.5835)

> <DSSTox_CID>
26830

> <DSSTox_RID>
81942

> <DSSTox_GSID>
46830

> <DSSTox_FileID_Sort>
6623

> <TS_ChemName>
Strychinine benzyl chloride

> <TS_ChemName_Synonyms>


> <TS_CASRN>
57-24-9_2

> <CASRN_ChemName_Relationship>
CAS for parent

> <TS_Description>
single chemical compound

> <ChemNote>
CAS for Strychinine

> <STRUCTURE_Shown>
tested chemical

> <STRUCTURE_Formula>
C28H29ClN2O2

> <STRUCTURE_MW>
460.9951

> <STRUCTURE_ChemType>
defined organic

> <STRUCTURE_DefinedOrganicForm>
complex

> <STRUCTURE_IUPAC>
strychnidin-10-one - (chloromethyl)benzene (1:1)

> <STRUCTURE_SMILES>
ClCc1ccccc1.O=C2C[C@@H]7OCC=C6CN4CC[C@@]53c1ccccc1N2[C@H]3[C@H]7[C@H]6C[C@H]45

> <STRUCTURE_SMILES_Desalt>
O=C2C[C@@H]7OCC=C6CN4CC[C@@]53c1ccccc1N2[C@H]3[C@H]7[C@H]6C[C@H]45

> <Substance_modify_yyyymmdd>
20130911

$$$$
