57-29-4
ChemmineR-0915142007XD

 25 28  0  0  1  0  0  0  0  0  1 V2000
    2.2472   -3.9308    0.0000 C    0  0  0  0  0  0  0  0  0  0  0  0
    2.2472   -2.5968    0.0000 C    0  0  0  0  0  0  0  0  0  0  0  0
    3.3815   -4.6086    0.0000 C    0  0  0  0  0  0  0  0  0  0  0  0
    1.0986   -1.9690    0.0000 C    0  0  0  0  0  0  0  0  0  0  0  0
    1.0986   -4.6086    0.0000 C    0  0  0  0  0  0  0  0  0  0  0  0
    0.3638   -3.2388    0.0000 O    0  0  0  0  0  0  0  0  0  0  0  0
    4.4944   -3.9166    0.0000 C    0  0  0  0  0  0  0  0  0  0  0  0
    3.3815   -1.9690    0.0000 C    0  0  0  0  0  0  0  0  0  0  0  0
    3.3815   -5.8784    0.0000 C    0  0  0  0  0  0  0  0  0  0  0  0
    5.1080   -4.5301    0.0000 N    0  0  0  0  0  0  0  0  0  0  0  0
    4.4944   -2.5968    0.0000 C    0  0  0  0  0  0  0  0  0  0  0  0
    2.2615   -5.2221    0.0000 C    0  0  0  0  0  0  0  0  0  0  0  0
    2.2615   -6.5419    0.0000 C    0  0  0  0  0  0  0  0  0  0  0  0
    1.0986   -5.9070    0.0000 C    0  0  0  0  0  0  0  0  0  0  0  0
    1.0986   -0.6635    0.0000 C    0  0  0  0  0  0  0  0  0  0  0  0
    4.7156   -5.2221    0.0000 C    0  0  0  0  0  0  0  0  0  0  0  0
    3.3815   -0.6635    0.0000 C    0  0  0  0  0  0  0  0  0  0  0  0
    2.2615   -0.0143    0.0000 C    0  0  0  0  0  0  0  0  0  0  0  0
    7.1340   -3.4243    0.0000 C    0  0  0  0  0  0  0  0  0  0  0  0
    6.5562   -2.2044    0.0000 C    0  0  0  0  0  0  0  0  0  0  0  0
    6.4420   -4.5301    0.0000 C    0  0  0  0  0  0  0  0  0  0  0  0
    0.0000    0.0000    0.0000 O    0  0  0  0  0  0  0  0  0  0  0  0
    0.0000   -6.5704    0.0000 O    0  0  0  0  0  0  0  0  0  0  0  0
    3.3815   -3.2888    0.0000 H    0  0  0  0  0  0  0  0  0  0  0  0
    5.0937   -6.0853    0.0000 Cl   0  0  0  0  0  0  0  0  0  0  0  0
  1  2  1  0  0  0  0
  1  3  1  0  0  0  0
  1  5  1  0  0  0  0
  1 12  1  1  0  0  0
  2  4  1  0  0  0  0
  2  8  2  0  0  0  0
  3  7  1  0  0  0  0
  3  9  1  0  0  0  0
  3 24  1  1  0  0  0
  4 15  2  0  0  0  0
  4  6  1  0  0  0  0
  5  6  1  6  0  0  0
  5 14  1  0  0  0  0
  7 11  1  0  0  0  0
  7 10  1  1  0  0  0
  8 17  1  0  0  0  0
  8 11  1  0  0  0  0
  9 13  2  0  0  0  0
 10 16  1  0  0  0  0
 10 21  1  0  0  0  0
 12 16  1  0  0  0  0
 13 14  1  0  0  0  0
 14 23  1  6  0  0  0
 15 22  1  0  0  0  0
 15 18  1  0  0  0  0
 17 18  2  0  0  0  0
 19 21  1  0  0  0  0
 19 20  2  0  0  0  0
M  END
> <ID>
12924

> <Formula>
C19H22ClNO3

> <FW>
347.8359 (311.3749+36.4609)

> <DSSTox_CID>
27825

> <DSSTox_RID>
82588

> <DSSTox_GSID>
47847

> <DSSTox_FileID_Sort>
7265

> <TS_ChemName>
Nalorphine hydrochloride

> <TS_ChemName_Synonyms>


> <TS_CASRN>
57-29-4

> <CASRN_ChemName_Relationship>
primary

> <TS_Description>
single chemical compound

> <ChemNote>
stereochem; parent [62-67-9]

> <STRUCTURE_Shown>
tested chemical

> <STRUCTURE_Formula>
C19H22ClNO3

> <STRUCTURE_MW>
347.8359

> <STRUCTURE_ChemType>
defined organic

> <STRUCTURE_DefinedOrganicForm>
complex

> <STRUCTURE_IUPAC>
(5alpha,6alpha)-17-(prop-2-en-1-yl)-7,8-didehydro-4,5-epoxymorphinan-3,6-diol hydrochloride (1:1)

> <STRUCTURE_SMILES>
Cl.Oc1ccc2C[C@H]4N(CC[C@@]35[C@@H](Oc1c23)[C@@H](O)C=C[C@@H]45)CC=C

> <STRUCTURE_SMILES_Desalt>
Oc1ccc2C[C@H]4N(CC[C@@]35[C@@H](Oc1c23)[C@@H](O)C=C[C@@H]45)CC=C

> <Substance_modify_yyyymmdd>
20110802

$$$$
