57-24-9_1
ChemmineR-0915142007XD

 49 56  0  0  1  0  0  0  0  0  1 V2000
   17.3175   -3.0560    0.0000 C   0  0  0  0  0  0  0  0  0  0  0  0
   16.2597   -3.6633    0.0000 C   0  0  0  0  0  0  0  0  0  0  0  0
   16.2597   -4.8975    0.0000 C   0  0  0  0  0  0  0  0  0  0  0  0
   15.2018   -3.0560    0.0000 C   0  0  0  0  0  0  0  0  0  0  0  0
   14.1243   -3.6633    0.0000 N   0  0  0  0  0  0  0  0  0  0  0  0
   15.2018   -5.5244    0.0000 C   0  0  0  0  0  0  0  0  0  0  0  0
   14.1243   -4.8975    0.0000 C   0  0  0  0  0  0  0  0  0  0  0  0
   17.3175   -1.8415    0.0000 C   0  0  0  0  0  0  0  0  0  0  0  0
   16.2597   -1.2146    0.0000 C   0  0  0  0  0  0  0  0  0  0  0  0
   15.2018   -1.8415    0.0000 C   0  0  0  0  0  0  0  0  0  0  0  0
   13.0665   -3.0560    0.0000 C   0  0  0  0  0  0  0  0  0  0  0  0
   13.0665   -1.8415    0.0000 C   0  0  0  0  0  0  0  0  0  0  0  0
   12.0086   -3.6633    0.0000 C   0  0  0  0  0  0  0  0  0  0  0  0
   10.9508   -3.0560    0.0000 C   0  0  0  0  0  0  0  0  0  0  0  0
   12.0086   -1.2146    0.0000 C   0  0  0  0  0  0  0  0  0  0  0  0
   10.9508   -1.8415    0.0000 C   0  0  0  0  0  0  0  0  0  0  0  0
   16.2597    0.0000    0.0000 N   0  0  0  0  0  0  0  0  0  0  0  0
   14.1243   -1.2146    0.0000 C   0  0  0  0  0  0  0  0  0  0  0  0
   14.1243    0.0000    0.0000 C   0  0  0  0  0  0  0  0  0  0  0  0
   18.5321    0.0000    0.0000 C   0  0  0  0  0  0  0  0  0  0  0  0
   13.0665   -5.5244    0.0000 O   0  0  0  0  0  0  0  0  0  0  0  0
   16.2597   -6.1121    0.0000 H   0  0  0  0  0  0  0  0  0  0  0  0
   15.2018   -4.2902    0.0000 H   0  0  0  0  0  0  0  0  0  0  0  0
   17.3175   -4.2902    0.0000 H   0  0  0  0  0  0  0  0  0  0  0  0
   16.2597   -2.4487    0.0000 H   0  0  0  0  0  0  0  0  0  0  0  0
   18.5321   -3.0560    0.0000 C   0  0  0  0  0  0  0  0  0  0  0  0
   19.5899   -3.6633    0.0000 C   0  0  0  0  0  0  0  0  0  0  0  0
   19.5899   -4.8975    0.0000 C   0  0  0  0  0  0  0  0  0  0  0  0
   17.9052   -5.6027    0.0000 O   0  0  0  0  0  0  0  0  0  0  0  0
   17.3371   -0.6073    0.0000 H   0  0  0  0  0  0  0  0  0  0  0  0
    4.6428   -4.5840    0.0000 C   0  0  0  0  0  0  0  0  0  0  0  0
    3.7613   -3.7809    0.0000 C   0  0  0  0  0  0  0  0  0  0  0  0
    2.5467   -4.0551    0.0000 C   0  0  0  0  0  0  0  0  0  0  0  0
    1.9002   -2.9777    0.0000 C   0  0  0  0  0  0  0  0  0  0  0  0
    2.7426   -2.0569    0.0000 C   0  0  0  0  0  0  0  0  0  0  0  0
    2.4879   -0.8815    0.0000 C   0  0  0  0  0  0  0  0  0  0  0  0
    3.8788   -2.5663    0.0000 N   0  0  0  0  0  0  0  0  0  0  0  0
    4.9367   -1.9590    0.0000 C   0  0  0  0  0  0  0  0  0  0  0  0
    4.9367   -0.7248    0.0000 C   0  0  0  0  0  0  0  0  0  0  0  0
    5.9945   -0.1175    0.0000 C   0  0  0  0  0  0  0  0  0  0  0  0
    7.0524   -0.7052    0.0000 C   0  0  0  0  0  0  0  0  0  0  0  0
    7.0524   -1.9394    0.0000 C   0  0  0  0  0  0  0  0  0  0  0  0
    5.9945   -2.5663    0.0000 C   0  0  0  0  0  0  0  0  0  0  0  0
    8.1298   -2.5467    0.0000 C   0  0  0  0  0  0  0  0  0  0  0  0
    8.1298   -3.7613    0.0000 O   0  0  0  0  0  0  0  0  0  0  0  0
    9.1681   -1.9394    0.0000 O   0  0  0  0  0  0  0  0  0  0  0  0
    0.7052   -2.8601    0.0000 C   0  0  0  0  0  0  0  0  0  0  0  0
    0.1959   -1.7435    0.0000 O   0  0  0  0  0  0  0  0  0  0  0  0
    0.0000   -3.8788    0.0000 O   0  0  0  0  0  0  0  0  0  0  0  0
  1 26  1  0  0  0  0
  1  8  1  0  0  0  0
  1 24  1  6  0  0  0
  1  2  1  0  0  0  0
  2  4  1  0  0  0  0
  2 25  1  6  0  0  0
  2  3  1  0  0  0  0
  3  6  1  0  0  0  0
  3 22  1  6  0  0  0
  3 29  1  0  0  0  0
  4  5  1  0  0  0  0
  4 10  1  0  0  0  0
  4 23  1  1  0  0  0
  5  7  1  0  0  0  0
  5 11  1  0  0  0  0
  6  7  1  0  0  0  0
  7 21  2  0  0  0  0
  8  9  1  0  0  0  0
  9 17  1  0  0  0  0
  9 10  1  0  0  0  0
  9 30  1  6  0  0  0
 10 12  1  0  0  0  0
 10 18  1  1  0  0  0
 11 13  1  0  0  0  0
 11 12  2  0  0  0  0
 12 15  1  0  0  0  0
 13 14  2  0  0  0  0
 14 16  1  0  0  0  0
 15 16  2  0  0  0  0
 17 19  1  0  0  0  0
 17 20  1  0  0  0  0
 18 19  1  0  0  0  0
 20 26  1  0  0  0  0
 26 27  2  0  0  0  0
 27 28  1  0  0  0  0
 28 29  1  0  0  0  0
 31 32  1  0  0  0  0
 32 33  2  0  0  0  0
 32 37  1  0  0  0  0
 33 34  1  0  0  0  0
 34 35  2  0  0  0  0
 34 47  1  0  0  0  0
 35 36  1  0  0  0  0
 35 37  1  0  0  0  0
 37 38  1  0  0  0  0
 38 39  2  0  0  0  0
 38 43  1  0  0  0  0
 39 40  1  0  0  0  0
 40 41  2  0  0  0  0
 41 42  1  0  0  0  0
 42 43  2  0  0  0  0
 42 44  1  0  0  0  0
 44 45  1  0  0  0  0
 44 46  2  0  0  0  0
 47 48  1  0  0  0  0
 47 49  2  0  0  0  0
M  END
> <ID>
10744

> <Formula>
C35H35N3O6

> <FW>
593.6689 (334.4116+259.2573)

> <DSSTox_CID>
25108

> <DSSTox_RID>
80675

> <DSSTox_GSID>
45108

> <DSSTox_FileID_Sort>
5357

> <TS_ChemName>
1-(3-Carboxyphenyl)-2,5-dimethyl-1H-pyrrole-3-carboxylic acid, strychnidin-10-one (1:1)

> <TS_ChemName_Synonyms>


> <TS_CASRN>
57-24-9_1

> <CASRN_ChemName_Relationship>
CAS for major component

> <TS_Description>
single chemical compound

> <ChemNote>
1:1 mixture of strychnidin-10-one [57-24-9] and 1-(3-carboxyphenyl)-2,5-dimethyl-1H-pyrrole-3-carboxylic acid [500728-23-4]; both structures shown; CAS for Strychnidin-10-one

> <STRUCTURE_Shown>
tested chemical

> <STRUCTURE_Formula>
C35H35N3O6

> <STRUCTURE_MW>
593.6689

> <STRUCTURE_ChemType>
defined organic

> <STRUCTURE_DefinedOrganicForm>
complex

> <STRUCTURE_IUPAC>
1-(3-carboxyphenyl)-2,5-dimethyl-1H-pyrrole-3-carboxylic acid - strychnidin-10-one (1:1)

> <STRUCTURE_SMILES>
O=C(O)c1cc(ccc1)n2c(C)cc(C(=O)O)c2C.O=C2C[C@@H]7OCC=C6CN4CC[C@@]53c1ccccc1N2[C@H]3[C@H]7[C@H]6C[C@H]45

> <STRUCTURE_SMILES_Desalt>
O=C2C[C@@H]7OCC=C6CN4CC[C@@]53c1ccccc1N2[C@H]3[C@H]7[C@H]6C[C@H]45

> <Substance_modify_yyyymmdd>
20130911

$$$$
