57-24-9
ChemmineR-0915142007XD

 30 36  0  0  1  0  0  0  0  0  1 V2000
    6.1019   -2.9309    0.0000 C   0  0  0  0  0  0  0  0  0  0  0  0
    5.0752   -3.5104    0.0000 C   0  0  0  0  0  0  0  0  0  0  0  0
    5.0752   -4.6944    0.0000 C   0  0  0  0  0  0  0  0  0  0  0  0
    4.0651   -2.9309    0.0000 C   0  0  0  0  0  0  0  0  0  0  0  0
    3.0468   -3.5104    0.0000 N   0  0  0  0  0  0  0  0  0  0  0  0
    4.0651   -5.2905    0.0000 C   0  0  0  0  0  0  0  0  0  0  0  0
    3.0468   -4.6944    0.0000 C   0  0  0  0  0  0  0  0  0  0  0  0
    6.1019   -1.7635    0.0000 C   0  0  0  0  0  0  0  0  0  0  0  0
    5.0752   -1.1674    0.0000 C   0  0  0  0  0  0  0  0  0  0  0  0
    4.0651   -1.7635    0.0000 C   0  0  0  0  0  0  0  0  0  0  0  0
    2.0367   -2.9309    0.0000 C   0  0  0  0  0  0  0  0  0  0  0  0
    2.0367   -1.7635    0.0000 C   0  0  0  0  0  0  0  0  0  0  0  0
    1.0101   -3.5104    0.0000 C   0  0  0  0  0  0  0  0  0  0  0  0
    0.0000   -2.9309    0.0000 C   0  0  0  0  0  0  0  0  0  0  0  0
    1.0101   -1.1674    0.0000 C   0  0  0  0  0  0  0  0  0  0  0  0
    0.0000   -1.7635    0.0000 C   0  0  0  0  0  0  0  0  0  0  0  0
    5.0752    0.0000    0.0000 N   0  0  0  0  0  0  0  0  0  0  0  0
    3.0468   -1.1674    0.0000 C   0  0  0  0  0  0  0  0  0  0  0  0
    3.0468    0.0000    0.0000 C   0  0  0  0  0  0  0  0  0  0  0  0
    7.2692    0.0000    0.0000 C   0  0  0  0  0  0  0  0  0  0  0  0
    2.0367   -5.2905    0.0000 O   0  0  0  0  0  0  0  0  0  0  0  0
    5.0752   -5.8618    0.0000 H   0  0  0  0  0  0  0  0  0  0  0  0
    4.0651   -4.1148    0.0000 H   0  0  0  0  0  0  0  0  0  0  0  0
    6.1019   -4.1148    0.0000 H   0  0  0  0  0  0  0  0  0  0  0  0
    5.0752   -2.3513    0.0000 H   0  0  0  0  0  0  0  0  0  0  0  0
    7.2692   -2.9309    0.0000 C   0  0  0  0  0  0  0  0  0  0  0  0
    8.2793   -3.5104    0.0000 C   0  0  0  0  0  0  0  0  0  0  0  0
    8.2793   -4.6944    0.0000 C   0  0  0  0  0  0  0  0  0  0  0  0
    6.6566   -5.3650    0.0000 O   0  0  0  0  0  0  0  0  0  0  0  0
    6.1184   -0.5878    0.0000 H   0  0  0  0  0  0  0  0  0  0  0  0
  1 26  1  0  0  0  0
  1  8  1  0  0  0  0
  1 24  1  6  0  0  0
  1  2  1  0  0  0  0
  2  4  1  0  0  0  0
  2 25  1  6  0  0  0
  2  3  1  0  0  0  0
  3  6  1  0  0  0  0
  3 22  1  6  0  0  0
  3 29  1  0  0  0  0
  4  5  1  0  0  0  0
  4 10  1  0  0  0  0
  4 23  1  1  0  0  0
  5  7  1  0  0  0  0
  5 11  1  0  0  0  0
  6  7  1  0  0  0  0
  7 21  2  0  0  0  0
  8  9  1  0  0  0  0
  9 17  1  0  0  0  0
  9 10  1  0  0  0  0
  9 30  1  6  0  0  0
 10 12  1  0  0  0  0
 10 18  1  1  0  0  0
 11 13  1  0  0  0  0
 11 12  2  0  0  0  0
 12 15  1  0  0  0  0
 13 14  2  0  0  0  0
 14 16  1  0  0  0  0
 15 16  2  0  0  0  0
 17 19  1  0  0  0  0
 17 20  1  0  0  0  0
 18 19  1  0  0  0  0
 20 26  1  0  0  0  0
 26 27  2  0  0  0  0
 27 28  1  0  0  0  0
 28 29  1  0  0  0  0
M  END
> <ID>
3219

> <Formula>
C21H22N2O2

> <FW>
334.4116

> <DSSTox_CID>
3600

> <DSSTox_RID>
77101

> <DSSTox_GSID>
23600

> <DSSTox_FileID_Sort>
1784

> <TS_ChemName>
Strychnine

> <TS_ChemName_Synonyms>
STR; Strychnidin-10-one

> <TS_CASRN>
57-24-9

> <CASRN_ChemName_Relationship>
primary

> <TS_Description>
single chemical compound

> <ChemNote>
stereochem

> <STRUCTURE_Shown>
tested chemical

> <STRUCTURE_Formula>
C21H22N2O2

> <STRUCTURE_MW>
334.4116

> <STRUCTURE_ChemType>
defined organic

> <STRUCTURE_DefinedOrganicForm>
parent

> <STRUCTURE_IUPAC>
strychnidin-10-one

> <STRUCTURE_SMILES>
O=C2C[C@@H]7OCC=C6CN4CC[C@@]53c1ccccc1N2[C@H]3[C@H]7[C@H]6C[C@H]45

> <STRUCTURE_SMILES_Desalt>
O=C2C[C@@H]7OCC=C6CN4CC[C@@]53c1ccccc1N2[C@H]3[C@H]7[C@H]6C[C@H]45

> <Substance_modify_yyyymmdd>
20080429

$$$$
