57-48-7
ChemmineR-0915142007XD

 12 12  0  0  1  0  0  0  0  0  1 V2000
    2.2564   -0.9962    0.0000 C   0  0  0  0  0  0  0  0  0  0  0  0
    3.3318   -0.2111    0.0000 O   0  0  0  0  0  0  0  0  0  0  0  0
    2.6589   -2.2432    0.0000 C   0  0  0  0  0  0  0  0  0  0  0  0
    4.4006   -0.9962    0.0000 C   0  0  0  0  0  0  0  0  0  0  0  0
    3.9850   -2.2432    0.0000 C   0  0  0  0  0  0  0  0  0  0  0  0
    4.7701   -3.3318    0.0000 O   0  0  0  0  0  0  0  0  0  0  0  0
    1.8737   -3.3318    0.0000 O   0  0  0  0  0  0  0  0  0  0  0  0
    1.0094   -0.5806    0.0000 C   0  0  0  0  0  0  0  0  0  0  0  0
    0.0000   -1.4581    0.0000 O   0  0  0  0  0  0  0  0  0  0  0  0
    5.2979    0.0000    0.0000 C   0  0  0  0  0  0  0  0  0  0  0  0
    5.7004   -1.3327    0.0000 O   0  0  0  0  0  0  0  0  0  0  0  0
    6.5977   -0.2903    0.0000 O   0  0  0  0  0  0  0  0  0  0  0  0
  1  2  1  0  0  0  0
  1  3  1  0  0  0  0
  1  8  1  1  0  0  0
  2  4  1  0  0  0  0
  3  5  1  0  0  0  0
  3  7  1  6  0  0  0
  4  5  1  0  0  0  0
  4 10  1  6  0  0  0
  4 11  1  1  0  0  0
  5  6  1  1  0  0  0
  8  9  1  0  0  0  0
 10 12  1  0  0  0  0
M  END
> <ID>
2770

> <Formula>
C6H12O6

> <FW>
180.1559

> <DSSTox_CID>
3081

> <DSSTox_RID>
76866

> <DSSTox_GSID>
23081

> <DSSTox_FileID_Sort>
1550

> <TS_ChemName>
D-Fructose

> <TS_ChemName_Synonyms>
Fructose, furanose form (D-Fructose)

> <TS_CASRN>
57-48-7

> <CASRN_ChemName_Relationship>
primary

> <TS_Description>
single chemical compound

> <ChemNote>
stereochem

> <STRUCTURE_Shown>
tested chemical

> <STRUCTURE_Formula>
C6H12O6

> <STRUCTURE_MW>
180.1559

> <STRUCTURE_ChemType>
defined organic

> <STRUCTURE_DefinedOrganicForm>
parent

> <STRUCTURE_IUPAC>
beta-D-fructofuranose

> <STRUCTURE_SMILES>
O[C@H]1[C@H](O)[C@@H](CO)O[C@]1(O)CO

> <STRUCTURE_SMILES_Desalt>
O[C@H]1[C@H](O)[C@@H](CO)O[C@]1(O)CO

> <Substance_modify_yyyymmdd>
20080429

$$$$
