57-41-0
ChemmineR-0915142007XD

 19 21  0  0  0  0  0  0  0  0  1 V2000
    3.2769   -5.7981    0.0000 O   0  0  0  0  0  0  0  0  0  0  0  0
    4.0538   -4.7247    0.0000 C   0  0  0  0  0  0  0  0  0  0  0  0
    3.6441   -3.4535    0.0000 C   0  0  0  0  0  0  0  0  0  0  0  0
    2.4294   -3.9973    0.0000 C   0  0  0  0  0  0  0  0  0  0  0  0
    2.2882   -5.3179    0.0000 C   0  0  0  0  0  0  0  0  0  0  0  0
    1.0735   -5.8617    0.0000 C   0  0  0  0  0  0  0  0  0  0  0  0
    0.0000   -5.0778    0.0000 C   0  0  0  0  0  0  0  0  0  0  0  0
    0.1412   -3.7571    0.0000 C   0  0  0  0  0  0  0  0  0  0  0  0
    1.3560   -3.2133    0.0000 C   0  0  0  0  0  0  0  0  0  0  0  0
    2.9803   -2.3023    0.0000 C   0  0  0  0  0  0  0  0  0  0  0  0
    1.6526   -2.3023    0.0000 C   0  0  0  0  0  0  0  0  0  0  0  0
    0.9817   -1.1512    0.0000 C   0  0  0  0  0  0  0  0  0  0  0  0
    1.6526    0.0000    0.0000 C   0  0  0  0  0  0  0  0  0  0  0  0
    2.9803    0.0000    0.0000 C   0  0  0  0  0  0  0  0  0  0  0  0
    3.6441   -1.1512    0.0000 C   0  0  0  0  0  0  0  0  0  0  0  0
    4.7247   -2.6766    0.0000 N   0  0  0  0  0  0  0  0  0  0  0  0
    5.7981   -3.4535    0.0000 C   0  0  0  0  0  0  0  0  0  0  0  0
    7.0623   -3.0438    0.0000 O   0  0  0  0  0  0  0  0  0  0  0  0
    5.3885   -4.7247    0.0000 N   0  0  0  0  0  0  0  0  0  0  0  0
  1  2  2  0  0  0  0
  2  3  1  0  0  0  0
  2 19  1  0  0  0  0
  3  4  1  0  0  0  0
  3 10  1  0  0  0  0
  3 16  1  0  0  0  0
  4  5  2  0  0  0  0
  4  9  1  0  0  0  0
  5  6  1  0  0  0  0
  6  7  2  0  0  0  0
  7  8  1  0  0  0  0
  8  9  2  0  0  0  0
 10 11  2  0  0  0  0
 10 15  1  0  0  0  0
 11 12  1  0  0  0  0
 12 13  2  0  0  0  0
 13 14  1  0  0  0  0
 14 15  2  0  0  0  0
 16 17  1  0  0  0  0
 17 18  2  0  0  0  0
 17 19  1  0  0  0  0
M  END
> <ID>
520

> <Formula>
C15H12N2O2

> <FW>
252.268

> <DSSTox_CID>
541

> <DSSTox_RID>
75650

> <DSSTox_GSID>
20541

> <DSSTox_FileID_Sort>
334

> <TS_ChemName>
5,5-Diphenylhydantoin

> <TS_ChemName_Synonyms>
5,5-Diphenylhydantoin (phenytoin) (Diphenylhydantoin)

> <TS_CASRN>
57-41-0

> <CASRN_ChemName_Relationship>
primary

> <TS_Description>
single chemical compound

> <ChemNote>


> <STRUCTURE_Shown>
tested chemical

> <STRUCTURE_Formula>
C15H12N2O2

> <STRUCTURE_MW>
252.268

> <STRUCTURE_ChemType>
defined organic

> <STRUCTURE_DefinedOrganicForm>
parent

> <STRUCTURE_IUPAC>
5,5-diphenylimidazolidine-2,4-dione

> <STRUCTURE_SMILES>
O=C1NC(=O)C(N1)(c2ccccc2)c3ccccc3

> <STRUCTURE_SMILES_Desalt>
O=C1NC(=O)C(N1)(c2ccccc2)c3ccccc3

> <Substance_modify_yyyymmdd>
20080429

$$$$
