57-47-6
ChemmineR-0915142007XD

 21 23  0  0  1  0  0  0  0  0  1 V2000
    7.6092   -3.1102    0.0000 C   0  0  0  0  0  0  0  0  0  0  0  0
    6.5138   -1.2617    0.0000 N   0  0  0  0  0  0  0  0  0  0  0  0
    7.6092   -1.8681    0.0000 C   0  0  0  0  0  0  0  0  0  0  0  0
    5.4477   -3.1102    0.0000 C   0  0  0  0  0  0  0  0  0  0  0  0
    5.4477   -1.8681    0.0000 C   0  0  0  0  0  0  0  0  0  0  0  0
    8.6850   -1.2617    0.0000 N   0  0  0  0  0  0  0  0  0  0  0  0
    9.7804   -3.1102    0.0000 C   0  0  0  0  0  0  0  0  0  0  0  0
    1.0954   -3.1102    0.0000 C   0  0  0  0  0  0  0  0  0  0  0  0
    4.3621   -1.2617    0.0000 C   0  0  0  0  0  0  0  0  0  0  0  0
    4.3621   -3.7459    0.0000 C   0  0  0  0  0  0  0  0  0  0  0  0
    9.7804   -1.8681    0.0000 C   0  0  0  0  0  0  0  0  0  0  0  0
    2.1908   -3.7459    0.0000 O   0  0  0  0  0  0  0  0  0  0  0  0
    3.2764   -3.1102    0.0000 C   0  0  0  0  0  0  0  0  0  0  0  0
    0.0000   -3.7361    0.0000 O   0  0  0  0  0  0  0  0  0  0  0  0
    1.0954   -1.8485    0.0000 N   0  0  0  0  0  0  0  0  0  0  0  0
    6.5138    0.0000    0.0000 C   0  0  0  0  0  0  0  0  0  0  0  0
    7.6287   -4.3719    0.0000 C   0  0  0  0  0  0  0  0  0  0  0  0
    3.2764   -1.8681    0.0000 C   0  0  0  0  0  0  0  0  0  0  0  0
    8.6850    0.0000    0.0000 C   0  0  0  0  0  0  0  0  0  0  0  0
    2.1713   -1.2421    0.0000 C   0  0  0  0  0  0  0  0  0  0  0  0
    7.5896   -0.6162    0.0000 H   0  0  0  0  0  0  0  0  0  0  0  0
  1  3  1  0  0  0  0
  1  4  1  0  0  0  0
  1  7  1  0  0  0  0
  1 17  1  6  0  0  0
  2  3  1  0  0  0  0
  2 16  1  0  0  0  0
  2  5  1  0  0  0  0
  3  6  1  0  0  0  0
  3 21  1  6  0  0  0
  4  5  2  0  0  0  0
  4 10  1  0  0  0  0
  5  9  1  0  0  0  0
  6 19  1  0  0  0  0
  6 11  1  0  0  0  0
  7 11  1  0  0  0  0
  8 12  1  0  0  0  0
  8 14  2  0  0  0  0
  8 15  1  0  0  0  0
  9 18  2  0  0  0  0
 10 13  2  0  0  0  0
 12 13  1  0  0  0  0
 13 18  1  0  0  0  0
 15 20  1  0  0  0  0
M  END
> <ID>
3111

> <Formula>
C15H21N3O2

> <FW>
275.3461

> <DSSTox_CID>
3471

> <DSSTox_RID>
77040

> <DSSTox_GSID>
23471

> <DSSTox_FileID_Sort>
1723

> <TS_ChemName>
Physostigmine

> <TS_ChemName_Synonyms>


> <TS_CASRN>
57-47-6

> <CASRN_ChemName_Relationship>
primary

> <TS_Description>
single chemical compound

> <ChemNote>
stereochem

> <STRUCTURE_Shown>
tested chemical

> <STRUCTURE_Formula>
C15H21N3O2

> <STRUCTURE_MW>
275.3461

> <STRUCTURE_ChemType>
defined organic

> <STRUCTURE_DefinedOrganicForm>
parent

> <STRUCTURE_IUPAC>
(3aS,8aR)-1,3a,8-trimethyl-1,2,3,3a,8,8a-hexahydropyrrolo[2,3-b]indol-5-yl methylcarbamate

> <STRUCTURE_SMILES>
CNC(=O)Oc1cc2c(cc1)N(C)[C@H]3N(C)CC[C@@]23C

> <STRUCTURE_SMILES_Desalt>
CNC(=O)Oc1cc2c(cc1)N(C)[C@H]3N(C)CC[C@@]23C

> <Substance_modify_yyyymmdd>
20080429

$$$$
