57-63-6
ChemmineR-0915142007XD

 25 28  0  0  1  0  0  0  0  0  1 V2000
    6.9859   -1.7358    0.0000 C   0  0  0  0  0  0  0  0  0  0  0  0
    6.9859   -3.0776    0.0000 C   0  0  0  0  0  0  0  0  0  0  0  0
    5.8145   -3.7485    0.0000 C   0  0  0  0  0  0  0  0  0  0  0  0
    4.6644   -3.0883    0.0000 C   0  0  0  0  0  0  0  0  0  0  0  0
    3.5036   -3.7698    0.0000 C   0  0  0  0  0  0  0  0  0  0  0  0
    8.2425   -1.3099    0.0000 C   0  0  0  0  0  0  0  0  0  0  0  0
    3.5036   -5.1116    0.0000 C   0  0  0  0  0  0  0  0  0  0  0  0
    9.5736   -1.3737    0.0000 C   0  0  0  0  0  0  0  0  0  0  0  0
    5.8145   -1.0756    0.0000 C   0  0  0  0  0  0  0  0  0  0  0  0
    4.6644   -1.7358    0.0000 C   0  0  0  0  0  0  0  0  0  0  0  0
    8.2425   -3.4929    0.0000 C   0  0  0  0  0  0  0  0  0  0  0  0
    5.8145   -5.1116    0.0000 C   0  0  0  0  0  0  0  0  0  0  0  0
   10.6492   -1.3737    0.0000 C   0  0  0  0  0  0  0  0  0  0  0  0
    2.3428   -3.0989    0.0000 C   0  0  0  0  0  0  0  0  0  0  0  0
    4.6644   -5.7719    0.0000 C   0  0  0  0  0  0  0  0  0  0  0  0
    9.0305   -2.3961    0.0000 C   0  0  0  0  0  0  0  0  0  0  0  0
    2.3428   -5.7719    0.0000 C   0  0  0  0  0  0  0  0  0  0  0  0
    1.1927   -5.1010    0.0000 C   0  0  0  0  0  0  0  0  0  0  0  0
    8.4342    0.0000    0.0000 O   0  0  0  0  0  0  0  0  0  0  0  0
    1.1927   -3.7698    0.0000 C   0  0  0  0  0  0  0  0  0  0  0  0
    6.9859   -0.3940    0.0000 C   0  0  0  0  0  0  0  0  0  0  0  0
    0.0000   -5.7612    0.0000 O   0  0  0  0  0  0  0  0  0  0  0  0
    6.9859   -4.4194    0.0000 H   0  0  0  0  0  0  0  0  0  0  0  0
    4.6644   -4.4301    0.0000 H   0  0  0  0  0  0  0  0  0  0  0  0
    5.8145   -2.3961    0.0000 H   0  0  0  0  0  0  0  0  0  0  0  0
  1  2  1  0  0  0  0
  1  6  1  0  0  0  0
  1  9  1  0  0  0  0
  1 21  1  1  0  0  0
  2  3  1  0  0  0  0
  2 11  1  0  0  0  0
  2 23  1  6  0  0  0
  3 12  1  0  0  0  0
  3 25  1  1  0  0  0
  3  4  1  0  0  0  0
  4 10  1  0  0  0  0
  4  5  1  0  0  0  0
  4 24  1  6  0  0  0
  5  7  1  0  0  0  0
  5 14  2  0  0  0  0
  6  8  1  6  0  0  0
  6 16  1  0  0  0  0
  6 19  1  1  0  0  0
  7 17  2  0  0  0  0
  7 15  1  0  0  0  0
  8 13  3  0  0  0  0
  9 10  1  0  0  0  0
 11 16  1  0  0  0  0
 12 15  1  0  0  0  0
 14 20  1  0  0  0  0
 17 18  1  0  0  0  0
 18 20  2  0  0  0  0
 18 22  1  0  0  0  0
M  END
> <ID>
551

> <Formula>
C20H24O2

> <FW>
296.4034

> <DSSTox_CID>
576

> <DSSTox_RID>
75668

> <DSSTox_GSID>
20576

> <DSSTox_FileID_Sort>
352

> <TS_ChemName>
17alpha-Ethinylestradiol

> <TS_ChemName_Synonyms>
Ethinyl estradiol; EE; EE2

> <TS_CASRN>
57-63-6

> <CASRN_ChemName_Relationship>
primary

> <TS_Description>
single chemical compound

> <ChemNote>
stereochem

> <STRUCTURE_Shown>
tested chemical

> <STRUCTURE_Formula>
C20H24O2

> <STRUCTURE_MW>
296.4034

> <STRUCTURE_ChemType>
defined organic

> <STRUCTURE_DefinedOrganicForm>
parent

> <STRUCTURE_IUPAC>
(17beta)-17-ethynylestra-1(10),2,4-triene-3,17-diol

> <STRUCTURE_SMILES>
Oc3cc4CC[C@@H]2[C@H](CC[C@@]1(C)[C@H]2CC[C@@]1(O)C#C)c4cc3

> <STRUCTURE_SMILES_Desalt>
Oc3cc4CC[C@@H]2[C@H](CC[C@@]1(C)[C@H]2CC[C@@]1(O)C#C)c4cc3

> <Substance_modify_yyyymmdd>
20080429

$$$$
