57-74-9
ChemmineR-0915142007XD

 20 22  0  0  1  0  0  0  0  0  1 V2000
    1.2846   -3.3851    0.0000 C    0  0  0  0  0  0  0  0  0  0  0  0
    3.3204   -2.2136    0.0000 C    0  0  0  0  0  0  0  0  0  0  0  0
    4.4596   -2.5287    0.0000 C    0  0  0  0  0  0  0  0  0  0  0  0
    2.6014   -3.0296    0.0000 C    0  0  0  0  0  0  0  0  0  0  0  0
    3.9425   -3.3851    0.0000 C    0  0  0  0  0  0  0  0  0  0  0  0
    5.8734   -2.1409    0.0000 C    0  0  0  0  0  0  0  0  0  0  0  0
    7.0044   -2.8519    0.0000 C    0  0  0  0  0  0  0  0  0  0  0  0
    6.3824   -3.6840    0.0000 C    0  0  0  0  0  0  0  0  0  0  0  0
    5.3563   -3.2154    0.0000 C    0  0  0  0  0  0  0  0  0  0  0  0
    4.5161   -4.3061    0.0000 Cl   0  0  0  0  0  0  0  0  0  0  0  0
    5.5502   -1.1149    0.0000 C    0  0  0  0  0  0  0  0  0  0  0  0
    6.1319   -0.1535    0.0000 Cl   0  0  0  0  0  0  0  0  0  0  0  0
    4.6292    0.0000    0.0000 Cl   0  0  0  0  0  0  0  0  0  0  0  0
    6.6651   -1.2846    0.0000 Cl   0  0  0  0  0  0  0  0  0  0  0  0
    8.0789   -2.3106    0.0000 Cl   0  0  0  0  0  0  0  0  0  0  0  0
    7.0044   -4.6292    0.0000 Cl   0  0  0  0  0  0  0  0  0  0  0  0
    2.0359   -4.1364    0.0000 Cl   0  0  0  0  0  0  0  0  0  0  0  0
    0.0000   -2.4722    0.0000 Cl   0  0  0  0  0  0  0  0  0  0  0  0
    3.2639   -4.3626    0.0000 H    0  0  0  0  0  0  0  0  0  0  0  0
    4.8716   -1.6804    0.0000 H    0  0  0  0  0  0  0  0  0  0  0  0
  1  2  1  0  0  0  0
  1  4  1  0  0  0  0
  1 18  1  0  0  0  0
  2  3  1  0  0  0  0
  3  5  1  0  0  0  0
  3  6  1  0  0  0  0
  3 20  1  1  0  0  0
  4  5  1  0  0  0  0
  4 17  1  6  0  0  0
  5  9  1  0  0  0  0
  5 19  1  1  0  0  0
  6  7  1  0  0  0  0
 11  6  1  6  0  0  0
  6 14  1  0  0  0  0
  7  8  2  0  0  0  0
  7 15  1  0  0  0  0
  8  9  1  0  0  0  0
  8 16  1  0  0  0  0
  9 11  1  6  0  0  0
  9 10  1  0  0  0  0
 11 12  1  0  0  0  0
 11 13  1  0  0  0  0
M  END
> <ID>
259

> <Formula>
C10H6Cl8

> <FW>
409.7786

> <DSSTox_CID>
267

> <DSSTox_RID>
75475

> <DSSTox_GSID>
20267

> <DSSTox_FileID_Sort>
159

> <TS_ChemName>
Chlordane

> <TS_ChemName_Synonyms>


> <TS_CASRN>
57-74-9

> <CASRN_ChemName_Relationship>
primary

> <TS_Description>
single chemical compound

> <ChemNote>
stereochem

> <STRUCTURE_Shown>
tested chemical

> <STRUCTURE_Formula>
C10H6Cl8

> <STRUCTURE_MW>
409.7786

> <STRUCTURE_ChemType>
defined organic

> <STRUCTURE_DefinedOrganicForm>
parent

> <STRUCTURE_IUPAC>
(1R,3aS,4R,7S,7aS)-1,2,4,5,6,7,8,8-octachloro-2,3,3a,4,7,7a-hexahydro-1H-4,7-methanoindene

> <STRUCTURE_SMILES>
ClC2=C(Cl)C3(Cl)[C@H]1CC(Cl)[C@H](Cl)[C@H]1[C@@]2(Cl)[C@]3(Cl)Cl

> <STRUCTURE_SMILES_Desalt>
ClC2=C(Cl)C3(Cl)[C@H]1CC(Cl)[C@H](Cl)[C@H]1[C@@]2(Cl)[C@]3(Cl)Cl

> <Substance_modify_yyyymmdd>
20080815

$$$$
