57-83-0
ChemmineR-0915142007XD

 26 29  0  0  1  0  0  0  0  0  1 V2000
    6.9098   -2.7021    0.0000 C   0  0  0  0  0  0  0  0  0  0  0  0
    6.9098   -4.0282    0.0000 C   0  0  0  0  0  0  0  0  0  0  0  0
    5.7631   -4.6963    0.0000 C   0  0  0  0  0  0  0  0  0  0  0  0
    5.7631   -6.0224    0.0000 C   0  0  0  0  0  0  0  0  0  0  0  0
    4.6065   -6.6904    0.0000 C   0  0  0  0  0  0  0  0  0  0  0  0
    3.4599   -6.0224    0.0000 C   0  0  0  0  0  0  0  0  0  0  0  0
    3.4599   -4.6963    0.0000 C   0  0  0  0  0  0  0  0  0  0  0  0
    4.6065   -4.0282    0.0000 C   0  0  0  0  0  0  0  0  0  0  0  0
    4.6065   -2.7021    0.0000 C   0  0  0  0  0  0  0  0  0  0  0  0
    5.7631   -2.0340    0.0000 C   0  0  0  0  0  0  0  0  0  0  0  0
    2.3033   -4.0282    0.0000 C   0  0  0  0  0  0  0  0  0  0  0  0
    1.1566   -4.6963    0.0000 C   0  0  0  0  0  0  0  0  0  0  0  0
    1.1566   -6.0224    0.0000 C   0  0  0  0  0  0  0  0  0  0  0  0
    0.0000   -6.6904    0.0000 O   0  0  0  0  0  0  0  0  0  0  0  0
    2.3033   -6.6904    0.0000 C   0  0  0  0  0  0  0  0  0  0  0  0
    8.1761   -4.4370    0.0000 C   0  0  0  0  0  0  0  0  0  0  0  0
    8.9638   -3.3602    0.0000 C   0  0  0  0  0  0  0  0  0  0  0  0
    8.1761   -2.2933    0.0000 C   0  0  0  0  0  0  0  0  0  0  0  0
    8.5849   -1.0270    0.0000 C   0  0  0  0  0  0  0  0  0  0  0  0
    6.9197   -1.3062    0.0000 C   0  0  0  0  0  0  0  0  0  0  0  0
    5.7631   -3.4998    0.0000 H   0  0  0  0  0  0  0  0  0  0  0  0
    4.6065   -5.4042    0.0000 H   0  0  0  0  0  0  0  0  0  0  0  0
    6.9796   -5.4042    0.0000 H   0  0  0  0  0  0  0  0  0  0  0  0
    3.4599   -3.2305    0.0000 C   0  0  0  0  0  0  0  0  0  0  0  0
    8.1561    0.0000    0.0000 O   0  0  0  0  0  0  0  0  0  0  0  0
    9.9708   -1.0270    0.0000 C   0  0  0  0  0  0  0  0  0  0  0  0
  1  2  1  0  0  0  0
  1 10  1  0  0  0  0
  1 18  1  0  0  0  0
  1 20  1  1  0  0  0
  2  3  1  0  0  0  0
  2 16  1  0  0  0  0
  2 23  1  6  0  0  0
  3  4  1  0  0  0  0
  3  8  1  0  0  0  0
  3 21  1  1  0  0  0
  4  5  1  0  0  0  0
  5  6  1  0  0  0  0
  6  7  1  0  0  0  0
  6 15  2  0  0  0  0
  7  8  1  0  0  0  0
  7 11  1  0  0  0  0
  7 24  1  1  0  0  0
  8  9  1  0  0  0  0
  8 22  1  6  0  0  0
  9 10  1  0  0  0  0
 11 12  1  0  0  0  0
 12 13  1  0  0  0  0
 13 14  2  0  0  0  0
 13 15  1  0  0  0  0
 16 17  1  0  0  0  0
 17 18  1  0  0  0  0
 18 19  1  1  0  0  0
 19 25  2  0  0  0  0
 19 26  1  0  0  0  0
M  END
> <ID>
2178

> <Formula>
C21H30O2

> <FW>
314.4617

> <DSSTox_CID>
2370

> <DSSTox_RID>
76562

> <DSSTox_GSID>
22370

> <DSSTox_FileID_Sort>
1246

> <TS_ChemName>
Progesterone

> <TS_ChemName_Synonyms>
Progesterone (P)

> <TS_CASRN>
57-83-0

> <CASRN_ChemName_Relationship>
primary

> <TS_Description>
single chemical compound

> <ChemNote>
stereochem

> <STRUCTURE_Shown>
tested chemical

> <STRUCTURE_Formula>
C21H30O2

> <STRUCTURE_MW>
314.4617

> <STRUCTURE_ChemType>
defined organic

> <STRUCTURE_DefinedOrganicForm>
parent

> <STRUCTURE_IUPAC>
pregn-4-ene-3,20-dione

> <STRUCTURE_SMILES>
CC(=O)[C@H]2CC[C@H]3[C@@H]4CCC1=CC(=O)CC[C@]1(C)[C@H]4CC[C@]23C

> <STRUCTURE_SMILES_Desalt>
CC(=O)[C@H]2CC[C@H]3[C@@H]4CCC1=CC(=O)CC[C@]1(C)[C@H]4CC[C@]23C

> <Substance_modify_yyyymmdd>
20080429

$$$$
