57-85-2
ChemmineR-0915142007XD

 28 31  0  0  1  0  0  0  0  0  1 V2000
    3.4732   -5.8515    0.0000 C   0  0  0  0  0  0  0  0  0  0  0  0
    6.9374   -3.8501    0.0000 C   0  0  0  0  0  0  0  0  0  0  0  0
    3.4732   -7.1797    0.0000 C   0  0  0  0  0  0  0  0  0  0  0  0
    4.6130   -5.1963    0.0000 C   0  0  0  0  0  0  0  0  0  0  0  0
    6.9374   -5.1963    0.0000 C   0  0  0  0  0  0  0  0  0  0  0  0
    5.7886   -5.8515    0.0000 C   0  0  0  0  0  0  0  0  0  0  0  0
    8.2028   -3.4283    0.0000 C   0  0  0  0  0  0  0  0  0  0  0  0
    2.3244   -7.8349    0.0000 C   0  0  0  0  0  0  0  0  0  0  0  0
    5.7886   -3.1770    0.0000 C   0  0  0  0  0  0  0  0  0  0  0  0
    4.6130   -3.8501    0.0000 C   0  0  0  0  0  0  0  0  0  0  0  0
    2.3244   -5.1963    0.0000 C   0  0  0  0  0  0  0  0  0  0  0  0
    5.7886   -7.1797    0.0000 C   0  0  0  0  0  0  0  0  0  0  0  0
    8.2028   -5.5643    0.0000 C   0  0  0  0  0  0  0  0  0  0  0  0
    8.2028   -1.9385    0.0000 O   0  0  0  0  0  0  0  0  0  0  0  0
    7.1169   -1.2834    0.0000 C   0  0  0  0  0  0  0  0  0  0  0  0
    4.6130   -7.8349    0.0000 C   0  0  0  0  0  0  0  0  0  0  0  0
    1.1667   -7.1797    0.0000 C   0  0  0  0  0  0  0  0  0  0  0  0
    8.9746   -4.5232    0.0000 C   0  0  0  0  0  0  0  0  0  0  0  0
    7.1169    0.0000    0.0000 O   0  0  0  0  0  0  0  0  0  0  0  0
    0.0000   -7.8528    0.0000 O   0  0  0  0  0  0  0  0  0  0  0  0
    1.1667   -5.8515    0.0000 C   0  0  0  0  0  0  0  0  0  0  0  0
    3.4732   -4.5232    0.0000 C   0  0  0  0  0  0  0  0  0  0  0  0
    6.9374   -2.5129    0.0000 C   0  0  0  0  0  0  0  0  0  0  0  0
    6.0130   -1.9385    0.0000 C   0  0  0  0  0  0  0  0  0  0  0  0
    4.8912   -1.2654    0.0000 C   0  0  0  0  0  0  0  0  0  0  0  0
    5.7886   -4.5232    0.0000 H   0  0  0  0  0  0  0  0  0  0  0  0
    4.6130   -6.5246    0.0000 H   0  0  0  0  0  0  0  0  0  0  0  0
    6.9374   -6.5246    0.0000 H   0  0  0  0  0  0  0  0  0  0  0  0
  1  3  1  0  0  0  0
  1  4  1  0  0  0  0
  1 11  1  0  0  0  0
  1 22  1  1  0  0  0
  2  9  1  0  0  0  0
  2  7  1  0  0  0  0
  2 23  1  1  0  0  0
  2  5  1  0  0  0  0
  3  8  2  0  0  0  0
  3 16  1  0  0  0  0
  4  6  1  0  0  0  0
  4 10  1  0  0  0  0
  4 27  1  6  0  0  0
  5  6  1  0  0  0  0
  5 13  1  0  0  0  0
  5 28  1  6  0  0  0
  6 12  1  0  0  0  0
  6 26  1  1  0  0  0
  7 14  1  1  0  0  0
  7 18  1  0  0  0  0
  8 17  1  0  0  0  0
  9 10  1  0  0  0  0
 11 21  1  0  0  0  0
 12 16  1  0  0  0  0
 13 18  1  0  0  0  0
 14 15  1  0  0  0  0
 15 19  2  0  0  0  0
 15 24  1  0  0  0  0
 17 21  1  0  0  0  0
 17 20  2  0  0  0  0
 24 25  1  0  0  0  0
M  END
> <ID>
7137

> <Formula>
C22H32O3

> <FW>
344.4877

> <DSSTox_CID>
16515

> <DSSTox_RID>
79286

> <DSSTox_GSID>
36515

> <DSSTox_FileID_Sort>
3968

> <TS_ChemName>
Testosterone propionate

> <TS_ChemName_Synonyms>


> <TS_CASRN>
57-85-2

> <CASRN_ChemName_Relationship>
primary

> <TS_Description>
single chemical compound

> <ChemNote>
stereochem

> <STRUCTURE_Shown>
tested chemical

> <STRUCTURE_Formula>
C22H32O3

> <STRUCTURE_MW>
344.4877

> <STRUCTURE_ChemType>
defined organic

> <STRUCTURE_DefinedOrganicForm>
parent

> <STRUCTURE_IUPAC>
(17beta)-3-oxoandrost-4-en-17-yl propanoate

> <STRUCTURE_SMILES>
CCC(=O)O[C@H]2CC[C@H]3[C@@H]4CCC1=CC(=O)CC[C@]1(C)[C@H]4CC[C@]23C

> <STRUCTURE_SMILES_Desalt>
CCC(=O)O[C@H]2CC[C@H]3[C@@H]4CCC1=CC(=O)CC[C@]1(C)[C@H]4CC[C@]23C

> <Substance_modify_yyyymmdd>
20080429

$$$$
