57-88-5
ChemmineR-0915142007XD

 32 35  0  0  1  0  0  0  0  0  1 V2000
    6.9177   -2.5143    0.0000 C   0  0  0  0  0  0  0  0  0  0  0  0
    3.4727   -4.4729    0.0000 C   0  0  0  0  0  0  0  0  0  0  0  0
    3.4727   -5.8064    0.0000 C   0  0  0  0  0  0  0  0  0  0  0  0
    6.9177   -3.8339    0.0000 C   0  0  0  0  0  0  0  0  0  0  0  0
    4.6257   -3.8339    0.0000 C   0  0  0  0  0  0  0  0  0  0  0  0
    5.7786   -4.4729    0.0000 C   0  0  0  0  0  0  0  0  0  0  0  0
    8.1679   -2.0975    0.0000 C   0  0  0  0  0  0  0  0  0  0  0  0
    4.6257   -6.4593    0.0000 C   0  0  0  0  0  0  0  0  0  0  0  0
    5.7786   -1.8197    0.0000 C   0  0  0  0  0  0  0  0  0  0  0  0
    5.7786   -5.8064    0.0000 C   0  0  0  0  0  0  0  0  0  0  0  0
    4.6257   -2.5143    0.0000 C   0  0  0  0  0  0  0  0  0  0  0  0
    8.1679   -4.1951    0.0000 C   0  0  0  0  0  0  0  0  0  0  0  0
    2.3198   -3.8339    0.0000 C   0  0  0  0  0  0  0  0  0  0  0  0
    8.9458   -3.1532    0.0000 C   0  0  0  0  0  0  0  0  0  0  0  0
    2.3198   -6.4593    0.0000 C   0  0  0  0  0  0  0  0  0  0  0  0
    8.1679   -0.7779    0.0000 C   0  0  0  0  0  0  0  0  0  0  0  0
    6.9177   -1.1668    0.0000 C   0  0  0  0  0  0  0  0  0  0  0  0
    1.1668   -4.4729    0.0000 C   0  0  0  0  0  0  0  0  0  0  0  0
    1.1668   -5.8064    0.0000 C   0  0  0  0  0  0  0  0  0  0  0  0
    3.4727   -3.1532    0.0000 C   0  0  0  0  0  0  0  0  0  0  0  0
    0.0000   -6.4732    0.0000 O   0  0  0  0  0  0  0  0  0  0  0  0
   10.4460   -0.7640    0.0000 C   0  0  0  0  0  0  0  0  0  0  0  0
    9.2791   -0.0972    0.0000 C   0  0  0  0  0  0  0  0  0  0  0  0
    6.9871   -0.1667    0.0000 C   0  0  0  0  0  0  0  0  0  0  0  0
   11.5850   -0.0417    0.0000 C   0  0  0  0  0  0  0  0  0  0  0  0
   12.7519   -0.7223    0.0000 C   0  0  0  0  0  0  0  0  0  0  0  0
   13.8909    0.0000    0.0000 C   0  0  0  0  0  0  0  0  0  0  0  0
   12.7797   -2.1670    0.0000 C   0  0  0  0  0  0  0  0  0  0  0  0
    4.6257   -5.1674    0.0000 H   0  0  0  0  0  0  0  0  0  0  0  0
    5.7786   -3.1532    0.0000 H   0  0  0  0  0  0  0  0  0  0  0  0
    6.9177   -5.1674    0.0000 H   0  0  0  0  0  0  0  0  0  0  0  0
    8.1679   -3.4311    0.0000 H   0  0  0  0  0  0  0  0  0  0  0  0
  1  4  1  0  0  0  0
  1  7  1  0  0  0  0
  1  9  1  0  0  0  0
  1 17  1  1  0  0  0
  2  5  1  0  0  0  0
  2  3  1  0  0  0  0
  2 13  1  0  0  0  0
  2 20  1  1  0  0  0
  3 15  1  0  0  0  0
  3  8  2  0  0  0  0
  4  6  1  0  0  0  0
  4 12  1  0  0  0  0
  4 31  1  6  0  0  0
  5 11  1  0  0  0  0
  5  6  1  0  0  0  0
  5 29  1  6  0  0  0
  6 10  1  0  0  0  0
  6 30  1  1  0  0  0
  7 14  1  0  0  0  0
  7 16  1  0  0  0  0
  7 32  1  6  0  0  0
  8 10  1  0  0  0  0
  9 11  1  0  0  0  0
 12 14  1  0  0  0  0
 13 18  1  0  0  0  0
 15 19  1  0  0  0  0
 16 23  1  0  0  0  0
 16 24  1  6  0  0  0
 18 19  1  0  0  0  0
 19 21  1  1  0  0  0
 22 23  1  0  0  0  0
 22 25  1  0  0  0  0
 25 26  1  0  0  0  0
 26 27  1  0  0  0  0
 26 28  1  0  0  0  0
M  END
> <ID>
2202

> <Formula>
C27H46O

> <FW>
386.6535

> <DSSTox_CID>
2401

> <DSSTox_RID>
76573

> <DSSTox_GSID>
22401

> <DSSTox_FileID_Sort>
1257

> <TS_ChemName>
Cholesterol

> <TS_ChemName_Synonyms>


> <TS_CASRN>
57-88-5

> <CASRN_ChemName_Relationship>
primary

> <TS_Description>
single chemical compound

> <ChemNote>
stereochem

> <STRUCTURE_Shown>
tested chemical

> <STRUCTURE_Formula>
C27H46O

> <STRUCTURE_MW>
386.6535

> <STRUCTURE_ChemType>
defined organic

> <STRUCTURE_DefinedOrganicForm>
parent

> <STRUCTURE_IUPAC>
(3beta)-cholest-5-en-3-ol

> <STRUCTURE_SMILES>
CC(C)CCC[C@@H](C)[C@H]4CC[C@@H]3[C@]4(C)CC[C@H]2[C@H]3CC=C1C[C@@H](O)CC[C@@]12C

> <STRUCTURE_SMILES_Desalt>
CC(C)CCC[C@@H](C)[C@H]4CC[C@@H]3[C@]4(C)CC[C@H]2[C@H]3CC=C1C[C@@H](O)CC[C@@]12C

> <Substance_modify_yyyymmdd>
20080429

$$$$
