57-91-0
ChemmineR-0915142007XD

 23 26  0  0  1  0  0  0  0  0  1 V2000
    6.9113   -1.6831    0.0000 C   0  0  0  0  0  0  0  0  0  0  0  0
    6.9113   -3.0080    0.0000 C   0  0  0  0  0  0  0  0  0  0  0  0
    5.7564   -3.6705    0.0000 C   0  0  0  0  0  0  0  0  0  0  0  0
    5.7564   -5.0044    0.0000 C   0  0  0  0  0  0  0  0  0  0  0  0
    4.6015   -5.6669    0.0000 C   0  0  0  0  0  0  0  0  0  0  0  0
    3.4556   -5.0044    0.0000 C   0  0  0  0  0  0  0  0  0  0  0  0
    3.4556   -3.6705    0.0000 C   0  0  0  0  0  0  0  0  0  0  0  0
    4.6015   -3.0080    0.0000 C   0  0  0  0  0  0  0  0  0  0  0  0
    4.6015   -1.6831    0.0000 C   0  0  0  0  0  0  0  0  0  0  0  0
    5.7564   -1.0116    0.0000 C   0  0  0  0  0  0  0  0  0  0  0  0
    2.3008   -3.0080    0.0000 C   0  0  0  0  0  0  0  0  0  0  0  0
    1.1549   -3.6705    0.0000 C   0  0  0  0  0  0  0  0  0  0  0  0
    1.1549   -5.0044    0.0000 C   0  0  0  0  0  0  0  0  0  0  0  0
    0.0000   -5.6669    0.0000 O   0  0  0  0  0  0  0  0  0  0  0  0
    2.3008   -5.6669    0.0000 C   0  0  0  0  0  0  0  0  0  0  0  0
    8.1736   -3.4198    0.0000 C   0  0  0  0  0  0  0  0  0  0  0  0
    8.9524   -2.3455    0.0000 C   0  0  0  0  0  0  0  0  0  0  0  0
    8.1736   -1.2712    0.0000 C   0  0  0  0  0  0  0  0  0  0  0  0
    8.5854    0.0000    0.0000 O   0  0  0  0  0  0  0  0  0  0  0  0
    6.9113   -0.2865    0.0000 C   0  0  0  0  0  0  0  0  0  0  0  0
    5.7564   -2.4798    0.0000 H   0  0  0  0  0  0  0  0  0  0  0  0
    4.6015   -4.3777    0.0000 H   0  0  0  0  0  0  0  0  0  0  0  0
    6.9739   -4.3777    0.0000 H   0  0  0  0  0  0  0  0  0  0  0  0
  1  2  1  0  0  0  0
  1 10  1  0  0  0  0
  1 18  1  0  0  0  0
  1 20  1  1  0  0  0
  2  3  1  0  0  0  0
  2 16  1  0  0  0  0
  2 23  1  6  0  0  0
  3  4  1  0  0  0  0
  3  8  1  0  0  0  0
  3 21  1  1  0  0  0
  4  5  1  0  0  0  0
  5  6  1  0  0  0  0
  6  7  2  0  0  0  0
  6 15  1  0  0  0  0
  7  8  1  0  0  0  0
  7 11  1  0  0  0  0
  8  9  1  0  0  0  0
  8 22  1  6  0  0  0
  9 10  1  0  0  0  0
 11 12  2  0  0  0  0
 12 13  1  0  0  0  0
 13 14  1  0  0  0  0
 13 15  2  0  0  0  0
 16 17  1  0  0  0  0
 17 18  1  0  0  0  0
 18 19  1  6  0  0  0
M  END
> <ID>
2184

> <Formula>
C18H24O2

> <FW>
272.382

> <DSSTox_CID>
2377

> <DSSTox_RID>
76564

> <DSSTox_GSID>
22377

> <DSSTox_FileID_Sort>
1248

> <TS_ChemName>
17alpha-Estradiol

> <TS_ChemName_Synonyms>


> <TS_CASRN>
57-91-0

> <CASRN_ChemName_Relationship>
primary

> <TS_Description>
single chemical compound

> <ChemNote>
stereochem; same 2D structure beta form [50-28-2]

> <STRUCTURE_Shown>
tested chemical

> <STRUCTURE_Formula>
C18H24O2

> <STRUCTURE_MW>
272.382

> <STRUCTURE_ChemType>
defined organic

> <STRUCTURE_DefinedOrganicForm>
parent

> <STRUCTURE_IUPAC>
(17alpha)-estra-1,3,5(10)-triene-3,17-diol

> <STRUCTURE_SMILES>
Oc3cc4CC[C@@H]1[C@H](CC[C@]2(C)[C@H](O)CC[C@@H]12)c4cc3

> <STRUCTURE_SMILES_Desalt>
Oc3cc4CC[C@@H]1[C@H](CC[C@]2(C)[C@H](O)CC[C@@H]12)c4cc3

> <Substance_modify_yyyymmdd>
20080429

$$$$
