57-97-6
ChemmineR-0915142007XD

 20 23  0  0  0  0  0  0  0  0  1 V2000
    3.9937   -4.6075    0.0000 C   0  0  0  0  0  0  0  0  0  0  0  0
    4.6507   -3.4578    0.0000 C   0  0  0  0  0  0  0  0  0  0  0  0
    5.9819   -3.4578    0.0000 C   0  0  0  0  0  0  0  0  0  0  0  0
    6.6476   -4.6075    0.0000 C   0  0  0  0  0  0  0  0  0  0  0  0
    7.9788   -4.6075    0.0000 C   0  0  0  0  0  0  0  0  0  0  0  0
    8.6444   -3.4578    0.0000 C   0  0  0  0  0  0  0  0  0  0  0  0
    7.9788   -2.3081    0.0000 C   0  0  0  0  0  0  0  0  0  0  0  0
    6.6476   -2.3081    0.0000 C   0  0  0  0  0  0  0  0  0  0  0  0
    5.9819   -1.1497    0.0000 C   0  0  0  0  0  0  0  0  0  0  0  0
    4.6507   -1.1497    0.0000 C   0  0  0  0  0  0  0  0  0  0  0  0
    3.9937    0.0000    0.0000 C   0  0  0  0  0  0  0  0  0  0  0  0
    2.6625    0.0000    0.0000 C   0  0  0  0  0  0  0  0  0  0  0  0
    1.9969   -1.1497    0.0000 C   0  0  0  0  0  0  0  0  0  0  0  0
    2.6625   -2.3081    0.0000 C   0  0  0  0  0  0  0  0  0  0  0  0
    3.9937   -2.3081    0.0000 C   0  0  0  0  0  0  0  0  0  0  0  0
    1.9969   -3.4578    0.0000 C   0  0  0  0  0  0  0  0  0  0  0  0
    0.6656   -3.4578    0.0000 C   0  0  0  0  0  0  0  0  0  0  0  0
    0.0000   -2.3081    0.0000 C   0  0  0  0  0  0  0  0  0  0  0  0
    0.6656   -1.1497    0.0000 C   0  0  0  0  0  0  0  0  0  0  0  0
    6.6476    0.0000    0.0000 C   0  0  0  0  0  0  0  0  0  0  0  0
  1  2  1  0  0  0  0
  2  3  2  0  0  0  0
  2 15  1  0  0  0  0
  3  4  1  0  0  0  0
  3  8  1  0  0  0  0
  4  5  2  0  0  0  0
  5  6  1  0  0  0  0
  6  7  2  0  0  0  0
  7  8  1  0  0  0  0
  8  9  2  0  0  0  0
  9 10  1  0  0  0  0
  9 20  1  0  0  0  0
 10 11  2  0  0  0  0
 10 15  1  0  0  0  0
 11 12  1  0  0  0  0
 12 13  2  0  0  0  0
 13 14  1  0  0  0  0
 13 19  1  0  0  0  0
 14 15  2  0  0  0  0
 14 16  1  0  0  0  0
 16 17  2  0  0  0  0
 17 18  1  0  0  0  0
 18 19  2  0  0  0  0
M  END
> <ID>
493

> <Formula>
C20H16

> <FW>
256.341

> <DSSTox_CID>
510

> <DSSTox_RID>
75632

> <DSSTox_GSID>
20510

> <DSSTox_FileID_Sort>
316

> <TS_ChemName>
7,12-Dimethylbenz(a)anthracene

> <TS_ChemName_Synonyms>
DMBA; 7,12-Dimethylbenzanthracene

> <TS_CASRN>
57-97-6

> <CASRN_ChemName_Relationship>
primary

> <TS_Description>
single chemical compound

> <ChemNote>


> <STRUCTURE_Shown>
tested chemical

> <STRUCTURE_Formula>
C20H16

> <STRUCTURE_MW>
256.341

> <STRUCTURE_ChemType>
defined organic

> <STRUCTURE_DefinedOrganicForm>
parent

> <STRUCTURE_IUPAC>
7,12-dimethyltetraphene

> <STRUCTURE_SMILES>
Cc2c1c4ccccc4ccc1c(C)c3ccccc23

> <STRUCTURE_SMILES_Desalt>
Cc2c1c4ccccc4ccc1c(C)c3ccccc23

> <Substance_modify_yyyymmdd>
20080429

$$$$
