5700-49-2
ChemmineR-0915142007XD

  6  3  0  0  0  0  0  0  0  0  1 V2000
    3.2882    0.0000    0.0000 C   0  0  0  0  0  0  0  0  0  0  0  0
    4.4406   -0.6684    0.0000 C   0  0  0  0  0  0  0  0  0  0  0  0
    2.1435   -0.6684    0.0000 N   0  0  0  0  0  0  0  0  0  0  0  0
    5.5930    0.0000    0.0000 N   0  0  0  0  0  0  0  0  0  0  0  0
    0.0000   -0.4456    0.0000 I   0  0  0  0  0  0  0  0  0  0  0  0
    7.6827   -0.2535    0.0000 I   0  0  0  0  0  0  0  0  0  0  0  0
  1  2  1  0  0  0  0
  1  3  1  0  0  0  0
  2  4  1  0  0  0  0
M  END
> <ID>
10224

> <Formula>
C2H10I2N2

> <FW>
315.9231 (60.0983+127.9124+127.9124)

> <DSSTox_CID>
24570

> <DSSTox_RID>
80319

> <DSSTox_GSID>
44570

> <DSSTox_FileID_Sort>
5001

> <TS_ChemName>
1,2-Ethanediamine dihydriodide

> <TS_ChemName_Synonyms>
1,2-Ethanediamine, dihydriodide

> <TS_CASRN>
5700-49-2

> <CASRN_ChemName_Relationship>
primary

> <TS_Description>
single chemical compound

> <ChemNote>
parent [107-15-3]

> <STRUCTURE_Shown>
tested chemical

> <STRUCTURE_Formula>
C2H10I2N2

> <STRUCTURE_MW>
315.9231

> <STRUCTURE_ChemType>
defined organic

> <STRUCTURE_DefinedOrganicForm>
complex

> <STRUCTURE_IUPAC>
ethane-1,2-diamine dihydroiodide

> <STRUCTURE_SMILES>
I.I.NCCN

> <STRUCTURE_SMILES_Desalt>
NCCN

> <Substance_modify_yyyymmdd>
20091116

$$$$
