57018-04-9
ChemmineR-0915142007XD

 16 16  0  0  0  0  0  0  0  0  1 V2000
    3.4588   -2.3059    0.0000 P    0  0  0  0  0  0  0  0  0  0  0  0
    4.1141   -3.4588    0.0000 S    0  0  0  0  0  0  0  0  0  0  0  0
    2.3059   -2.9777    0.0000 O    0  0  0  0  0  0  0  0  0  0  0  0
    2.7869   -1.1529    0.0000 O    0  0  0  0  0  0  0  0  0  0  0  0
    4.6117   -1.6506    0.0000 O    0  0  0  0  0  0  0  0  0  0  0  0
    2.3059   -4.3048    0.0000 C    0  0  0  0  0  0  0  0  0  0  0  0
    3.4588   -4.9601    0.0000 C    0  0  0  0  0  0  0  0  0  0  0  0
    1.1529   -4.9601    0.0000 C    0  0  0  0  0  0  0  0  0  0  0  0
    3.4588   -6.2955    0.0000 C    0  0  0  0  0  0  0  0  0  0  0  0
    1.1529   -6.2955    0.0000 C    0  0  0  0  0  0  0  0  0  0  0  0
    2.3059   -6.9674    0.0000 C    0  0  0  0  0  0  0  0  0  0  0  0
    4.6117   -4.3048    0.0000 Cl   0  0  0  0  0  0  0  0  0  0  0  0
    0.0000   -4.3048    0.0000 Cl   0  0  0  0  0  0  0  0  0  0  0  0
    2.3059   -8.2945    0.0000 C    0  0  0  0  0  0  0  0  0  0  0  0
    5.7647   -2.3059    0.0000 C    0  0  0  0  0  0  0  0  0  0  0  0
    3.4588    0.0000    0.0000 C    0  0  0  0  0  0  0  0  0  0  0  0
  1  2  2  0  0  0  0
  1  3  1  0  0  0  0
  1  4  1  0  0  0  0
  1  5  1  0  0  0  0
  3  6  1  0  0  0  0
  4 16  1  0  0  0  0
  5 15  1  0  0  0  0
  6  7  2  0  0  0  0
  6  8  1  0  0  0  0
  7  9  1  0  0  0  0
  7 12  1  0  0  0  0
  8 10  2  0  0  0  0
  8 13  1  0  0  0  0
  9 11  2  0  0  0  0
 10 11  1  0  0  0  0
 11 14  1  0  0  0  0
M  END
> <ID>
6908

> <Formula>
C9H11Cl2O3PS

> <FW>
301.1266

> <DSSTox_CID>
14776

> <DSSTox_RID>
79202

> <DSSTox_GSID>
34776

> <DSSTox_FileID_Sort>
3884

> <TS_ChemName>
Tolclofos-methyl

> <TS_ChemName_Synonyms>
Tolclofos-methyl (O,O-Dimethyl O-(2,6-dichloro-4-methylphenyl) phosphorothioate)

> <TS_CASRN>
57018-04-9

> <CASRN_ChemName_Relationship>
primary

> <TS_Description>
single chemical compound

> <ChemNote>


> <STRUCTURE_Shown>
tested chemical

> <STRUCTURE_Formula>
C9H11Cl2O3PS

> <STRUCTURE_MW>
301.1266

> <STRUCTURE_ChemType>
defined organic

> <STRUCTURE_DefinedOrganicForm>
parent

> <STRUCTURE_IUPAC>
O-(2,6-dichloro-4-methylphenyl) O,O-dimethyl phosphorothioate

> <STRUCTURE_SMILES>
Clc1cc(C)cc(Cl)c1OP(=S)(OC)OC

> <STRUCTURE_SMILES_Desalt>
Clc1cc(C)cc(Cl)c1OP(=S)(OC)OC

> <Substance_modify_yyyymmdd>
20080429

$$$$
