57116-45-7
ChemmineR-0915142007XD

 30 32  0  0  0  0  0  0  0  0  1 V2000
    6.2532   -6.6057    0.0000 O   0  0  0  0  0  0  0  0  0  0  0  0
    7.5713   -6.6057    0.0000 C   0  0  0  0  0  0  0  0  0  0  0  0
    8.2303   -5.4562    0.0000 O   0  0  0  0  0  0  0  0  0  0  0  0
    7.5713   -4.2914    0.0000 C   0  0  0  0  0  0  0  0  0  0  0  0
    8.2303   -3.1419    0.0000 C   0  0  0  0  0  0  0  0  0  0  0  0
    8.9047   -1.9924    0.0000 C   0  0  0  0  0  0  0  0  0  0  0  0
   10.2381   -1.9924    0.0000 O   0  0  0  0  0  0  0  0  0  0  0  0
    7.0962   -2.4829    0.0000 C   0  0  0  0  0  0  0  0  0  0  0  0
    5.9467   -3.1419    0.0000 O   0  0  0  0  0  0  0  0  0  0  0  0
    4.7819   -2.4829    0.0000 C   0  0  0  0  0  0  0  0  0  0  0  0
    4.7819   -1.1648    0.0000 O   0  0  0  0  0  0  0  0  0  0  0  0
    3.6324   -3.1419    0.0000 C   0  0  0  0  0  0  0  0  0  0  0  0
    2.4829   -2.4829    0.0000 C   0  0  0  0  0  0  0  0  0  0  0  0
    1.3334   -3.1419    0.0000 N   0  0  0  0  0  0  0  0  0  0  0  0
    0.6744   -4.2914    0.0000 C   0  0  0  0  0  0  0  0  0  0  0  0
    0.0000   -3.1419    0.0000 C   0  0  0  0  0  0  0  0  0  0  0  0
    9.3798   -3.8163    0.0000 C   0  0  0  0  0  0  0  0  0  0  0  0
   10.5446   -3.1419    0.0000 O   0  0  0  0  0  0  0  0  0  0  0  0
   11.6941   -3.8163    0.0000 C   0  0  0  0  0  0  0  0  0  0  0  0
   11.6941   -5.1497    0.0000 O   0  0  0  0  0  0  0  0  0  0  0  0
   12.8436   -3.1419    0.0000 C   0  0  0  0  0  0  0  0  0  0  0  0
   12.8436   -1.8085    0.0000 C   0  0  0  0  0  0  0  0  0  0  0  0
   13.9931   -1.1648    0.0000 N   0  0  0  0  0  0  0  0  0  0  0  0
   14.6521    0.0000    0.0000 C   0  0  0  0  0  0  0  0  0  0  0  0
   15.3265   -1.1648    0.0000 C   0  0  0  0  0  0  0  0  0  0  0  0
    8.2303   -7.7552    0.0000 C   0  0  0  0  0  0  0  0  0  0  0  0
    9.5637   -7.7552    0.0000 C   0  0  0  0  0  0  0  0  0  0  0  0
   10.2381   -8.9047    0.0000 N   0  0  0  0  0  0  0  0  0  0  0  0
   11.3876   -9.5637    0.0000 C   0  0  0  0  0  0  0  0  0  0  0  0
   10.2381  -10.2381    0.0000 C   0  0  0  0  0  0  0  0  0  0  0  0
  1  2  2  0  0  0  0
  2  3  1  0  0  0  0
  2 26  1  0  0  0  0
  3  4  1  0  0  0  0
  4  5  1  0  0  0  0
  5  6  1  0  0  0  0
  5  8  1  0  0  0  0
  5 17  1  0  0  0  0
  6  7  1  0  0  0  0
  8  9  1  0  0  0  0
  9 10  1  0  0  0  0
 10 11  2  0  0  0  0
 10 12  1  0  0  0  0
 12 13  1  0  0  0  0
 13 14  1  0  0  0  0
 14 15  1  0  0  0  0
 14 16  1  0  0  0  0
 15 16  1  0  0  0  0
 17 18  1  0  0  0  0
 18 19  1  0  0  0  0
 19 20  2  0  0  0  0
 19 21  1  0  0  0  0
 21 22  1  0  0  0  0
 22 23  1  0  0  0  0
 23 24  1  0  0  0  0
 23 25  1  0  0  0  0
 24 25  1  0  0  0  0
 26 27  1  0  0  0  0
 27 28  1  0  0  0  0
 28 29  1  0  0  0  0
 28 30  1  0  0  0  0
 29 30  1  0  0  0  0
M  END
> <ID>
10348

> <Formula>
C20H33N3O7

> <FW>
427.4919

> <DSSTox_CID>
24696

> <DSSTox_RID>
80403

> <DSSTox_GSID>
44696

> <DSSTox_FileID_Sort>
5085

> <TS_ChemName>
3-{[3-(Aziridin-1-yl)propanoyl]oxy}-2-({[3-(aziridin-1-yl)propanoyl]oxy}methyl)-2-(hydroxymethyl)propyl 3-(aziridin-1-yl)propanoate

> <TS_ChemName_Synonyms>
3-{[3-(Aziridin-1-yl)propanoyl]oxy}-2-({[3-(aziridin-1-yl)propanoyl]oxy}methyl)-2-(hydroxymethyl)propyl 3-(aziridin-1-yl)propanoate (1-Aziridinepropanoic acid, 2-[[3-(1-aziridinyl)-1-oxopropoxy]methyl]-2-(hydroxymethyl)-1,3-propanediyl ester)

> <TS_CASRN>
57116-45-7

> <CASRN_ChemName_Relationship>
primary

> <TS_Description>
single chemical compound

> <ChemNote>


> <STRUCTURE_Shown>
tested chemical

> <STRUCTURE_Formula>
C20H33N3O7

> <STRUCTURE_MW>
427.4919

> <STRUCTURE_ChemType>
defined organic

> <STRUCTURE_DefinedOrganicForm>
parent

> <STRUCTURE_IUPAC>
3-{[3-(aziridin-1-yl)propanoyl]oxy}-2-({[3-(aziridin-1-yl)propanoyl]oxy}methyl)-2-(hydroxymethyl)propyl 3-(aziridin-1-yl)propanoate

> <STRUCTURE_SMILES>
OCC(COC(=O)CCN1CC1)(COC(=O)CCN2CC2)COC(=O)CCN3CC3

> <STRUCTURE_SMILES_Desalt>
OCC(COC(=O)CCN1CC1)(COC(=O)CCN2CC2)COC(=O)CCN3CC3

> <Substance_modify_yyyymmdd>
20091116

$$$$
