5711-40-0
ChemmineR-0915142007XD

 16 16  0  0  0  0  0  0  0  0  1 V2000
    9.9688   -2.3227    0.0000 O    0  0  0  0  0  0  0  0  0  0  0  0
    8.6429   -2.3227    0.0000 C    0  0  0  0  0  0  0  0  0  0  0  0
    7.9750   -3.4691    0.0000 O    0  0  0  0  0  0  0  0  0  0  0  0
    7.9750   -1.1663    0.0000 C    0  0  0  0  0  0  0  0  0  0  0  0
    6.6492   -1.1663    0.0000 C    0  0  0  0  0  0  0  0  0  0  0  0
    5.9713    0.0000    0.0000 Br   0  0  0  0  0  0  0  0  0  0  0  0
    5.9713   -2.3227    0.0000 C    0  0  0  0  0  0  0  0  0  0  0  0
    4.6455   -2.3227    0.0000 C    0  0  0  0  0  0  0  0  0  0  0  0
    3.9975   -3.4691    0.0000 C    0  0  0  0  0  0  0  0  0  0  0  0
    2.6716   -3.4691    0.0000 C    0  0  0  0  0  0  0  0  0  0  0  0
    1.9938   -2.3227    0.0000 C    0  0  0  0  0  0  0  0  0  0  0  0
    0.6679   -2.3227    0.0000 O    0  0  0  0  0  0  0  0  0  0  0  0
    0.0000   -3.4691    0.0000 C    0  0  0  0  0  0  0  0  0  0  0  0
    2.6716   -1.1663    0.0000 C    0  0  0  0  0  0  0  0  0  0  0  0
    3.9975   -1.1663    0.0000 C    0  0  0  0  0  0  0  0  0  0  0  0
    6.6492   -3.4691    0.0000 O    0  0  0  0  0  0  0  0  0  0  0  0
  1  2  2  0  0  0  0
  2  3  1  0  0  0  0
  2  4  1  0  0  0  0
  4  5  2  0  0  0  0
  5  6  1  0  0  0  0
  5  7  1  0  0  0  0
  7  8  1  0  0  0  0
  7 16  2  0  0  0  0
  8  9  2  0  0  0  0
  8 15  1  0  0  0  0
  9 10  1  0  0  0  0
 10 11  2  0  0  0  0
 11 12  1  0  0  0  0
 11 14  1  0  0  0  0
 12 13  1  0  0  0  0
 14 15  2  0  0  0  0
M  END
> <ID>
11525

> <Formula>
C11H9BrO4

> <FW>
285.0908

> <DSSTox_CID>
26231

> <DSSTox_RID>
81458

> <DSSTox_GSID>
46231

> <DSSTox_FileID_Sort>
6139

> <TS_ChemName>
Bromebric acid

> <TS_ChemName_Synonyms>


> <TS_CASRN>
5711-40-0

> <CASRN_ChemName_Relationship>
primary

> <TS_Description>
single chemical compound

> <ChemNote>


> <STRUCTURE_Shown>
tested chemical

> <STRUCTURE_Formula>
C11H9BrO4

> <STRUCTURE_MW>
285.0908

> <STRUCTURE_ChemType>
defined organic

> <STRUCTURE_DefinedOrganicForm>
parent

> <STRUCTURE_IUPAC>
(2E)-3-bromo-4-(4-methoxyphenyl)-4-oxobut-2-enoic acid

> <STRUCTURE_SMILES>
COc1ccc(cc1)C(=O)C(/Br)=C\C(=O)O

> <STRUCTURE_SMILES_Desalt>
COc1ccc(cc1)C(=O)C(/Br)=C\C(=O)O

> <Substance_modify_yyyymmdd>
20100107

$$$$
