57132-53-3
ChemmineR-0915142007XD

 60 64  0  0  0  0  0  0  0  0  1 V2000
    5.7128   -9.8907    0.0000 N    0  0  0  0  0  0  0  0  0  0  0  0
    6.8382  -10.5217    0.0000 C    0  0  0  0  0  0  0  0  0  0  0  0
    6.8382  -11.8348    0.0000 C    0  0  0  0  0  0  0  0  0  0  0  0
    4.5873  -10.5217    0.0000 C    0  0  0  0  0  0  0  0  0  0  0  0
    4.5873  -11.8348    0.0000 C    0  0  0  0  0  0  0  0  0  0  0  0
    5.7128   -8.5094    0.0000 C    0  0  0  0  0  0  0  0  0  0  0  0
   11.3402   -3.9392    0.0000 C    0  0  0  0  0  0  0  0  0  0  0  0
   13.5912   -2.6262    0.0000 C    0  0  0  0  0  0  0  0  0  0  0  0
   13.5912   -3.9392    0.0000 N    0  0  0  0  0  0  0  0  0  0  0  0
   12.4657   -4.5531    0.0000 C    0  0  0  0  0  0  0  0  0  0  0  0
    7.9637  -12.5169    0.0000 C    0  0  0  0  0  0  0  0  0  0  0  0
    3.4618   -9.8907    0.0000 C    0  0  0  0  0  0  0  0  0  0  0  0
   15.8422  -10.5217    0.0000 N    0  0  0  0  0  0  0  0  0  0  0  0
   13.5912  -11.8348    0.0000 N    0  0  0  0  0  0  0  0  0  0  0  0
    4.5873   -7.8955    0.0000 C    0  0  0  0  0  0  0  0  0  0  0  0
    9.0892  -11.8348    0.0000 C    0  0  0  0  0  0  0  0  0  0  0  0
    3.4618  -12.5169    0.0000 C    0  0  0  0  0  0  0  0  0  0  0  0
   10.2147   -4.5531    0.0000 N    0  0  0  0  0  0  0  0  0  0  0  0
   13.5912   -7.8955    0.0000 C    0  0  0  0  0  0  0  0  0  0  0  0
    6.8382   -7.8955    0.0000 O    0  0  0  0  0  0  0  0  0  0  0  0
   11.3402   -2.6262    0.0000 O    0  0  0  0  0  0  0  0  0  0  0  0
   12.4657   -1.9952    0.0000 O    0  0  0  0  0  0  0  0  0  0  0  0
   14.7167   -1.9952    0.0000 C    0  0  0  0  0  0  0  0  0  0  0  0
   12.4657   -5.9344    0.0000 C    0  0  0  0  0  0  0  0  0  0  0  0
    9.0892  -10.5217    0.0000 O    0  0  0  0  0  0  0  0  0  0  0  0
   12.4657   -8.5094    0.0000 O    0  0  0  0  0  0  0  0  0  0  0  0
    4.5873   -6.5654    0.0000 C    0  0  0  0  0  0  0  0  0  0  0  0
    3.4618   -8.5094    0.0000 C    0  0  0  0  0  0  0  0  0  0  0  0
    7.9637   -9.8907    0.0000 C    0  0  0  0  0  0  0  0  0  0  0  0
   14.7167  -12.5169    0.0000 C    0  0  0  0  0  0  0  0  0  0  0  0
   15.8422  -11.8348    0.0000 C    0  0  0  0  0  0  0  0  0  0  0  0
   13.5912  -10.5217    0.0000 C    0  0  0  0  0  0  0  0  0  0  0  0
   14.7167   -9.8907    0.0000 C    0  0  0  0  0  0  0  0  0  0  0  0
   13.5912   -6.5654    0.0000 C    0  0  0  0  0  0  0  0  0  0  0  0
    2.2680  -11.8348    0.0000 C    0  0  0  0  0  0  0  0  0  0  0  0
    2.2680  -10.5217    0.0000 C    0  0  0  0  0  0  0  0  0  0  0  0
    2.2680   -6.5654    0.0000 C    0  0  0  0  0  0  0  0  0  0  0  0
   10.2147  -12.5169    0.0000 O    0  0  0  0  0  0  0  0  0  0  0  0
    3.4618   -5.9344    0.0000 C    0  0  0  0  0  0  0  0  0  0  0  0
    2.2680   -7.8955    0.0000 C    0  0  0  0  0  0  0  0  0  0  0  0
   14.7167   -8.5094    0.0000 O    0  0  0  0  0  0  0  0  0  0  0  0
    1.1426   -5.8833    0.0000 Cl   0  0  0  0  0  0  0  0  0  0  0  0
   17.0530   -9.8907    0.0000 C    0  0  0  0  0  0  0  0  0  0  0  0
   12.4657  -12.5169    0.0000 C    0  0  0  0  0  0  0  0  0  0  0  0
   17.0530   -8.5094    0.0000 C    0  0  0  0  0  0  0  0  0  0  0  0
   11.3402  -11.8348    0.0000 C    0  0  0  0  0  0  0  0  0  0  0  0
    1.1426  -12.5169    0.0000 O    0  0  0  0  0  0  0  0  0  0  0  0
   10.2147   -5.9344    0.0000 C    0  0  0  0  0  0  0  0  0  0  0  0
    9.0892   -3.9392    0.0000 C    0  0  0  0  0  0  0  0  0  0  0  0
   15.8422   -7.8955    0.0000 C    0  0  0  0  0  0  0  0  0  0  0  0
   14.7167   -0.6821    0.0000 C    0  0  0  0  0  0  0  0  0  0  0  0
   15.8422   -2.6262    0.0000 C    0  0  0  0  0  0  0  0  0  0  0  0
    0.0000  -11.9030    0.0000 C    0  0  0  0  0  0  0  0  0  0  0  0
    9.0892   -2.6262    0.0000 C    0  0  0  0  0  0  0  0  0  0  0  0
    9.0892   -6.5654    0.0000 C    0  0  0  0  0  0  0  0  0  0  0  0
    9.0892   -7.8955    0.0000 C    0  0  0  0  0  0  0  0  0  0  0  0
    7.9637   -1.9952    0.0000 C    0  0  0  0  0  0  0  0  0  0  0  0
   17.0530   -1.9952    0.0000 C    0  0  0  0  0  0  0  0  0  0  0  0
   15.8422    0.0000    0.0000 C    0  0  0  0  0  0  0  0  0  0  0  0
   17.0530   -0.6821    0.0000 C    0  0  0  0  0  0  0  0  0  0  0  0
  1  2  1  0  0  0  0
  1  4  1  0  0  0  0
  1  6  1  0  0  0  0
  2  3  2  0  0  0  0
  2 29  1  0  0  0  0
  3 11  1  0  0  0  0
  3  5  1  0  0  0  0
  4  5  2  0  0  0  0
  4 12  1  0  0  0  0
  5 17  1  0  0  0  0
  6 15  1  0  0  0  0
  6 20  2  0  0  0  0
  7 10  1  0  0  0  0
  7 18  1  0  0  0  0
  7 21  2  0  0  0  0
  8  9  1  0  0  0  0
  8 22  2  0  0  0  0
  8 23  1  0  0  0  0
  9 10  1  0  0  0  0
 10 24  1  0  0  0  0
 11 16  1  0  0  0  0
 12 36  2  0  0  0  0
 13 33  1  0  0  0  0
 13 43  1  0  0  0  0
 13 31  1  0  0  0  0
 14 44  1  0  0  0  0
 14 30  1  0  0  0  0
 14 32  1  0  0  0  0
 15 27  1  0  0  0  0
 15 28  2  0  0  0  0
 16 25  2  0  0  0  0
 16 38  1  0  0  0  0
 17 35  2  0  0  0  0
 18 48  1  0  0  0  0
 18 49  1  0  0  0  0
 19 41  1  0  0  0  0
 19 26  2  0  0  0  0
 19 34  1  0  0  0  0
 23 51  2  0  0  0  0
 23 52  1  0  0  0  0
 24 34  1  0  0  0  0
 27 39  2  0  0  0  0
 28 40  1  0  0  0  0
 30 31  1  0  0  0  0
 32 33  1  0  0  0  0
 35 36  1  0  0  0  0
 35 47  1  0  0  0  0
 37 40  2  0  0  0  0
 37 42  1  0  0  0  0
 37 39  1  0  0  0  0
 38 46  1  0  0  0  0
 41 50  1  0  0  0  0
 43 45  1  0  0  0  0
 44 46  1  0  0  0  0
 45 50  1  0  0  0  0
 47 53  1  0  0  0  0
 48 55  1  0  0  0  0
 49 54  1  0  0  0  0
 51 59  1  0  0  0  0
 52 58  2  0  0  0  0
 54 57  1  0  0  0  0
 55 56  1  0  0  0  0
 58 60  1  0  0  0  0
 59 60  2  0  0  0  0
M  END
> <ID>
13831

> <Formula>
C46H58ClN5O8

> <FW>
844.4344

> <DSSTox_CID>
28768

> <DSSTox_RID>
83037

> <DSSTox_GSID>
48842

> <DSSTox_FileID_Sort>
7714

> <TS_ChemName>
Proglumetacin

> <TS_ChemName_Synonyms>


> <TS_CASRN>
57132-53-3

> <CASRN_ChemName_Relationship>
primary

> <TS_Description>
single chemical compound

> <ChemNote>


> <STRUCTURE_Shown>
tested chemical

> <STRUCTURE_Formula>
C46H58ClN5O8

> <STRUCTURE_MW>
844.4344

> <STRUCTURE_ChemType>
defined organic

> <STRUCTURE_DefinedOrganicForm>
parent

> <STRUCTURE_IUPAC>
3-{4-[2-({[1-(4-chlorobenzoyl)-5-methoxy-2-methyl-1H-indol-3-yl]acetyl}oxy)ethyl]piperazin-1-yl}propyl N~2~-benzoyl-N,N-dipropyl-alpha-glutaminate

> <STRUCTURE_SMILES>
CCCN(CCC)C(=O)C(NC(=O)c1ccccc1)CCC(=O)OCCCN5CCN(CCOC(=O)Cc4c2cc(OC)ccc2n(C(=O)c3ccc(Cl)cc3)c4C)CC5

> <STRUCTURE_SMILES_Desalt>
CCCN(CCC)C(=O)C(NC(=O)c1ccccc1)CCC(=O)OCCCN5CCN(CCOC(=O)Cc4c2cc(OC)ccc2n(C(=O)c3ccc(Cl)cc3)c4C)CC5

> <Substance_modify_yyyymmdd>
20111204

$$$$
