5714-00-1
ChemmineR-0915142007XD

 45 46  0  0  0  0  0  0  0  0  1 V2000
    6.1512   -8.5536    0.0000 C   0  0  0  0  0  0  0  0  0  0  0  0
    3.4716   -8.5536    0.0000 C   0  0  0  0  0  0  0  0  0  0  0  0
    4.1184   -7.4052    0.0000 C   0  0  0  0  0  0  0  0  0  0  0  0
    5.4912   -7.4052    0.0000 C   0  0  0  0  0  0  0  0  0  0  0  0
    5.4912   -9.7019    0.0000 O   0  0  0  0  0  0  0  0  0  0  0  0
    4.1184   -9.7019    0.0000 O   0  0  0  0  0  0  0  0  0  0  0  0
    7.4844   -8.5668    0.0000 O   0  0  0  0  0  0  0  0  0  0  0  0
    2.1384   -8.5668    0.0000 O   0  0  0  0  0  0  0  0  0  0  0  0
    6.3360   -2.6268    0.0000 N   0  0  0  0  0  0  0  0  0  0  0  0
    7.4712   -1.9800    0.0000 C   0  0  0  0  0  0  0  0  0  0  0  0
    6.3360    0.0000    0.0000 S   0  0  0  0  0  0  0  0  0  0  0  0
    7.4712   -0.6468    0.0000 C   0  0  0  0  0  0  0  0  0  0  0  0
    5.1744   -1.9800    0.0000 C   0  0  0  0  0  0  0  0  0  0  0  0
    5.1744   -0.6468    0.0000 C   0  0  0  0  0  0  0  0  0  0  0  0
    8.6196   -2.6268    0.0000 C   0  0  0  0  0  0  0  0  0  0  0  0
    9.7811   -1.9800    0.0000 C   0  0  0  0  0  0  0  0  0  0  0  0
    8.6196   -6.5868    0.0000 N   0  0  0  0  0  0  0  0  0  0  0  0
   10.9031   -7.9200    0.0000 N   0  0  0  0  0  0  0  0  0  0  0  0
   10.9295   -2.6532    0.0000 C   0  0  0  0  0  0  0  0  0  0  0  0
    8.6196    0.0000    0.0000 C   0  0  0  0  0  0  0  0  0  0  0  0
    9.7811   -0.6468    0.0000 C   0  0  0  0  0  0  0  0  0  0  0  0
   12.2759   -1.9932    0.0000 O   0  0  0  0  0  0  0  0  0  0  0  0
    6.3360   -3.9600    0.0000 C   0  0  0  0  0  0  0  0  0  0  0  0
    9.7415   -5.9400    0.0000 C   0  0  0  0  0  0  0  0  0  0  0  0
    8.6196   -7.9200    0.0000 C   0  0  0  0  0  0  0  0  0  0  0  0
   10.9031   -6.5868    0.0000 C   0  0  0  0  0  0  0  0  0  0  0  0
    9.7415   -8.5800    0.0000 C   0  0  0  0  0  0  0  0  0  0  0  0
    7.4712   -4.6200    0.0000 C   0  0  0  0  0  0  0  0  0  0  0  0
    7.4712   -5.9400    0.0000 C   0  0  0  0  0  0  0  0  0  0  0  0
    4.0392   -2.6268    0.0000 C   0  0  0  0  0  0  0  0  0  0  0  0
   12.0647   -8.5932    0.0000 C   0  0  0  0  0  0  0  0  0  0  0  0
    4.0392    0.0000    0.0000 C   0  0  0  0  0  0  0  0  0  0  0  0
   13.1999  -10.5731    0.0000 O   0  0  0  0  0  0  0  0  0  0  0  0
   10.9295   -3.9864    0.0000 C   0  0  0  0  0  0  0  0  0  0  0  0
   12.0647   -9.9263    0.0000 C   0  0  0  0  0  0  0  0  0  0  0  0
    2.8776   -1.9800    0.0000 C   0  0  0  0  0  0  0  0  0  0  0  0
    2.8776   -0.6468    0.0000 C   0  0  0  0  0  0  0  0  0  0  0  0
    4.0128   -4.8708    0.0000 C   0  0  0  0  0  0  0  0  0  0  0  0
    1.3332   -4.8708    0.0000 C   0  0  0  0  0  0  0  0  0  0  0  0
    1.9932   -3.7224    0.0000 C   0  0  0  0  0  0  0  0  0  0  0  0
    3.3660   -3.7224    0.0000 C   0  0  0  0  0  0  0  0  0  0  0  0
    3.3660   -6.0192    0.0000 O   0  0  0  0  0  0  0  0  0  0  0  0
    1.9932   -6.0192    0.0000 O   0  0  0  0  0  0  0  0  0  0  0  0
    5.3460   -4.8840    0.0000 O   0  0  0  0  0  0  0  0  0  0  0  0
    0.0000   -4.8840    0.0000 O   0  0  0  0  0  0  0  0  0  0  0  0
  1  4  1  0  0  0  0
  1  5  2  0  0  0  0
  1  7  1  0  0  0  0
  2  3  1  0  0  0  0
  2  6  2  0  0  0  0
  2  8  1  0  0  0  0
  3  4  2  0  0  0  0
  9 10  1  0  0  0  0
  9 13  1  0  0  0  0
  9 23  1  0  0  0  0
 10 12  2  0  0  0  0
 10 15  1  0  0  0  0
 11 14  1  0  0  0  0
 11 12  1  0  0  0  0
 12 20  1  0  0  0  0
 13 14  2  0  0  0  0
 13 30  1  0  0  0  0
 14 32  1  0  0  0  0
 15 16  2  0  0  0  0
 16 19  1  0  0  0  0
 16 21  1  0  0  0  0
 17 29  1  0  0  0  0
 17 24  1  0  0  0  0
 17 25  1  0  0  0  0
 18 27  1  0  0  0  0
 18 31  1  0  0  0  0
 18 26  1  0  0  0  0
 19 22  2  0  0  0  0
 19 34  1  0  0  0  0
 20 21  2  0  0  0  0
 23 28  1  0  0  0  0
 24 26  1  0  0  0  0
 25 27  1  0  0  0  0
 28 29  1  0  0  0  0
 30 36  2  0  0  0  0
 31 35  1  0  0  0  0
 32 37  2  0  0  0  0
 33 35  1  0  0  0  0
 36 37  1  0  0  0  0
 38 41  1  0  0  0  0
 38 42  2  0  0  0  0
 38 44  1  0  0  0  0
 39 40  1  0  0  0  0
 39 43  2  0  0  0  0
 39 45  1  0  0  0  0
 40 41  2  0  0  0  0
M  END
> <ID>
12928

> <Formula>
C31H37N3O10S

> <FW>
643.7046 (116.0722+411.5603+116.0722)

> <DSSTox_CID>
27829

> <DSSTox_RID>
82592

> <DSSTox_GSID>
47851

> <DSSTox_FileID_Sort>
7269

> <TS_ChemName>
Acetophenazine dimaleate

> <TS_ChemName_Synonyms>


> <TS_CASRN>
5714-00-1

> <CASRN_ChemName_Relationship>
primary

> <TS_Description>
single chemical compound

> <ChemNote>
parent [2751-68-0]

> <STRUCTURE_Shown>
tested chemical

> <STRUCTURE_Formula>
C31H37N3O10S

> <STRUCTURE_MW>
643.7046

> <STRUCTURE_ChemType>
defined organic

> <STRUCTURE_DefinedOrganicForm>
complex

> <STRUCTURE_IUPAC>
1-(10-{3-[4-(2-hydroxyethyl)piperazin-1-yl]propyl}-10H-phenothiazin-2-yl)ethanone (2Z)-but-2-enedioate (1:2)

> <STRUCTURE_SMILES>
O=C(O)/C=C\C(=O)O.O=C(O)/C=C\C(=O)O.CC(=O)c2cc3N(CCCN1CCN(CCO)CC1)c4ccccc4Sc3cc2

> <STRUCTURE_SMILES_Desalt>
CC(=O)c2cc3N(CCCN1CCN(CCO)CC1)c4ccccc4Sc3cc2

> <Substance_modify_yyyymmdd>
20110729

$$$$
