57149-07-2
ChemmineR-0915142007XD

 29 32  0  0  0  0  0  0  0  0  1 V2000
    4.6027   -2.6676    0.0000 C   0  0  0  0  0  0  0  0  0  0  0  0
    4.6027   -4.0084    0.0000 C   0  0  0  0  0  0  0  0  0  0  0  0
    3.4693   -4.6580    0.0000 C   0  0  0  0  0  0  0  0  0  0  0  0
    3.4693   -1.9904    0.0000 C   0  0  0  0  0  0  0  0  0  0  0  0
    2.2944   -2.6676    0.0000 C   0  0  0  0  0  0  0  0  0  0  0  0
    2.2944   -4.0084    0.0000 C   0  0  0  0  0  0  0  0  0  0  0  0
    1.1472   -4.6580    0.0000 C   0  0  0  0  0  0  0  0  0  0  0  0
    0.0000   -4.0084    0.0000 C   0  0  0  0  0  0  0  0  0  0  0  0
    0.0000   -2.6676    0.0000 C   0  0  0  0  0  0  0  0  0  0  0  0
    1.1472   -1.9904    0.0000 C   0  0  0  0  0  0  0  0  0  0  0  0
   10.3526   -4.6580    0.0000 O   0  0  0  0  0  0  0  0  0  0  0  0
   11.5137   -4.0084    0.0000 C   0  0  0  0  0  0  0  0  0  0  0  0
    9.2192   -4.0084    0.0000 C   0  0  0  0  0  0  0  0  0  0  0  0
   11.5137   -2.6676    0.0000 C   0  0  0  0  0  0  0  0  0  0  0  0
   12.6747   -1.9904    0.0000 C   0  0  0  0  0  0  0  0  0  0  0  0
   13.8219   -2.6676    0.0000 C   0  0  0  0  0  0  0  0  0  0  0  0
   13.8219   -4.0084    0.0000 C   0  0  0  0  0  0  0  0  0  0  0  0
   12.6747   -4.6580    0.0000 C   0  0  0  0  0  0  0  0  0  0  0  0
   10.3526   -1.9904    0.0000 N   0  0  0  0  0  0  0  0  0  0  0  0
    9.2192   -2.6676    0.0000 C   0  0  0  0  0  0  0  0  0  0  0  0
    8.0582   -1.9904    0.0000 C   0  0  0  0  0  0  0  0  0  0  0  0
    9.2192    0.0000    0.0000 C   0  0  0  0  0  0  0  0  0  0  0  0
   10.3526   -0.6635    0.0000 C   0  0  0  0  0  0  0  0  0  0  0  0
    8.0582   -0.6635    0.0000 N   0  0  0  0  0  0  0  0  0  0  0  0
    6.9110    0.0000    0.0000 C   0  0  0  0  0  0  0  0  0  0  0  0
    5.7499   -0.6635    0.0000 C   0  0  0  0  0  0  0  0  0  0  0  0
    4.6027    0.0000    0.0000 C   0  0  0  0  0  0  0  0  0  0  0  0
    3.4693   -0.6635    0.0000 O   0  0  0  0  0  0  0  0  0  0  0  0
    5.7499   -1.9904    0.0000 O   0  0  0  0  0  0  0  0  0  0  0  0
  1  2  1  0  0  0  0
  1  4  2  0  0  0  0
  2  3  2  0  0  0  0
  3  6  1  0  0  0  0
  4  5  1  0  0  0  0
  4 28  1  0  0  0  0
  5 10  1  0  0  0  0
  5  6  2  0  0  0  0
  6  7  1  0  0  0  0
  7  8  2  0  0  0  0
  8  9  1  0  0  0  0
  9 10  2  0  0  0  0
 11 13  1  0  0  0  0
 11 12  1  0  0  0  0
 12 14  2  0  0  0  0
 12 18  1  0  0  0  0
 14 15  1  0  0  0  0
 14 19  1  0  0  0  0
 15 16  2  0  0  0  0
 16 17  1  0  0  0  0
 17 18  2  0  0  0  0
 19 23  1  0  0  0  0
 19 20  1  0  0  0  0
 20 21  1  0  0  0  0
 21 24  1  0  0  0  0
 22 23  1  0  0  0  0
 22 24  1  0  0  0  0
 24 25  1  0  0  0  0
 25 26  1  0  0  0  0
 26 27  1  0  0  0  0
 26 29  1  0  0  0  0
 27 28  1  0  0  0  0
M  END
> <ID>
10795

> <Formula>
C24H28N2O3

> <FW>
392.4907

> <DSSTox_CID>
25176

> <DSSTox_RID>
80725

> <DSSTox_GSID>
45176

> <DSSTox_FileID_Sort>
5406

> <TS_ChemName>
Naftopidil

> <TS_ChemName_Synonyms>


> <TS_CASRN>
57149-07-2

> <CASRN_ChemName_Relationship>
primary

> <TS_Description>
single chemical compound

> <ChemNote>


> <STRUCTURE_Shown>
tested chemical

> <STRUCTURE_Formula>
C24H28N2O3

> <STRUCTURE_MW>
392.4907

> <STRUCTURE_ChemType>
defined organic

> <STRUCTURE_DefinedOrganicForm>
parent

> <STRUCTURE_IUPAC>
1-[4-(2-methoxyphenyl)piperazin-1-yl]-3-(naphthalen-1-yloxy)propan-2-ol

> <STRUCTURE_SMILES>
OC(CN1CCN(CC1)c2ccccc2OC)COc4cccc3ccccc34

> <STRUCTURE_SMILES_Desalt>
OC(CN1CCN(CC1)c2ccccc2OC)COc4cccc3ccccc34

> <Substance_modify_yyyymmdd>
20100107

$$$$
