5714-90-9
ChemmineR-0915142007XD

 39 41  0  0  1  0  0  0  0  0  1 V2000
    8.5961   -3.3011    0.0000 C   0  0  0  0  0  0  0  0  0  0  0  0
    7.2625   -3.3011    0.0000 C   0  0  0  0  0  0  0  0  0  0  0  0
    8.5961   -1.9675    0.0000 O   0  0  0  0  0  0  0  0  0  0  0  0
    9.7581   -1.3337    0.0000 C   0  0  0  0  0  0  0  0  0  0  0  0
    9.7581   -2.6805    0.0000 C   0  0  0  0  0  0  0  0  0  0  0  0
    6.5890   -4.4763    0.0000 C   0  0  0  0  0  0  0  0  0  0  0  0
    8.9658   -4.5820    0.0000 C   0  0  0  0  0  0  0  0  0  0  0  0
    9.7581    0.0000    0.0000 O   0  0  0  0  0  0  0  0  0  0  0  0
    5.2686   -4.4763    0.0000 N   0  0  0  0  0  0  0  0  0  0  0  0
   10.8937   -3.3539    0.0000 C   0  0  0  0  0  0  0  0  0  0  0  0
    6.5890   -2.1655    0.0000 C   0  0  0  0  0  0  0  0  0  0  0  0
   10.8937   -1.9675    0.0000 C   0  0  0  0  0  0  0  0  0  0  0  0
   10.2731   -4.8724    0.0000 C   0  0  0  0  0  0  0  0  0  0  0  0
    8.0679   -5.5591    0.0000 C   0  0  0  0  0  0  0  0  0  0  0  0
    4.6084   -5.6251    0.0000 C   0  0  0  0  0  0  0  0  0  0  0  0
    4.6084   -3.3011    0.0000 C   0  0  0  0  0  0  0  0  0  0  0  0
   12.0689   -2.6937    0.0000 C   0  0  0  0  0  0  0  0  0  0  0  0
   10.8937   -4.6876    0.0000 C   0  0  0  0  0  0  0  0  0  0  0  0
   12.0689   -1.3337    0.0000 C   0  0  0  0  0  0  0  0  0  0  0  0
   10.6560   -6.1533    0.0000 C   0  0  0  0  0  0  0  0  0  0  0  0
    8.4773   -6.8267    0.0000 C   0  0  0  0  0  0  0  0  0  0  0  0
   13.2045   -3.3671    0.0000 C   0  0  0  0  0  0  0  0  0  0  0  0
   12.0161   -5.3346    0.0000 C   0  0  0  0  0  0  0  0  0  0  0  0
   13.2045   -4.6876    0.0000 C   0  0  0  0  0  0  0  0  0  0  0  0
    9.7713   -7.1172    0.0000 C   0  0  0  0  0  0  0  0  0  0  0  0
    5.9816   -9.4148    0.0000 O   0  0  0  0  0  0  0  0  0  0  0  0
    5.9816   -8.0811    0.0000 S   0  0  0  0  0  0  0  0  0  0  0  0
    5.9816   -6.7475    0.0000 O   0  0  0  0  0  0  0  0  0  0  0  0
    7.3153   -8.0811    0.0000 O   0  0  0  0  0  0  0  0  0  0  0  0
    4.6480   -8.0811    0.0000 C   0  0  0  0  0  0  0  0  0  0  0  0
    4.0010   -9.2431    0.0000 C   0  0  0  0  0  0  0  0  0  0  0  0
    2.6673   -9.2431    0.0000 C   0  0  0  0  0  0  0  0  0  0  0  0
    2.0071   -8.0811    0.0000 C   0  0  0  0  0  0  0  0  0  0  0  0
    0.6734   -8.0811    0.0000 C   0  0  0  0  0  0  0  0  0  0  0  0
    0.0000   -6.9323    0.0000 C   0  0  0  0  0  0  0  0  0  0  0  0
    0.6734   -5.7704    0.0000 C   0  0  0  0  0  0  0  0  0  0  0  0
    2.0071   -5.7704    0.0000 C   0  0  0  0  0  0  0  0  0  0  0  0
    2.6673   -6.9323    0.0000 C   0  0  0  0  0  0  0  0  0  0  0  0
    4.0010   -6.9323    0.0000 C   0  0  0  0  0  0  0  0  0  0  0  0
  1  2  1  0  0  0  0
  1  3  1  1  0  0  0
  1  5  1  6  0  0  0
  1  7  1  0  0  0  0
  2  6  1  0  0  0  0
  2 11  1  6  0  0  0
  3  4  1  0  0  0  0
  4  8  2  0  0  0  0
  4 12  1  0  0  0  0
  5 10  1  0  0  0  0
  6  9  1  0  0  0  0
  7 13  2  0  0  0  0
  7 14  1  0  0  0  0
  9 15  1  0  0  0  0
  9 16  1  0  0  0  0
 10 17  1  0  0  0  0
 10 18  2  0  0  0  0
 12 19  1  0  0  0  0
 13 20  1  0  0  0  0
 14 21  2  0  0  0  0
 17 22  2  0  0  0  0
 18 23  1  0  0  0  0
 20 25  2  0  0  0  0
 21 25  1  0  0  0  0
 22 24  1  0  0  0  0
 23 24  2  0  0  0  0
 26 27  1  0  0  0  0
 27 28  2  0  0  0  0
 27 29  2  0  0  0  0
 27 30  1  0  0  0  0
 30 31  2  0  0  0  0
 30 39  1  0  0  0  0
 31 32  1  0  0  0  0
 32 33  2  0  0  0  0
 33 34  1  0  0  0  0
 33 38  1  0  0  0  0
 34 35  2  0  0  0  0
 35 36  1  0  0  0  0
 36 37  2  0  0  0  0
 37 38  1  0  0  0  0
 38 39  2  0  0  0  0
M  END
> <ID>
11028

> <Formula>
C32H37NO5S

> <FW>
547.7049 (339.4712+208.2337)

> <DSSTox_CID>
25563

> <DSSTox_RID>
80960

> <DSSTox_GSID>
45563

> <DSSTox_FileID_Sort>
5641

> <TS_ChemName>
Levopropoxyphene napsylate

> <TS_ChemName_Synonyms>


> <TS_CASRN>
5714-90-9

> <CASRN_ChemName_Relationship>
primary

> <TS_Description>
single chemical compound

> <ChemNote>
stereochem; parent [2338-37-6]

> <STRUCTURE_Shown>
tested chemical

> <STRUCTURE_Formula>
C32H37NO5S

> <STRUCTURE_MW>
547.7049

> <STRUCTURE_ChemType>
defined organic

> <STRUCTURE_DefinedOrganicForm>
complex

> <STRUCTURE_IUPAC>
naphthalene-2-sulfonic acid - (2R,3S)-4-(dimethylamino)-3-methyl-1,2-diphenylbutan-2-yl propanoate (1:1)

> <STRUCTURE_SMILES>
CN(C)C[C@H](C)[C@@](Cc1ccccc1)(OC(=O)CC)c2ccccc2.O=S(=O)(O)c1ccc2ccccc2c1

> <STRUCTURE_SMILES_Desalt>
CN(C)C[C@H](C)[C@](OC(=O)CC)(Cc1ccccc1)c2ccccc2

> <Substance_modify_yyyymmdd>
20100107

$$$$
