5721-91-5
ChemmineR-0915142007XD

 35 38  0  0  1  0  0  0  0  0  1 V2000
    3.4764   -5.7282    0.0000 C   0  0  0  0  0  0  0  0  0  0  0  0
    6.9331   -3.7332    0.0000 C   0  0  0  0  0  0  0  0  0  0  0  0
    3.4764   -7.0713    0.0000 C   0  0  0  0  0  0  0  0  0  0  0  0
    4.6220   -5.0763    0.0000 C   0  0  0  0  0  0  0  0  0  0  0  0
    6.9331   -5.0763    0.0000 C   0  0  0  0  0  0  0  0  0  0  0  0
    5.7677   -5.7282    0.0000 C   0  0  0  0  0  0  0  0  0  0  0  0
    2.3110   -7.7232    0.0000 C   0  0  0  0  0  0  0  0  0  0  0  0
    5.7677   -3.0616    0.0000 C   0  0  0  0  0  0  0  0  0  0  0  0
    4.6220   -3.7332    0.0000 C   0  0  0  0  0  0  0  0  0  0  0  0
    2.3110   -5.0763    0.0000 C   0  0  0  0  0  0  0  0  0  0  0  0
    5.7677   -7.0713    0.0000 C   0  0  0  0  0  0  0  0  0  0  0  0
    8.1972   -5.4714    0.0000 C   0  0  0  0  0  0  0  0  0  0  0  0
    4.6220   -7.7232    0.0000 C   0  0  0  0  0  0  0  0  0  0  0  0
    8.1972   -3.3184    0.0000 C   0  0  0  0  0  0  0  0  0  0  0  0
    1.1654   -7.0713    0.0000 C   0  0  0  0  0  0  0  0  0  0  0  0
    8.9675   -4.4048    0.0000 C   0  0  0  0  0  0  0  0  0  0  0  0
    0.0000   -7.7429    0.0000 O   0  0  0  0  0  0  0  0  0  0  0  0
    1.1654   -5.7282    0.0000 C   0  0  0  0  0  0  0  0  0  0  0  0
    3.4764   -4.4245    0.0000 C   0  0  0  0  0  0  0  0  0  0  0  0
    6.9331   -2.4098    0.0000 C   0  0  0  0  0  0  0  0  0  0  0  0
    8.1972   -1.9950    0.0000 O   0  0  0  0  0  0  0  0  0  0  0  0
    5.7677   -4.4245    0.0000 H   0  0  0  0  0  0  0  0  0  0  0  0
    6.9331   -6.3997    0.0000 H   0  0  0  0  0  0  0  0  0  0  0  0
    4.6220   -6.3997    0.0000 H   0  0  0  0  0  0  0  0  0  0  0  0
    9.3626   -1.3234    0.0000 C   0  0  0  0  0  0  0  0  0  0  0  0
    9.3626    0.0000    0.0000 O   0  0  0  0  0  0  0  0  0  0  0  0
   10.5082   -1.9950    0.0000 C   0  0  0  0  0  0  0  0  0  0  0  0
   11.6736   -1.3234    0.0000 C   0  0  0  0  0  0  0  0  0  0  0  0
   12.8192   -1.9950    0.0000 C   0  0  0  0  0  0  0  0  0  0  0  0
   13.9649   -1.3234    0.0000 C   0  0  0  0  0  0  0  0  0  0  0  0
   15.1303   -1.9950    0.0000 C   0  0  0  0  0  0  0  0  0  0  0  0
   16.2759   -1.3234    0.0000 C   0  0  0  0  0  0  0  0  0  0  0  0
   17.4413   -1.9950    0.0000 C   0  0  0  0  0  0  0  0  0  0  0  0
   18.5869   -1.3234    0.0000 C   0  0  0  0  0  0  0  0  0  0  0  0
   19.7523   -1.9950    0.0000 C   0  0  0  0  0  0  0  0  0  0  0  0
  1  3  1  0  0  0  0
  1  4  1  0  0  0  0
  1 10  1  0  0  0  0
  1 19  1  1  0  0  0
  2  8  1  0  0  0  0
  2 14  1  0  0  0  0
  2 20  1  1  0  0  0
  2  5  1  0  0  0  0
  3  7  2  0  0  0  0
  3 13  1  0  0  0  0
  4  6  1  0  0  0  0
  4  9  1  0  0  0  0
  4 24  1  6  0  0  0
  5  6  1  0  0  0  0
  5 12  1  0  0  0  0
  5 23  1  6  0  0  0
  6 11  1  0  0  0  0
  6 22  1  1  0  0  0
  7 15  1  0  0  0  0
  8  9  1  0  0  0  0
 10 18  1  0  0  0  0
 11 13  1  0  0  0  0
 12 16  1  0  0  0  0
 14 21  1  1  0  0  0
 14 16  1  0  0  0  0
 15 18  1  0  0  0  0
 15 17  2  0  0  0  0
 21 25  1  0  0  0  0
 25 26  2  0  0  0  0
 25 27  1  0  0  0  0
 27 28  1  0  0  0  0
 28 29  1  0  0  0  0
 29 30  1  0  0  0  0
 30 31  1  0  0  0  0
 31 32  1  0  0  0  0
 32 33  1  0  0  0  0
 33 34  1  0  0  0  0
 34 35  1  0  0  0  0
M  END
> <ID>
11496

> <Formula>
C29H46O3

> <FW>
442.6737

> <DSSTox_CID>
26198

> <DSSTox_RID>
81429

> <DSSTox_GSID>
46198

> <DSSTox_FileID_Sort>
6110

> <TS_ChemName>
Testosterone decanoate

> <TS_ChemName_Synonyms>


> <TS_CASRN>
5721-91-5

> <CASRN_ChemName_Relationship>
primary

> <TS_Description>
single chemical compound

> <ChemNote>
stereochem

> <STRUCTURE_Shown>
tested chemical

> <STRUCTURE_Formula>
C29H46O3

> <STRUCTURE_MW>
442.6737

> <STRUCTURE_ChemType>
defined organic

> <STRUCTURE_DefinedOrganicForm>
parent

> <STRUCTURE_IUPAC>
(17beta)-3-oxoandrost-4-en-17-yl decanoate

> <STRUCTURE_SMILES>
CCCCCCCCCC(=O)O[C@H]2CC[C@H]3[C@@H]4CCC1=CC(=O)CC[C@]1(C)[C@H]4CC[C@]23C

> <STRUCTURE_SMILES_Desalt>
CCCCCCCCCC(=O)O[C@H]2CC[C@H]3[C@@H]4CCC1=CC(=O)CC[C@]1(C)[C@H]4CC[C@]23C

> <Substance_modify_yyyymmdd>
20110817

$$$$
