5728-52-9
ChemmineR-0915142007XD

 16 17  0  0  0  0  0  0  0  0  1 V2000
    1.9954    0.0000    0.0000 O   0  0  0  0  0  0  0  0  0  0  0  0
    1.3269   -1.1473    0.0000 C   0  0  0  0  0  0  0  0  0  0  0  0
    0.0000   -1.1473    0.0000 O   0  0  0  0  0  0  0  0  0  0  0  0
    1.9954   -2.3046    0.0000 C   0  0  0  0  0  0  0  0  0  0  0  0
    3.3223   -2.3046    0.0000 C   0  0  0  0  0  0  0  0  0  0  0  0
    3.9907   -1.1473    0.0000 C   0  0  0  0  0  0  0  0  0  0  0  0
    5.3176   -1.1473    0.0000 C   0  0  0  0  0  0  0  0  0  0  0  0
    5.9861   -2.3046    0.0000 C   0  0  0  0  0  0  0  0  0  0  0  0
    5.3176   -3.4520    0.0000 C   0  0  0  0  0  0  0  0  0  0  0  0
    3.9907   -3.4520    0.0000 C   0  0  0  0  0  0  0  0  0  0  0  0
    7.3130   -2.3046    0.0000 C   0  0  0  0  0  0  0  0  0  0  0  0
    7.9814   -1.1473    0.0000 C   0  0  0  0  0  0  0  0  0  0  0  0
    9.3083   -1.1473    0.0000 C   0  0  0  0  0  0  0  0  0  0  0  0
    9.9768   -2.3046    0.0000 C   0  0  0  0  0  0  0  0  0  0  0  0
    9.3083   -3.4520    0.0000 C   0  0  0  0  0  0  0  0  0  0  0  0
    7.9814   -3.4520    0.0000 C   0  0  0  0  0  0  0  0  0  0  0  0
  1  2  1  0  0  0  0
  2  3  2  0  0  0  0
  2  4  1  0  0  0  0
  4  5  1  0  0  0  0
  5  6  2  0  0  0  0
  5 10  1  0  0  0  0
  6  7  1  0  0  0  0
  7  8  2  0  0  0  0
  8  9  1  0  0  0  0
  8 11  1  0  0  0  0
  9 10  2  0  0  0  0
 11 12  2  0  0  0  0
 11 16  1  0  0  0  0
 12 13  1  0  0  0  0
 13 14  2  0  0  0  0
 14 15  1  0  0  0  0
 15 16  2  0  0  0  0
M  END
> <ID>
10917

> <Formula>
C14H12O2

> <FW>
212.2439

> <DSSTox_CID>
25389

> <DSSTox_RID>
80846

> <DSSTox_GSID>
45389

> <DSSTox_FileID_Sort>
5527

> <TS_ChemName>
Felbinac

> <TS_ChemName_Synonyms>


> <TS_CASRN>
5728-52-9

> <CASRN_ChemName_Relationship>
primary

> <TS_Description>
single chemical compound

> <ChemNote>


> <STRUCTURE_Shown>
tested chemical

> <STRUCTURE_Formula>
C14H12O2

> <STRUCTURE_MW>
212.2439

> <STRUCTURE_ChemType>
defined organic

> <STRUCTURE_DefinedOrganicForm>
parent

> <STRUCTURE_IUPAC>
biphenyl-4-ylacetic acid

> <STRUCTURE_SMILES>
OC(=O)Cc1ccc(cc1)c2ccccc2

> <STRUCTURE_SMILES_Desalt>
OC(=O)Cc1ccc(cc1)c2ccccc2

> <Substance_modify_yyyymmdd>
20100107

$$$$
