573-20-6
ChemmineR-0915142007XD

 19 20  0  0  0  0  0  0  0  0  1 V2000
    3.4411   -3.3198    0.0000 C   0  0  0  0  0  0  0  0  0  0  0  0
    3.4411   -6.0056    0.0000 C   0  0  0  0  0  0  0  0  0  0  0  0
    2.3034   -3.9819    0.0000 C   0  0  0  0  0  0  0  0  0  0  0  0
    2.3034   -5.3434    0.0000 C   0  0  0  0  0  0  0  0  0  0  0  0
    4.5974   -4.0192    0.0000 C   0  0  0  0  0  0  0  0  0  0  0  0
    4.5974   -5.3061    0.0000 C   0  0  0  0  0  0  0  0  0  0  0  0
    3.4411   -2.0050    0.0000 O   0  0  0  0  0  0  0  0  0  0  0  0
    3.4411   -7.3391    0.0000 O   0  0  0  0  0  0  0  0  0  0  0  0
    4.5974   -1.3522    0.0000 C   0  0  0  0  0  0  0  0  0  0  0  0
    4.5974   -7.9732    0.0000 C   0  0  0  0  0  0  0  0  0  0  0  0
    4.5974    0.0000    0.0000 O   0  0  0  0  0  0  0  0  0  0  0  0
    4.5974   -9.3254    0.0000 O   0  0  0  0  0  0  0  0  0  0  0  0
    1.1284   -3.3198    0.0000 C   0  0  0  0  0  0  0  0  0  0  0  0
    5.7724   -3.3758    0.0000 C   0  0  0  0  0  0  0  0  0  0  0  0
    1.1284   -6.0056    0.0000 C   0  0  0  0  0  0  0  0  0  0  0  0
    5.7444   -2.0050    0.0000 C   0  0  0  0  0  0  0  0  0  0  0  0
    5.7258   -7.2925    0.0000 C   0  0  0  0  0  0  0  0  0  0  0  0
    0.0000   -4.0192    0.0000 C   0  0  0  0  0  0  0  0  0  0  0  0
    0.0000   -5.3061    0.0000 C   0  0  0  0  0  0  0  0  0  0  0  0
  1  3  2  0  0  0  0
  1  5  1  0  0  0  0
  1  7  1  0  0  0  0
  2  6  1  0  0  0  0
  2  8  1  0  0  0  0
  2  4  2  0  0  0  0
  3  4  1  0  0  0  0
  3 13  1  0  0  0  0
  4 15  1  0  0  0  0
  5  6  2  0  0  0  0
  5 14  1  0  0  0  0
  7  9  1  0  0  0  0
  8 10  1  0  0  0  0
  9 11  2  0  0  0  0
  9 16  1  0  0  0  0
 10 12  2  0  0  0  0
 10 17  1  0  0  0  0
 13 18  2  0  0  0  0
 15 19  2  0  0  0  0
 18 19  1  0  0  0  0
M  END
> <ID>
11530

> <Formula>
C15H14O4

> <FW>
258.2693

> <DSSTox_CID>
26236

> <DSSTox_RID>
81463

> <DSSTox_GSID>
46236

> <DSSTox_FileID_Sort>
6144

> <TS_ChemName>
Acetomenaphthone

> <TS_ChemName_Synonyms>


> <TS_CASRN>
573-20-6

> <CASRN_ChemName_Relationship>
primary

> <TS_Description>
single chemical compound

> <ChemNote>


> <STRUCTURE_Shown>
tested chemical

> <STRUCTURE_Formula>
C15H14O4

> <STRUCTURE_MW>
258.2693

> <STRUCTURE_ChemType>
defined organic

> <STRUCTURE_DefinedOrganicForm>
parent

> <STRUCTURE_IUPAC>
2-methylnaphthalene-1,4-diyl diacetate

> <STRUCTURE_SMILES>
CC(=O)Oc1cc(C)c(OC(C)=O)c2ccccc12

> <STRUCTURE_SMILES_Desalt>
CC(=O)Oc1cc(C)c(OC(C)=O)c2ccccc12

> <Substance_modify_yyyymmdd>
20110817

$$$$
