573-17-1
ChemmineR-0915142007XD

 15 17  0  0  0  0  0  0  0  0  1 V2000
    5.7643   -0.6704    0.0000 C    0  0  0  0  0  0  0  0  0  0  0  0
    4.6091    0.0000    0.0000 C    0  0  0  0  0  0  0  0  0  0  0  0
    0.0000   -2.6577    0.0000 C    0  0  0  0  0  0  0  0  0  0  0  0
    0.0000   -3.9866    0.0000 C    0  0  0  0  0  0  0  0  0  0  0  0
    5.7643   -1.9993    0.0000 C    0  0  0  0  0  0  0  0  0  0  0  0
    3.4598   -0.6704    0.0000 C    0  0  0  0  0  0  0  0  0  0  0  0
    1.1553   -1.9993    0.0000 C    0  0  0  0  0  0  0  0  0  0  0  0
    1.1553   -4.6570    0.0000 C    0  0  0  0  0  0  0  0  0  0  0  0
    4.6091   -3.9866    0.0000 C    0  0  0  0  0  0  0  0  0  0  0  0
    4.6091   -2.6577    0.0000 C    0  0  0  0  0  0  0  0  0  0  0  0
    3.4598   -1.9993    0.0000 C    0  0  0  0  0  0  0  0  0  0  0  0
    2.3045   -2.6577    0.0000 C    0  0  0  0  0  0  0  0  0  0  0  0
    2.3045   -3.9866    0.0000 C    0  0  0  0  0  0  0  0  0  0  0  0
    3.4598   -4.6570    0.0000 C    0  0  0  0  0  0  0  0  0  0  0  0
    3.4598   -5.9858    0.0000 Br   0  0  0  0  0  0  0  0  0  0  0  0
  1  2  1  0  0  0  0
  1  5  2  0  0  0  0
  2  6  2  0  0  0  0
  3  4  1  0  0  0  0
  3  7  2  0  0  0  0
  4  8  2  0  0  0  0
  5 10  1  0  0  0  0
  6 11  1  0  0  0  0
  7 12  1  0  0  0  0
  8 13  1  0  0  0  0
  9 10  1  0  0  0  0
  9 14  2  0  0  0  0
 10 11  2  0  0  0  0
 11 12  1  0  0  0  0
 12 13  2  0  0  0  0
 13 14  1  0  0  0  0
 14 15  1  0  0  0  0
M  END
> <ID>
14185

> <Formula>
C14H9Br

> <FW>
257.1253

> <DSSTox_CID>
29277

> <DSSTox_RID>
83396

> <DSSTox_GSID>
49321

> <DSSTox_FileID_Sort>
8071

> <TS_ChemName>
9-Bromophenanthrene

> <TS_ChemName_Synonyms>


> <TS_CASRN>
573-17-1

> <CASRN_ChemName_Relationship>
primary

> <TS_Description>
single chemical compound

> <ChemNote>


> <STRUCTURE_Shown>
tested chemical

> <STRUCTURE_Formula>
C14H9Br

> <STRUCTURE_MW>
257.1253

> <STRUCTURE_ChemType>
defined organic

> <STRUCTURE_DefinedOrganicForm>
parent

> <STRUCTURE_IUPAC>
9-bromophenanthrene

> <STRUCTURE_SMILES>
Brc2cc3ccccc3c1ccccc12

> <STRUCTURE_SMILES_Desalt>
Brc2cc3ccccc3c1ccccc12

> <Substance_modify_yyyymmdd>
20111204

$$$$
