5743-49-7
ChemmineR-0915142007XD

 19 14  0  0  0  0  0  0  0  0  2 V2000
    6.9039   -2.0044    0.0000 C    0  0  0  0  0  0  0  0  0  0  0  0
    5.7548   -1.3541    0.0000 C    0  0  0  0  0  0  0  0  0  0  0  0
    5.7548    0.0000    0.0000 O    0  0  0  0  0  0  0  0  0  0  0  0
    4.5967   -2.0044    0.0000 C    0  0  0  0  0  0  0  0  0  0  0  0
    3.4475   -1.3541    0.0000 C    0  0  0  0  0  0  0  0  0  0  0  0
    2.2894   -2.0044    0.0000 C    0  0  0  0  0  0  0  0  0  0  0  0
    1.1403   -1.3541    0.0000 O    0  5  0  0  0  0  0  0  0  0  0  0
    2.2894   -3.3406    0.0000 O    0  0  0  0  0  0  0  0  0  0  0  0
    7.3048   -6.2715    0.0000 C    0  0  0  0  0  0  0  0  0  0  0  0
    6.1556   -5.6122    0.0000 C    0  0  0  0  0  0  0  0  0  0  0  0
    6.1556   -4.2671    0.0000 O    0  0  0  0  0  0  0  0  0  0  0  0
    4.9976   -6.2715    0.0000 C    0  0  0  0  0  0  0  0  0  0  0  0
    3.8484   -5.6122    0.0000 C    0  0  0  0  0  0  0  0  0  0  0  0
    2.6903   -6.2715    0.0000 C    0  0  0  0  0  0  0  0  0  0  0  0
    1.5411   -5.6122    0.0000 O    0  5  0  0  0  0  0  0  0  0  0  0
    2.6903   -7.5988    0.0000 O    0  0  0  0  0  0  0  0  0  0  0  0
    4.2582   -3.6257    0.0000 Ca   0  2  0  0  0  0  0  0  0  0  0  0
    0.0000   -3.8662    0.0000 O    0  0  0  0  0  0  0  0  0  0  0  0
    8.9083   -4.0266    0.0000 O    0  0  0  0  0  0  0  0  0  0  0  0
  1  2  1  0  0  0  0
  2  3  2  0  0  0  0
  2  4  1  0  0  0  0
  4  5  1  0  0  0  0
  5  6  1  0  0  0  0
  6  7  1  0  0  0  0
  6  8  2  0  0  0  0
  9 10  1  0  0  0  0
 10 11  2  0  0  0  0
 10 12  1  0  0  0  0
 12 13  1  0  0  0  0
 13 14  1  0  0  0  0
 14 15  1  0  0  0  0
 14 16  2  0  0  0  0
M  END
> <ID>
11769

> <Formula>
C10H18CaO8

> <FW>
306.3231 (115.1078+115.1078+40.0769+18.0153+18.0153)

> <DSSTox_CID>
26539

> <DSSTox_RID>
81703

> <DSSTox_GSID>
46539

> <DSSTox_FileID_Sort>
6384

> <TS_ChemName>
Calcium levulinate

> <TS_ChemName_Synonyms>


> <TS_CASRN>
5743-49-7

> <CASRN_ChemName_Relationship>
primary

> <TS_Description>
single chemical compound

> <ChemNote>


> <STRUCTURE_Shown>
tested chemical

> <STRUCTURE_Formula>
C10H18CaO8

> <STRUCTURE_MW>
306.3231

> <STRUCTURE_ChemType>
defined organic

> <STRUCTURE_DefinedOrganicForm>
salt

> <STRUCTURE_IUPAC>
calcium 4-oxopentanoate hydrate (1:2:2)

> <STRUCTURE_SMILES>
[Ca+2].O.O.O=C([O-])CCC(C)=O.CC(=O)CCC([O-])=O

> <STRUCTURE_SMILES_Desalt>
CC(=O)CCC(=O)O

> <Substance_modify_yyyymmdd>
20110811

$$$$
