5743-28-2
ChemmineR-0915142007XD

 27 24  0  0  1  0  0  0  0  0  2 V2000
    3.8277   -1.7276    0.0000 C    0  0  0  0  0  0  0  0  0  0  0  0
    4.8891   -0.9259    0.0000 O    0  0  0  0  0  0  0  0  0  0  0  0
    4.2116   -2.9922    0.0000 C    0  0  0  0  0  0  0  0  0  0  0  0
    5.9618   -1.7276    0.0000 C    0  0  0  0  0  0  0  0  0  0  0  0
    5.5440   -2.9922    0.0000 C    0  0  0  0  0  0  0  0  0  0  0  0
    3.4551   -4.0535    0.0000 O    0  5  0  0  0  0  0  0  0  0  0  0
    6.3231   -4.0535    0.0000 O    0  0  0  0  0  0  0  0  0  0  0  0
    7.2490   -1.2985    0.0000 O    0  0  0  0  0  0  0  0  0  0  0  0
    2.5405   -1.2985    0.0000 C    0  0  0  0  0  0  0  0  0  0  0  0
    1.5469   -2.1905    0.0000 C    0  0  0  0  0  0  0  0  0  0  0  0
    2.2695    0.0000    0.0000 O    0  0  0  0  0  0  0  0  0  0  0  0
    0.3049   -1.7727    0.0000 O    0  0  0  0  0  0  0  0  0  0  0  0
    3.5341   -8.9539    0.0000 C    0  0  0  0  0  0  0  0  0  0  0  0
    4.5842   -8.1635    0.0000 O    0  0  0  0  0  0  0  0  0  0  0  0
    3.9180  -10.2185    0.0000 C    0  0  0  0  0  0  0  0  0  0  0  0
    5.6569   -8.9539    0.0000 C    0  0  0  0  0  0  0  0  0  0  0  0
    5.2391  -10.2185    0.0000 C    0  0  0  0  0  0  0  0  0  0  0  0
    3.1502  -11.2912    0.0000 O    0  5  0  0  0  0  0  0  0  0  0  0
    6.0182  -11.2912    0.0000 O    0  0  0  0  0  0  0  0  0  0  0  0
    6.9441   -8.5249    0.0000 O    0  0  0  0  0  0  0  0  0  0  0  0
    2.2357   -8.5249    0.0000 C    0  0  0  0  0  0  0  0  0  0  0  0
    1.2420   -9.4282    0.0000 C    0  0  0  0  0  0  0  0  0  0  0  0
    1.9647   -7.2377    0.0000 O    0  0  0  0  0  0  0  0  0  0  0  0
    0.0000   -9.0104    0.0000 O    0  0  0  0  0  0  0  0  0  0  0  0
    4.7762   -6.0521    0.0000 Ca   0  2  0  0  0  0  0  0  0  0  0  0
    0.5871   -5.2052    0.0000 O    0  0  0  0  0  0  0  0  0  0  0  0
    9.2362   -5.1375    0.0000 O    0  0  0  0  0  0  0  0  0  0  0  0
  1  2  1  1  0  0  0
  1  3  1  0  0  0  0
  1  9  1  0  0  0  0
  2  4  1  0  0  0  0
  3  5  2  0  0  0  0
  3  6  1  0  0  0  0
  4  5  1  0  0  0  0
  4  8  2  0  0  0  0
  5  7  1  0  0  0  0
  9 10  1  0  0  0  0
  9 11  1  6  0  0  0
 10 12  1  0  0  0  0
 13 14  1  1  0  0  0
 13 15  1  0  0  0  0
 13 21  1  0  0  0  0
 14 16  1  0  0  0  0
 15 17  2  0  0  0  0
 15 18  1  0  0  0  0
 16 17  1  0  0  0  0
 16 20  2  0  0  0  0
 17 19  1  0  0  0  0
 21 22  1  0  0  0  0
 21 23  1  6  0  0  0
 22 24  1  0  0  0  0
M  END
> <ID>
12808

> <Formula>
C12H18CaO14

> <FW>
426.3409 (175.1167+175.1167+40.0769+18.0153+18.0153)

> <DSSTox_CID>
27687

> <DSSTox_RID>
82503

> <DSSTox_GSID>
47687

> <DSSTox_FileID_Sort>
7184

> <TS_ChemName>
Calcium L-ascorbate dihydrate

> <TS_ChemName_Synonyms>
L-Ascorbic acid, calcium salt, hydrate (2:1:2)

> <TS_CASRN>
5743-28-2

> <CASRN_ChemName_Relationship>
primary

> <TS_Description>
single chemical compound

> <ChemNote>
stereochem; parent [50-81-7]

> <STRUCTURE_Shown>
tested chemical

> <STRUCTURE_Formula>
C12H18CaO14

> <STRUCTURE_MW>
426.3409

> <STRUCTURE_ChemType>
defined organic

> <STRUCTURE_DefinedOrganicForm>
salt

> <STRUCTURE_IUPAC>
calcium (2R)-2-[(1S)-1,2-dihydroxyethyl]-4-hydroxy-5-oxo-2,5-dihydrofuran-3-olate hydrate (1:2:2)

> <STRUCTURE_SMILES>
[Ca+2].O.O.OC=1C(=O)O[C@H]([C@@H](O)CO)C=1[O-].OC[C@H](O)[C@H]1OC(=O)C(O)=C1[O-]

> <STRUCTURE_SMILES_Desalt>
OC=1C(=O)O[C@H]([C@@H](O)CO)C=1O

> <Substance_modify_yyyymmdd>
20101215

$$$$
