5743-04-4
ChemmineR-0915142007XD

 11  6  0  0  0  0  0  0  0  0  2 V2000
    3.2311   -4.8467    0.0000 O    0  0  0  0  0  0  0  0  0  0  0  0
    3.5050    0.0000    0.0000 O    0  0  0  0  0  0  0  0  0  0  0  0
    3.2174   -2.4507    0.0000 Cd   0  2  0  0  0  0  0  0  0  0  0  0
    5.5176   -2.4028    0.0000 C    0  0  0  0  0  0  0  0  0  0  0  0
    6.8456   -2.4028    0.0000 O    0  0  0  0  0  0  0  0  0  0  0  0
    4.8604   -1.2459    0.0000 O    0  5  0  0  0  0  0  0  0  0  0  0
    4.8604   -3.5529    0.0000 C    0  0  0  0  0  0  0  0  0  0  0  0
    1.3280   -2.4028    0.0000 C    0  0  0  0  0  0  0  0  0  0  0  0
    0.0000   -2.4028    0.0000 O    0  0  0  0  0  0  0  0  0  0  0  0
    1.9989   -3.5529    0.0000 O    0  5  0  0  0  0  0  0  0  0  0  0
    1.9989   -1.2459    0.0000 C    0  0  0  0  0  0  0  0  0  0  0  0
  4  5  2  0  0  0  0
  4  6  1  0  0  0  0
  4  7  1  0  0  0  0
  8  9  2  0  0  0  0
  8 10  1  0  0  0  0
  8 11  1  0  0  0  0
M  END
> <ID>
6608

> <Formula>
C4H10CdO6

> <FW>
266.5296 (18.0153+18.0153+112.4099+59.0446+59.0446)

> <DSSTox_CID>
13281

> <DSSTox_RID>
79060

> <DSSTox_GSID>
33281

> <DSSTox_FileID_Sort>
3742

> <TS_ChemName>
Cadmium acetate dihydrate

> <TS_ChemName_Synonyms>
Cadmium acetate, dihydrate

> <TS_CASRN>
5743-04-4

> <CASRN_ChemName_Relationship>
primary

> <TS_Description>
single chemical compound

> <ChemNote>


> <STRUCTURE_Shown>
tested chemical

> <STRUCTURE_Formula>
C4H10CdO6

> <STRUCTURE_MW>
266.5296

> <STRUCTURE_ChemType>
organometallic

> <STRUCTURE_DefinedOrganicForm>


> <STRUCTURE_IUPAC>
cadmium acetate hydrate (1:2:2)

> <STRUCTURE_SMILES>
O.[Cd+2].O.[O-]C(C)=O.[O-]C(C)=O

> <STRUCTURE_SMILES_Desalt>
CC(=O)O

> <Substance_modify_yyyymmdd>
20080429

$$$$
