57460-41-0
ChemmineR-0915142007XD

 26 27  0  0  0  0  0  0  0  0  1 V2000
   12.6360   -0.6378    0.0000 C   0  0  0  0  0  0  0  0  0  0  0  0
   11.4810    0.0000    0.0000 N   0  0  0  0  0  0  0  0  0  0  0  0
   13.7910    0.0000    0.0000 N   0  0  0  0  0  0  0  0  0  0  0  0
   12.6360   -2.0169    0.0000 O   0  0  0  0  0  0  0  0  0  0  0  0
    2.2928   -2.7065    0.0000 N   0  0  0  0  0  0  0  0  0  0  0  0
    1.1378   -2.0169    0.0000 C   0  0  0  0  0  0  0  0  0  0  0  0
   10.3433   -0.6378    0.0000 C   0  0  0  0  0  0  0  0  0  0  0  0
    6.8955   -2.7065    0.0000 O   0  0  0  0  0  0  0  0  0  0  0  0
    4.6028   -2.7065    0.0000 C   0  0  0  0  0  0  0  0  0  0  0  0
    8.1022   -2.0169    0.0000 C   0  0  0  0  0  0  0  0  0  0  0  0
    3.4478   -2.0169    0.0000 C   0  0  0  0  0  0  0  0  0  0  0  0
    5.7578   -2.0169    0.0000 C   0  0  0  0  0  0  0  0  0  0  0  0
   14.9977   -0.7068    0.0000 C   0  0  0  0  0  0  0  0  0  0  0  0
    9.2400    0.0000    0.0000 C   0  0  0  0  0  0  0  0  0  0  0  0
   10.3433   -2.0169    0.0000 C   0  0  0  0  0  0  0  0  0  0  0  0
    8.1022   -0.6378    0.0000 C   0  0  0  0  0  0  0  0  0  0  0  0
    9.2400   -2.6375    0.0000 C   0  0  0  0  0  0  0  0  0  0  0  0
    4.6028   -4.0339    0.0000 O   0  0  0  0  0  0  0  0  0  0  0  0
    0.5172   -3.1719    0.0000 C   0  0  0  0  0  0  0  0  0  0  0  0
    1.8273   -0.8619    0.0000 C   0  0  0  0  0  0  0  0  0  0  0  0
    0.0000   -1.3791    0.0000 C   0  0  0  0  0  0  0  0  0  0  0  0
   14.9977   -2.0169    0.0000 C   0  0  0  0  0  0  0  0  0  0  0  0
   16.1010    0.0000    0.0000 C   0  0  0  0  0  0  0  0  0  0  0  0
   16.1010   -2.7065    0.0000 C   0  0  0  0  0  0  0  0  0  0  0  0
   17.2388   -0.7068    0.0000 C   0  0  0  0  0  0  0  0  0  0  0  0
   17.2388   -2.0169    0.0000 C   0  0  0  0  0  0  0  0  0  0  0  0
  1  2  1  0  0  0  0
  1  3  1  0  0  0  0
  1  4  2  0  0  0  0
  2  7  1  0  0  0  0
  3 13  1  0  0  0  0
  5 11  1  0  0  0  0
  5  6  1  0  0  0  0
  6 19  1  0  0  0  0
  6 20  1  0  0  0  0
  6 21  1  0  0  0  0
  7 14  1  0  0  0  0
  7 15  2  0  0  0  0
  8 10  1  0  0  0  0
  8 12  1  0  0  0  0
  9 12  1  0  0  0  0
  9 11  1  0  0  0  0
  9 18  1  0  0  0  0
 10 17  2  0  0  0  0
 10 16  1  0  0  0  0
 13 22  1  0  0  0  0
 13 23  1  0  0  0  0
 14 16  2  0  0  0  0
 15 17  1  0  0  0  0
 22 24  1  0  0  0  0
 23 25  1  0  0  0  0
 24 26  1  0  0  0  0
 25 26  1  0  0  0  0
M  END
> <ID>
11670

> <Formula>
C20H33N3O3

> <FW>
363.4943

> <DSSTox_CID>
26426

> <DSSTox_RID>
81604

> <DSSTox_GSID>
46426

> <DSSTox_FileID_Sort>
6285

> <TS_ChemName>
Talinolol

> <TS_ChemName_Synonyms>


> <TS_CASRN>
57460-41-0

> <CASRN_ChemName_Relationship>
primary

> <TS_Description>
single chemical compound

> <ChemNote>


> <STRUCTURE_Shown>
tested chemical

> <STRUCTURE_Formula>
C20H33N3O3

> <STRUCTURE_MW>
363.4943

> <STRUCTURE_ChemType>
defined organic

> <STRUCTURE_DefinedOrganicForm>
parent

> <STRUCTURE_IUPAC>
1-{4-[3-(tert-butylamino)-2-hydroxypropoxy]phenyl}-3-cyclohexylurea

> <STRUCTURE_SMILES>
O=C(NC1CCCCC1)Nc2ccc(OCC(O)CNC(C)(C)C)cc2

> <STRUCTURE_SMILES_Desalt>
O=C(NC1CCCCC1)Nc2ccc(OCC(O)CNC(C)(C)C)cc2

> <Substance_modify_yyyymmdd>
20110813

$$$$
