57470-78-7
ChemmineR-0915142007XD

 28 27  0  0  0  0  0  0  0  0  1 V2000
   12.6890   -3.3375    0.0000 C    0  0  0  0  0  0  0  0  0  0  0  0
    8.0616   -3.3375    0.0000 C    0  0  0  0  0  0  0  0  0  0  0  0
   11.5120   -3.9986    0.0000 N    0  0  0  0  0  0  0  0  0  0  0  0
    8.0616   -2.0154    0.0000 C    0  0  0  0  0  0  0  0  0  0  0  0
    6.9008   -3.9986    0.0000 C    0  0  0  0  0  0  0  0  0  0  0  0
   13.8176   -3.9986    0.0000 N    0  0  0  0  0  0  0  0  0  0  0  0
    9.2064   -3.9986    0.0000 C    0  0  0  0  0  0  0  0  0  0  0  0
   10.3673   -3.3375    0.0000 C    0  0  0  0  0  0  0  0  0  0  0  0
   12.6890   -2.0154    0.0000 O    0  0  0  0  0  0  0  0  0  0  0  0
    6.9008   -1.3382    0.0000 O    0  0  0  0  0  0  0  0  0  0  0  0
    2.3056   -1.3382    0.0000 N    0  0  0  0  0  0  0  0  0  0  0  0
    5.7560   -3.3375    0.0000 O    0  0  0  0  0  0  0  0  0  0  0  0
    1.1448   -2.0154    0.0000 C    0  0  0  0  0  0  0  0  0  0  0  0
    9.2064   -1.3382    0.0000 C    0  0  0  0  0  0  0  0  0  0  0  0
    4.5951   -1.3382    0.0000 C    0  0  0  0  0  0  0  0  0  0  0  0
    5.7560   -2.0154    0.0000 C    0  0  0  0  0  0  0  0  0  0  0  0
    3.4343   -2.0154    0.0000 C    0  0  0  0  0  0  0  0  0  0  0  0
   10.3673   -2.0154    0.0000 C    0  0  0  0  0  0  0  0  0  0  0  0
    4.5951    0.0000    0.0000 O    0  0  0  0  0  0  0  0  0  0  0  0
   13.8176   -5.3368    0.0000 C    0  0  0  0  0  0  0  0  0  0  0  0
   14.9785   -3.3375    0.0000 C    0  0  0  0  0  0  0  0  0  0  0  0
    6.9008   -5.3368    0.0000 C    0  0  0  0  0  0  0  0  0  0  0  0
    0.4837   -0.8545    0.0000 C    0  0  0  0  0  0  0  0  0  0  0  0
    1.8058   -3.1602    0.0000 C    0  0  0  0  0  0  0  0  0  0  0  0
    0.0000   -2.6603    0.0000 C    0  0  0  0  0  0  0  0  0  0  0  0
   12.6890   -5.9979    0.0000 C    0  0  0  0  0  0  0  0  0  0  0  0
   16.1233   -3.9986    0.0000 C    0  0  0  0  0  0  0  0  0  0  0  0
    3.8535   -4.5790    0.0000 Cl   0  0  0  0  0  0  0  0  0  0  0  0
  1  3  1  0  0  0  0
  1  6  1  0  0  0  0
  1  9  2  0  0  0  0
  2  7  1  0  0  0  0
  2  5  1  0  0  0  0
  2  4  2  0  0  0  0
  3  8  1  0  0  0  0
  4 14  1  0  0  0  0
  4 10  1  0  0  0  0
  5 12  2  0  0  0  0
  5 22  1  0  0  0  0
  6 20  1  0  0  0  0
  6 21  1  0  0  0  0
  7  8  2  0  0  0  0
  8 18  1  0  0  0  0
 10 16  1  0  0  0  0
 11 17  1  0  0  0  0
 11 13  1  0  0  0  0
 13 23  1  0  0  0  0
 13 24  1  0  0  0  0
 13 25  1  0  0  0  0
 14 18  2  0  0  0  0
 15 16  1  0  0  0  0
 15 17  1  0  0  0  0
 15 19  1  0  0  0  0
 20 26  1  0  0  0  0
 21 27  1  0  0  0  0
M  END
> <ID>
12022

> <Formula>
C20H34ClN3O4

> <FW>
415.9547 (379.4937+36.4609)

> <DSSTox_CID>
26850

> <DSSTox_RID>
81959

> <DSSTox_GSID>
46850

> <DSSTox_FileID_Sort>
6640

> <TS_ChemName>
Celiprolol hydrochloride

> <TS_ChemName_Synonyms>


> <TS_CASRN>
57470-78-7

> <CASRN_ChemName_Relationship>
primary

> <TS_Description>
single chemical compound

> <ChemNote>
parent [56980-93-9]

> <STRUCTURE_Shown>
tested chemical

> <STRUCTURE_Formula>
C20H34ClN3O4

> <STRUCTURE_MW>
415.9547

> <STRUCTURE_ChemType>
defined organic

> <STRUCTURE_DefinedOrganicForm>
complex

> <STRUCTURE_IUPAC>
3-{3-acetyl-4-[3-(tert-butylamino)-2-hydroxypropoxy]phenyl}-1,1-diethylurea hydrochloride (1:1)

> <STRUCTURE_SMILES>
Cl.CCN(CC)C(=O)Nc1ccc(OCC(O)CNC(C)(C)C)c(c1)C(C)=O

> <STRUCTURE_SMILES_Desalt>
CCN(CC)C(=O)Nc1ccc(OCC(O)CNC(C)(C)C)c(c1)C(C)=O

> <Substance_modify_yyyymmdd>
20110729

$$$$
