57524-89-7
ChemmineR-0915142007XD

 35 38  0  0  1  0  0  0  0  0  1 V2000
    6.9469   -3.7155    0.0000 C   0  0  0  0  0  0  0  0  0  0  0  0
    3.4735   -5.7227    0.0000 C   0  0  0  0  0  0  0  0  0  0  0  0
    8.2139   -3.3169    0.0000 C   0  0  0  0  0  0  0  0  0  0  0  0
    5.7939   -5.7227    0.0000 C   0  0  0  0  0  0  0  0  0  0  0  0
    6.9469   -5.0536    0.0000 C   0  0  0  0  0  0  0  0  0  0  0  0
    4.6265   -5.0394    0.0000 C   0  0  0  0  0  0  0  0  0  0  0  0
    3.4735   -7.0466    0.0000 C   0  0  0  0  0  0  0  0  0  0  0  0
    5.7796   -3.0606    0.0000 C   0  0  0  0  0  0  0  0  0  0  0  0
    4.6265   -3.7155    0.0000 C   0  0  0  0  0  0  0  0  0  0  0  0
    2.3346   -7.7014    0.0000 C   0  0  0  0  0  0  0  0  0  0  0  0
    8.2139   -1.9787    0.0000 C   0  0  0  0  0  0  0  0  0  0  0  0
    8.9684   -4.3703    0.0000 C   0  0  0  0  0  0  0  0  0  0  0  0
    8.2139   -5.4380    0.0000 C   0  0  0  0  0  0  0  0  0  0  0  0
    5.7939   -7.0323    0.0000 C   0  0  0  0  0  0  0  0  0  0  0  0
    2.3346   -5.0394    0.0000 C   0  0  0  0  0  0  0  0  0  0  0  0
    4.6265   -7.7014    0.0000 C   0  0  0  0  0  0  0  0  0  0  0  0
    1.1815   -7.0323    0.0000 C   0  0  0  0  0  0  0  0  0  0  0  0
    9.3670   -1.3097    0.0000 O   0  0  0  0  0  0  0  0  0  0  0  0
    0.0000   -7.6729    0.0000 O   0  0  0  0  0  0  0  0  0  0  0  0
    9.5378   -3.3596    0.0000 O   0  0  0  0  0  0  0  0  0  0  0  0
    6.9469   -2.3916    0.0000 C   0  0  0  0  0  0  0  0  0  0  0  0
    1.1815   -5.7227    0.0000 C   0  0  0  0  0  0  0  0  0  0  0  0
    3.4592   -3.0464    0.0000 O   0  0  0  0  0  0  0  0  0  0  0  0
    3.4735   -4.3703    0.0000 C   0  0  0  0  0  0  0  0  0  0  0  0
    7.0750   -1.3239    0.0000 C   0  0  0  0  0  0  0  0  0  0  0  0
    7.0750    0.0000    0.0000 O   0  0  0  0  0  0  0  0  0  0  0  0
    5.7939   -4.3845    0.0000 H   0  0  0  0  0  0  0  0  0  0  0  0
    6.9469   -6.3917    0.0000 H   0  0  0  0  0  0  0  0  0  0  0  0
    4.6265   -6.3775    0.0000 H   0  0  0  0  0  0  0  0  0  0  0  0
   10.1642   -4.5411    0.0000 C   0  0  0  0  0  0  0  0  0  0  0  0
   11.6304   -4.5696    0.0000 C   0  0  0  0  0  0  0  0  0  0  0  0
    9.4666   -5.6657    0.0000 O   0  0  0  0  0  0  0  0  0  0  0  0
   12.1998   -3.4592    0.0000 C   0  0  0  0  0  0  0  0  0  0  0  0
   13.5380   -3.4592    0.0000 C   0  0  0  0  0  0  0  0  0  0  0  0
   14.2355   -2.3916    0.0000 C   0  0  0  0  0  0  0  0  0  0  0  0
  1  3  1  0  0  0  0
  1  5  1  0  0  0  0
  1  8  1  0  0  0  0
  1 21  1  1  0  0  0
  2  6  1  0  0  0  0
  2  7  1  0  0  0  0
  2 15  1  0  0  0  0
  2 24  1  1  0  0  0
  3 11  1  0  0  0  0
  3 12  1  0  0  0  0
  3 20  1  6  0  0  0
  4  5  1  0  0  0  0
  4 14  1  0  0  0  0
  4  6  1  0  0  0  0
  4 27  1  1  0  0  0
  5 13  1  0  0  0  0
  5 28  1  6  0  0  0
  6  9  1  0  0  0  0
  6 29  1  6  0  0  0
  7 10  2  0  0  0  0
  7 16  1  0  0  0  0
  8  9  1  0  0  0  0
  9 23  1  1  0  0  0
 10 17  1  0  0  0  0
 11 18  2  0  0  0  0
 11 25  1  0  0  0  0
 12 13  1  0  0  0  0
 14 16  1  0  0  0  0
 15 22  1  0  0  0  0
 17 22  1  0  0  0  0
 17 19  2  0  0  0  0
 20 30  1  0  0  0  0
 25 26  1  0  0  0  0
 30 31  1  0  0  0  0
 30 32  2  0  0  0  0
 31 33  1  0  0  0  0
 33 34  1  0  0  0  0
 34 35  1  0  0  0  0
M  END
> <ID>
11083

> <Formula>
C26H38O6

> <FW>
446.5763

> <DSSTox_CID>
25633

> <DSSTox_RID>
81015

> <DSSTox_GSID>
45633

> <DSSTox_FileID_Sort>
5696

> <TS_ChemName>
Hydrocortisone valerate

> <TS_ChemName_Synonyms>
Hydrocortisone 17-valerate

> <TS_CASRN>
57524-89-7

> <CASRN_ChemName_Relationship>
primary

> <TS_Description>
single chemical compound

> <ChemNote>
stereochem; tautomers; parent [50-23-7

> <STRUCTURE_Shown>
tested chemical

> <STRUCTURE_Formula>
C26H38O6

> <STRUCTURE_MW>
446.5763

> <STRUCTURE_ChemType>
defined organic

> <STRUCTURE_DefinedOrganicForm>
parent

> <STRUCTURE_IUPAC>
(11beta)-11,21-dihydroxy-3,20-dioxopregn-4-en-17-yl pentanoate

> <STRUCTURE_SMILES>
OCC(=O)[C@@]4(OC(=O)CCCC)CC[C@@H]2[C@]4(C)C[C@H](O)[C@@H]1[C@@]3(C)CCC(=O)C=C3CC[C@H]12

> <STRUCTURE_SMILES_Desalt>
OCC(=O)[C@@]4(OC(=O)CCCC)CC[C@@H]2[C@]4(C)C[C@H](O)[C@@H]1[C@@]3(C)CCC(=O)C=C3CC[C@H]12

> <Substance_modify_yyyymmdd>
20110530

$$$$
