5752-40-9_1
ChemmineR-0915142007XD

 22 19  0  0  0  0  0  0  0  0  1 V2000
    3.4715   -2.0138    0.0000 C    0  0  0  0  0  0  0  0  0  0  0  0
    4.6437   -2.6600    0.0000 C    0  0  0  0  0  0  0  0  0  0  0  0
    3.4715   -0.6763    0.0000 O    0  0  0  0  0  0  0  0  0  0  0  0
    5.8009   -2.0138    0.0000 N    0  0  0  0  0  0  0  0  0  0  0  0
    3.4866   -4.6738    0.0000 S    0  0  0  0  0  0  0  0  0  0  0  0
    4.6437   -3.9975    0.0000 C    0  0  0  0  0  0  0  0  0  0  0  0
    2.3144   -2.6600    0.0000 O    0  0  0  0  0  0  0  0  0  0  0  0
    6.9581   -2.6600    0.0000 C    0  0  0  0  0  0  0  0  0  0  0  0
    8.0852   -2.0138    0.0000 C    0  0  0  0  0  0  0  0  0  0  0  0
   11.5567   -2.6600    0.0000 C    0  0  0  0  0  0  0  0  0  0  0  0
   10.3996   -2.0138    0.0000 C    0  0  0  0  0  0  0  0  0  0  0  0
   11.5567   -3.9975    0.0000 O    0  0  0  0  0  0  0  0  0  0  0  0
    9.2424   -2.6600    0.0000 N    0  0  0  0  0  0  0  0  0  0  0  0
   11.5567    0.0000    0.0000 S    0  0  0  0  0  0  0  0  0  0  0  0
   10.3996   -0.6612    0.0000 C    0  0  0  0  0  0  0  0  0  0  0  0
   12.7139   -1.9988    0.0000 O    0  0  0  0  0  0  0  0  0  0  0  0
    1.1722   -2.0138    0.0000 C    0  0  0  0  0  0  0  0  0  0  0  0
    0.0000   -2.6600    0.0000 C    0  0  0  0  0  0  0  0  0  0  0  0
   13.8711   -2.6600    0.0000 C    0  0  0  0  0  0  0  0  0  0  0  0
   15.0283   -2.0138    0.0000 C    0  0  0  0  0  0  0  0  0  0  0  0
    6.1916   -4.2981    0.0000 Cl   0  0  0  0  0  0  0  0  0  0  0  0
    8.0551   -4.4033    0.0000 Cl   0  0  0  0  0  0  0  0  0  0  0  0
  1  2  1  0  0  0  0
  1  3  2  0  0  0  0
  1  7  1  0  0  0  0
  2  4  1  0  0  0  0
  2  6  1  0  0  0  0
  4  8  1  0  0  0  0
  5  6  1  0  0  0  0
  7 17  1  0  0  0  0
  8  9  1  0  0  0  0
  9 13  1  0  0  0  0
 10 11  1  0  0  0  0
 10 12  2  0  0  0  0
 10 16  1  0  0  0  0
 11 13  1  0  0  0  0
 11 15  1  0  0  0  0
 14 15  1  0  0  0  0
 16 19  1  0  0  0  0
 17 18  1  0  0  0  0
 19 20  1  0  0  0  0
M  END
> <ID>
11864

> <Formula>
C12H26Cl2N2O4S2

> <FW>
397.3818 (324.4600+36.4609+36.4609)

> <DSSTox_CID>
26656

> <DSSTox_RID>
81799

> <DSSTox_GSID>
46656

> <DSSTox_FileID_Sort>
6480

> <TS_ChemName>
N,N'-1,2-Ethylenediylbiscysteine, diethyl ester dihydrochloride

> <TS_ChemName_Synonyms>


> <TS_CASRN>
5752-40-9_1

> <CASRN_ChemName_Relationship>
CAS for parent

> <TS_Description>
mixture or formulation

> <ChemNote>
CAS and structure shown for N,N'-1,2-Ethylenediylbiscysteine

> <STRUCTURE_Shown>
representative component

> <STRUCTURE_Formula>
C12H26Cl2N2O4S2

> <STRUCTURE_MW>
397.3818

> <STRUCTURE_ChemType>
defined organic

> <STRUCTURE_DefinedOrganicForm>
complex

> <STRUCTURE_IUPAC>
diethyl 2,2'-(ethane-1,2-diyldiimino)bis(3-sulfanylpropanoate) dihydrochloride

> <STRUCTURE_SMILES>
Cl.Cl.O=C(OCC)C(CS)NCCNC(CS)C(=O)OCC

> <STRUCTURE_SMILES_Desalt>
O=C(OCC)C(CS)NCCNC(CS)C(=O)OCC

> <Substance_modify_yyyymmdd>
20130911

$$$$
