57574-09-1
ChemmineR-0915142007XD

 25 27  0  0  0  0  0  0  0  0  1 V2000
    3.5256   -2.8089    0.0000 C   0  0  0  0  0  0  0  0  0  0  0  0
    4.7117   -2.1170    0.0000 C   0  0  0  0  0  0  0  0  0  0  0  0
    2.3476   -2.1170    0.0000 C   0  0  0  0  0  0  0  0  0  0  0  0
    4.7117   -0.7578    0.0000 C   0  0  0  0  0  0  0  0  0  0  0  0
    2.3476   -0.7578    0.0000 C   0  0  0  0  0  0  0  0  0  0  0  0
    7.0593   -4.8600    0.0000 C   0  0  0  0  0  0  0  0  0  0  0  0
    8.2373   -4.1516    0.0000 O   0  0  0  0  0  0  0  0  0  0  0  0
    3.5256   -4.1516    0.0000 N   0  0  0  0  0  0  0  0  0  0  0  0
    2.7760    0.0000    0.0000 C   0  0  0  0  0  0  0  0  0  0  0  0
    4.2340    0.0000    0.0000 C   0  0  0  0  0  0  0  0  0  0  0  0
    5.8897   -4.1516    0.0000 O   0  0  0  0  0  0  0  0  0  0  0  0
    5.8897   -2.8089    0.0000 C   0  0  0  0  0  0  0  0  0  0  0  0
    1.1779   -2.8089    0.0000 C   0  0  0  0  0  0  0  0  0  0  0  0
    7.0593   -6.2027    0.0000 C   0  0  0  0  0  0  0  0  0  0  0  0
    5.8897   -0.0659    0.0000 C   0  0  0  0  0  0  0  0  0  0  0  0
    1.1779   -0.0659    0.0000 C   0  0  0  0  0  0  0  0  0  0  0  0
    2.3476   -4.8600    0.0000 C   0  0  0  0  0  0  0  0  0  0  0  0
    5.8897   -6.8946    0.0000 C   0  0  0  0  0  0  0  0  0  0  0  0
    2.3476   -6.2027    0.0000 C   0  0  0  0  0  0  0  0  0  0  0  0
    3.5256   -6.8946    0.0000 C   0  0  0  0  0  0  0  0  0  0  0  0
    4.7117   -6.2027    0.0000 C   0  0  0  0  0  0  0  0  0  0  0  0
    7.0593   -2.1170    0.0000 C   0  0  0  0  0  0  0  0  0  0  0  0
    0.0000   -2.1170    0.0000 C   0  0  0  0  0  0  0  0  0  0  0  0
    7.0593   -0.7578    0.0000 C   0  0  0  0  0  0  0  0  0  0  0  0
    0.0000   -0.7578    0.0000 C   0  0  0  0  0  0  0  0  0  0  0  0
  1  2  1  0  0  0  0
  1  3  1  0  0  0  0
  1  8  1  0  0  0  0
  2  4  2  0  0  0  0
  2 12  1  0  0  0  0
  3  5  2  0  0  0  0
  3 13  1  0  0  0  0
  4 10  1  0  0  0  0
  4 15  1  0  0  0  0
  5  9  1  0  0  0  0
  5 16  1  0  0  0  0
  6 14  1  0  0  0  0
  6  7  2  0  0  0  0
  6 11  1  0  0  0  0
  8 17  1  0  0  0  0
  9 10  1  0  0  0  0
 12 22  2  0  0  0  0
 13 23  2  0  0  0  0
 14 18  1  0  0  0  0
 15 24  2  0  0  0  0
 16 25  2  0  0  0  0
 17 19  1  0  0  0  0
 18 21  1  0  0  0  0
 19 20  1  0  0  0  0
 20 21  1  0  0  0  0
 22 24  1  0  0  0  0
 23 25  1  0  0  0  0
M  END
> <ID>
13820

> <Formula>
C22H27NO2

> <FW>
337.4553

> <DSSTox_CID>
28757

> <DSSTox_RID>
83026

> <DSSTox_GSID>
48831

> <DSSTox_FileID_Sort>
7703

> <TS_ChemName>
Amineptine

> <TS_ChemName_Synonyms>


> <TS_CASRN>
57574-09-1

> <CASRN_ChemName_Relationship>
primary

> <TS_Description>
single chemical compound

> <ChemNote>


> <STRUCTURE_Shown>
tested chemical

> <STRUCTURE_Formula>
C22H27NO2

> <STRUCTURE_MW>
337.4553

> <STRUCTURE_ChemType>
defined organic

> <STRUCTURE_DefinedOrganicForm>
parent

> <STRUCTURE_IUPAC>
7-(10,11-dihydro-5H-dibenzo[a,d][7]annulen-5-ylamino)heptanoic acid

> <STRUCTURE_SMILES>
O=C(O)CCCCCCNC2c3ccccc3CCc1ccccc12

> <STRUCTURE_SMILES_Desalt>
O=C(O)CCCCCCNC2c3ccccc3CCc1ccccc12

> <Substance_modify_yyyymmdd>
20111204

$$$$
