576-26-1
ChemmineR-0915142007XD

  9  9  0  0  0  0  0  0  0  0  1 V2000
    3.4525   -1.9814    0.0000 C   0  0  0  0  0  0  0  0  0  0  0  0
    3.4525   -3.3238    0.0000 C   0  0  0  0  0  0  0  0  0  0  0  0
    2.2986   -1.3194    0.0000 C   0  0  0  0  0  0  0  0  0  0  0  0
    2.2986   -3.9857    0.0000 C   0  0  0  0  0  0  0  0  0  0  0  0
    1.1447   -1.9814    0.0000 C   0  0  0  0  0  0  0  0  0  0  0  0
    1.1447   -3.3238    0.0000 C   0  0  0  0  0  0  0  0  0  0  0  0
    4.5972   -1.3194    0.0000 C   0  0  0  0  0  0  0  0  0  0  0  0
    2.2986    0.0000    0.0000 O   0  0  0  0  0  0  0  0  0  0  0  0
    0.0000   -1.3194    0.0000 C   0  0  0  0  0  0  0  0  0  0  0  0
  1  2  1  0  0  0  0
  1  3  2  0  0  0  0
  1  7  1  0  0  0  0
  2  4  2  0  0  0  0
  3  5  1  0  0  0  0
  3  8  1  0  0  0  0
  4  6  1  0  0  0  0
  5  6  2  0  0  0  0
  5  9  1  0  0  0  0
M  END
> <ID>
3487

> <Formula>
C8H10O

> <FW>
122.1644

> <DSSTox_CID>
4063

> <DSSTox_RID>
77275

> <DSSTox_GSID>
24063

> <DSSTox_FileID_Sort>
1958

> <TS_ChemName>
2,6-Dimethylphenol

> <TS_ChemName_Synonyms>


> <TS_CASRN>
576-26-1

> <CASRN_ChemName_Relationship>
primary

> <TS_Description>
single chemical compound

> <ChemNote>


> <STRUCTURE_Shown>
tested chemical

> <STRUCTURE_Formula>
C8H10O

> <STRUCTURE_MW>
122.1644

> <STRUCTURE_ChemType>
defined organic

> <STRUCTURE_DefinedOrganicForm>
parent

> <STRUCTURE_IUPAC>
2,6-dimethylphenol

> <STRUCTURE_SMILES>
Cc1cccc(C)c1O

> <STRUCTURE_SMILES_Desalt>
Cc1cccc(C)c1O

> <Substance_modify_yyyymmdd>
20080429

$$$$
