57609-64-0
ChemmineR-0915142007XD

 23 24  0  0  0  0  0  0  0  0  1 V2000
    6.9268   -2.6480    0.0000 C   0  0  0  0  0  0  0  0  0  0  0  0
    8.0732   -2.0022    0.0000 C   0  0  0  0  0  0  0  0  0  0  0  0
    9.2196   -2.6480    0.0000 C   0  0  0  0  0  0  0  0  0  0  0  0
    5.7643   -2.0022    0.0000 O   0  0  0  0  0  0  0  0  0  0  0  0
   10.3822   -2.0022    0.0000 O   0  0  0  0  0  0  0  0  0  0  0  0
    4.6179   -2.6642    0.0000 C   0  0  0  0  0  0  0  0  0  0  0  0
    4.6179   -4.0043    0.0000 O   0  0  0  0  0  0  0  0  0  0  0  0
    3.4553   -2.0022    0.0000 C   0  0  0  0  0  0  0  0  0  0  0  0
    2.3089   -2.6642    0.0000 C   0  0  0  0  0  0  0  0  0  0  0  0
    3.4553   -0.6620    0.0000 C   0  0  0  0  0  0  0  0  0  0  0  0
    1.1625   -2.0022    0.0000 C   0  0  0  0  0  0  0  0  0  0  0  0
    2.3089    0.0000    0.0000 C   0  0  0  0  0  0  0  0  0  0  0  0
    1.1625   -0.6620    0.0000 C   0  0  0  0  0  0  0  0  0  0  0  0
    0.0000    0.0000    0.0000 N   0  0  0  0  0  0  0  0  0  0  0  0
   11.5286   -2.6642    0.0000 C   0  0  0  0  0  0  0  0  0  0  0  0
   11.5286   -3.9882    0.0000 O   0  0  0  0  0  0  0  0  0  0  0  0
   12.6750   -2.0183    0.0000 C   0  0  0  0  0  0  0  0  0  0  0  0
   12.6750   -0.6782    0.0000 C   0  0  0  0  0  0  0  0  0  0  0  0
   13.8375   -2.6642    0.0000 C   0  0  0  0  0  0  0  0  0  0  0  0
   13.8375    0.0000    0.0000 C   0  0  0  0  0  0  0  0  0  0  0  0
   14.9839   -2.0183    0.0000 C   0  0  0  0  0  0  0  0  0  0  0  0
   14.9839   -0.6782    0.0000 C   0  0  0  0  0  0  0  0  0  0  0  0
   16.1465    0.0000    0.0000 N   0  0  0  0  0  0  0  0  0  0  0  0
  1  2  1  0  0  0  0
  1  4  1  0  0  0  0
  2  3  1  0  0  0  0
  3  5  1  0  0  0  0
  4  6  1  0  0  0  0
  5 15  1  0  0  0  0
  6  7  2  0  0  0  0
  6  8  1  0  0  0  0
  8  9  2  0  0  0  0
  8 10  1  0  0  0  0
  9 11  1  0  0  0  0
 10 12  2  0  0  0  0
 11 13  2  0  0  0  0
 12 13  1  0  0  0  0
 13 14  1  0  0  0  0
 15 16  2  0  0  0  0
 15 17  1  0  0  0  0
 17 18  2  0  0  0  0
 17 19  1  0  0  0  0
 18 20  1  0  0  0  0
 19 21  2  0  0  0  0
 20 22  2  0  0  0  0
 21 22  1  0  0  0  0
 22 23  1  0  0  0  0
M  END
> <ID>
10607

> <Formula>
C17H18N2O4

> <FW>
314.3358

> <DSSTox_CID>
24960

> <DSSTox_RID>
80615

> <DSSTox_GSID>
44960

> <DSSTox_FileID_Sort>
5297

> <TS_ChemName>
Propane-1,3-diyl bis(4-aminobenzoate)

> <TS_ChemName_Synonyms>
Propane-1,3-diyl bis(4-aminobenzoate) (1,3-Propanediol, bis(4-aminobenzoate))

> <TS_CASRN>
57609-64-0

> <CASRN_ChemName_Relationship>
primary

> <TS_Description>
single chemical compound

> <ChemNote>


> <STRUCTURE_Shown>
tested chemical

> <STRUCTURE_Formula>
C17H18N2O4

> <STRUCTURE_MW>
314.3358

> <STRUCTURE_ChemType>
defined organic

> <STRUCTURE_DefinedOrganicForm>
parent

> <STRUCTURE_IUPAC>
propane-1,3-diyl bis(4-aminobenzoate)

> <STRUCTURE_SMILES>
Nc1ccc(cc1)C(=O)OCCCOC(=O)c2ccc(N)cc2

> <STRUCTURE_SMILES_Desalt>
Nc1ccc(cc1)C(=O)OCCCOC(=O)c2ccc(N)cc2

> <Substance_modify_yyyymmdd>
20091116

$$$$
