57646-30-7
ChemmineR-0915142007XD

 22 23  0  0  0  0  0  0  0  0  1 V2000
    4.6240   -4.0430    0.0000 N   0  0  0  0  0  0  0  0  0  0  0  0
    4.6240   -5.3907    0.0000 C   0  0  0  0  0  0  0  0  0  0  0  0
    5.7780   -3.3813    0.0000 C   0  0  0  0  0  0  0  0  0  0  0  0
    3.4620   -3.3813    0.0000 C   0  0  0  0  0  0  0  0  0  0  0  0
    3.4458   -6.0605    0.0000 C   0  0  0  0  0  0  0  0  0  0  0  0
    5.7780   -6.0605    0.0000 C   0  0  0  0  0  0  0  0  0  0  0  0
    5.7780   -2.0497    0.0000 C   0  0  0  0  0  0  0  0  0  0  0  0
    6.9320   -4.0430    0.0000 O   0  0  0  0  0  0  0  0  0  0  0  0
    2.3080   -4.0430    0.0000 C   0  0  0  0  0  0  0  0  0  0  0  0
    3.4620   -2.0497    0.0000 C   0  0  0  0  0  0  0  0  0  0  0  0
    3.4458   -7.4000    0.0000 C   0  0  0  0  0  0  0  0  0  0  0  0
    2.2434   -6.0524    0.0000 C   0  0  0  0  0  0  0  0  0  0  0  0
    5.7780   -7.4000    0.0000 C   0  0  0  0  0  0  0  0  0  0  0  0
    6.9481   -5.3907    0.0000 C   0  0  0  0  0  0  0  0  0  0  0  0
    4.7047   -1.2670    0.0000 C   0  0  0  0  0  0  0  0  0  0  0  0
    6.8513   -1.2670    0.0000 O   0  0  0  0  0  0  0  0  0  0  0  0
    1.1540   -3.3813    0.0000 O   0  0  0  0  0  0  0  0  0  0  0  0
    2.3080   -5.3745    0.0000 O   0  0  0  0  0  0  0  0  0  0  0  0
    4.6240   -8.0698    0.0000 C   0  0  0  0  0  0  0  0  0  0  0  0
    5.1001    0.0000    0.0000 C   0  0  0  0  0  0  0  0  0  0  0  0
    6.4317    0.0000    0.0000 C   0  0  0  0  0  0  0  0  0  0  0  0
    0.0000   -4.0430    0.0000 C   0  0  0  0  0  0  0  0  0  0  0  0
  1  2  1  0  0  0  0
  1  3  1  0  0  0  0
  1  4  1  0  0  0  0
  2  5  2  0  0  0  0
  2  6  1  0  0  0  0
  3  7  1  0  0  0  0
  3  8  2  0  0  0  0
  4  9  1  0  0  0  0
  4 10  1  0  0  0  0
  5 11  1  0  0  0  0
  5 12  1  0  0  0  0
  6 13  2  0  0  0  0
  6 14  1  0  0  0  0
  7 15  2  0  0  0  0
  7 16  1  0  0  0  0
  9 17  1  0  0  0  0
  9 18  2  0  0  0  0
 11 19  2  0  0  0  0
 13 19  1  0  0  0  0
 15 20  1  0  0  0  0
 16 21  1  0  0  0  0
 17 22  1  0  0  0  0
 20 21  2  0  0  0  0
M  END
> <ID>
12667

> <Formula>
C17H19NO4

> <FW>
301.3371

> <DSSTox_CID>
27543

> <DSSTox_RID>
82408

> <DSSTox_GSID>
47543

> <DSSTox_FileID_Sort>
7089

> <TS_ChemName>
Furalaxyl

> <TS_ChemName_Synonyms>


> <TS_CASRN>
57646-30-7

> <CASRN_ChemName_Relationship>
primary

> <TS_Description>
single chemical compound

> <ChemNote>


> <STRUCTURE_Shown>
tested chemical

> <STRUCTURE_Formula>
C17H19NO4

> <STRUCTURE_MW>
301.3371

> <STRUCTURE_ChemType>
defined organic

> <STRUCTURE_DefinedOrganicForm>
parent

> <STRUCTURE_IUPAC>
methyl N-(2,6-dimethylphenyl)-N-(furan-2-ylcarbonyl)alaninate

> <STRUCTURE_SMILES>
O=C(N(C(C)C(=O)OC)c1c(C)cccc1C)c2ccco2

> <STRUCTURE_SMILES_Desalt>
O=C(N(C(C)C(=O)OC)c1c(C)cccc1C)c2ccco2

> <Substance_modify_yyyymmdd>
20100921

$$$$
