57648-21-2
ChemmineR-0915142007XD

 28 31  0  0  0  0  0  0  0  0  1 V2000
   11.4095   -5.7382    0.0000 C   0  0  0  0  0  0  0  0  0  0  0  0
   12.3458   -6.6745    0.0000 O   0  0  0  0  0  0  0  0  0  0  0  0
   10.1121   -6.0726    0.0000 C   0  0  0  0  0  0  0  0  0  0  0  0
    9.1758   -5.1363    0.0000 C   0  0  0  0  0  0  0  0  0  0  0  0
    7.9184   -5.5509    0.0000 C   0  0  0  0  0  0  0  0  0  0  0  0
    6.9286   -4.6548    0.0000 N   0  0  0  0  0  0  0  0  0  0  0  0
    5.6579   -5.0694    0.0000 C   0  0  0  0  0  0  0  0  0  0  0  0
    4.6681   -4.1866    0.0000 C   0  0  0  0  0  0  0  0  0  0  0  0
    4.9490   -2.8758    0.0000 C   0  0  0  0  0  0  0  0  0  0  0  0
    3.9592   -1.9930    0.0000 N   0  0  0  0  0  0  0  0  0  0  0  0
    4.0930   -0.6688    0.0000 C   0  0  0  0  0  0  0  0  0  0  0  0
    5.2567    0.0000    0.0000 S   0  0  0  0  0  0  0  0  0  0  0  0
    2.8892   -0.1204    0.0000 N   0  0  0  0  0  0  0  0  0  0  0  0
    1.9930   -1.1102    0.0000 C   0  0  0  0  0  0  0  0  0  0  0  0
    2.6618   -2.2605    0.0000 C   0  0  0  0  0  0  0  0  0  0  0  0
    1.9930   -3.4242    0.0000 C   0  0  0  0  0  0  0  0  0  0  0  0
    0.6688   -3.4242    0.0000 C   0  0  0  0  0  0  0  0  0  0  0  0
    0.0000   -2.2605    0.0000 C   0  0  0  0  0  0  0  0  0  0  0  0
    0.6688   -1.1102    0.0000 C   0  0  0  0  0  0  0  0  0  0  0  0
    6.2197   -2.4745    0.0000 C   0  0  0  0  0  0  0  0  0  0  0  0
    7.1961   -3.3573    0.0000 C   0  0  0  0  0  0  0  0  0  0  0  0
   11.7439   -4.4541    0.0000 C   0  0  0  0  0  0  0  0  0  0  0  0
   10.8076   -3.5044    0.0000 C   0  0  0  0  0  0  0  0  0  0  0  0
   11.1554   -2.2204    0.0000 C   0  0  0  0  0  0  0  0  0  0  0  0
   12.4394   -1.8860    0.0000 C   0  0  0  0  0  0  0  0  0  0  0  0
   12.7738   -0.6019    0.0000 F   0  0  0  0  0  0  0  0  0  0  0  0
   13.3757   -2.8223    0.0000 C   0  0  0  0  0  0  0  0  0  0  0  0
   13.0280   -4.1063    0.0000 C   0  0  0  0  0  0  0  0  0  0  0  0
  1  2  2  0  0  0  0
  1  3  1  0  0  0  0
  1 22  1  0  0  0  0
  3  4  1  0  0  0  0
  4  5  1  0  0  0  0
  5  6  1  0  0  0  0
  6  7  1  0  0  0  0
  6 21  1  0  0  0  0
  7  8  1  0  0  0  0
  8  9  1  0  0  0  0
  9 10  1  0  0  0  0
  9 20  1  0  0  0  0
 10 11  1  0  0  0  0
 10 15  1  0  0  0  0
 11 12  2  0  0  0  0
 11 13  1  0  0  0  0
 13 14  1  0  0  0  0
 14 15  2  0  0  0  0
 14 19  1  0  0  0  0
 15 16  1  0  0  0  0
 16 17  2  0  0  0  0
 17 18  1  0  0  0  0
 18 19  2  0  0  0  0
 20 21  1  0  0  0  0
 22 23  2  0  0  0  0
 22 28  1  0  0  0  0
 23 24  1  0  0  0  0
 24 25  2  0  0  0  0
 25 26  1  0  0  0  0
 25 27  1  0  0  0  0
 27 28  2  0  0  0  0
M  END
> <ID>
3281

> <Formula>
C22H24FN3OS

> <FW>
397.5089

> <DSSTox_CID>
3673

> <DSSTox_RID>
77139

> <DSSTox_GSID>
23673

> <DSSTox_FileID_Sort>
1822

> <TS_ChemName>
Timiperone

> <TS_ChemName_Synonyms>


> <TS_CASRN>
57648-21-2

> <CASRN_ChemName_Relationship>
primary

> <TS_Description>
single chemical compound

> <ChemNote>


> <STRUCTURE_Shown>
tested chemical

> <STRUCTURE_Formula>
C22H24FN3OS

> <STRUCTURE_MW>
397.5089

> <STRUCTURE_ChemType>
defined organic

> <STRUCTURE_DefinedOrganicForm>
parent

> <STRUCTURE_IUPAC>
1-(4-fluorophenyl)-4-[4-(2-thioxo-2,3-dihydro-1H-benzimidazol-1-yl)piperidin-1-yl]butan-1-one

> <STRUCTURE_SMILES>
Fc1ccc(cc1)C(=O)CCCN2CCC(CC2)N3c4ccccc4NC3=S

> <STRUCTURE_SMILES_Desalt>
Fc1ccc(cc1)C(=O)CCCN2CCC(CC2)N3c4ccccc4NC3=S

> <Substance_modify_yyyymmdd>
20080429

$$$$
