57653-26-6
ChemmineR-0915142007XD

 18 19  0  0  0  0  0  0  0  0  1 V2000
    7.2175    0.0000    0.0000 C    0  0  0  0  0  0  0  0  0  0  0  0
    8.2058   -0.8964    0.0000 N    0  0  0  0  0  0  0  0  0  0  0  0
    9.5045   -0.6321    0.0000 C    0  0  0  0  0  0  0  0  0  0  0  0
   10.1596   -1.7814    0.0000 C    0  0  0  0  0  0  0  0  0  0  0  0
    9.2862   -2.7583    0.0000 N    0  0  0  0  0  0  0  0  0  0  0  0
    8.0679   -2.2181    0.0000 C    0  0  0  0  0  0  0  0  0  0  0  0
    6.9187   -2.8847    0.0000 N    0  0  0  0  0  0  0  0  0  0  0  0
    5.7579   -2.2181    0.0000 C    0  0  0  0  0  0  0  0  0  0  0  0
    5.7579   -0.8849    0.0000 O    0  0  0  0  0  0  0  0  0  0  0  0
    4.6086   -2.8847    0.0000 N    0  0  0  0  0  0  0  0  0  0  0  0
    3.4593   -2.2181    0.0000 C    0  0  0  0  0  0  0  0  0  0  0  0
    2.3100   -2.8847    0.0000 C    0  0  0  0  0  0  0  0  0  0  0  0
    1.1493   -2.2181    0.0000 C    0  0  0  0  0  0  0  0  0  0  0  0
    1.1493   -0.8849    0.0000 C    0  0  0  0  0  0  0  0  0  0  0  0
    2.3100   -0.2299    0.0000 C    0  0  0  0  0  0  0  0  0  0  0  0
    3.4593   -0.8849    0.0000 C    0  0  0  0  0  0  0  0  0  0  0  0
    0.0000   -2.8847    0.0000 Cl   0  0  0  0  0  0  0  0  0  0  0  0
   11.4928   -1.9193    0.0000 O    0  0  0  0  0  0  0  0  0  0  0  0
  1  2  1  0  0  0  0
  2  3  1  0  0  0  0
  2  6  1  0  0  0  0
  3  4  1  0  0  0  0
  4  5  1  0  0  0  0
  4 18  2  0  0  0  0
  5  6  2  0  0  0  0
  6  7  1  0  0  0  0
  7  8  1  0  0  0  0
  8  9  2  0  0  0  0
  8 10  1  0  0  0  0
 10 11  1  0  0  0  0
 11 12  2  0  0  0  0
 11 16  1  0  0  0  0
 12 13  1  0  0  0  0
 13 14  2  0  0  0  0
 13 17  1  0  0  0  0
 14 15  1  0  0  0  0
 15 16  2  0  0  0  0
M  END
> <ID>
11956

> <Formula>
C11H11ClN4O2

> <FW>
266.6836

> <DSSTox_CID>
26770

> <DSSTox_RID>
81892

> <DSSTox_GSID>
46770

> <DSSTox_FileID_Sort>
6573

> <TS_ChemName>
Fenobam

> <TS_ChemName_Synonyms>


> <TS_CASRN>
57653-26-6

> <CASRN_ChemName_Relationship>
primary

> <TS_Description>
single chemical compound

> <ChemNote>


> <STRUCTURE_Shown>
tested chemical

> <STRUCTURE_Formula>
C11H11ClN4O2

> <STRUCTURE_MW>
266.6836

> <STRUCTURE_ChemType>
defined organic

> <STRUCTURE_DefinedOrganicForm>
parent

> <STRUCTURE_IUPAC>
1-(3-chlorophenyl)-3-(1-methyl-4-oxo-4,5-dihydro-1H-imidazol-2-yl)urea

> <STRUCTURE_SMILES>
O=C2N=C(NC(=O)Nc1cccc(Cl)c1)N(C)C2

> <STRUCTURE_SMILES_Desalt>
O=C2N=C(NC(=O)Nc1cccc(Cl)c1)N(C)C2

> <Substance_modify_yyyymmdd>
20110802

$$$$
