5766-67-6
ChemmineR-0915142007XD

 16 15  0  0  0  0  0  0  0  0  1 V2000
    1.1528   -4.6515    0.0000 C   0  0  0  0  0  0  0  0  0  0  0  0
    1.1528   -5.9816    0.0000 N   0  0  0  0  0  0  0  0  0  0  0  0
    1.1528   -3.3294    0.0000 C   0  0  0  0  0  0  0  0  0  0  0  0
    6.9087   -1.3301    0.0000 C   0  0  0  0  0  0  0  0  0  0  0  0
    6.9087    0.0000    0.0000 N   0  0  0  0  0  0  0  0  0  0  0  0
    6.9087   -2.6522    0.0000 C   0  0  0  0  0  0  0  0  0  0  0  0
    1.1528   -0.6691    0.0000 C   0  0  0  0  0  0  0  0  0  0  0  0
    0.0000    0.0000    0.0000 N   0  0  0  0  0  0  0  0  0  0  0  0
    2.3056   -1.3301    0.0000 C   0  0  0  0  0  0  0  0  0  0  0  0
    6.9087   -5.3125    0.0000 C   0  0  0  0  0  0  0  0  0  0  0  0
    8.0615   -5.9816    0.0000 N   0  0  0  0  0  0  0  0  0  0  0  0
    5.7559   -4.6515    0.0000 C   0  0  0  0  0  0  0  0  0  0  0  0
    4.6031   -2.6522    0.0000 C   0  0  0  0  0  0  0  0  0  0  0  0
    3.4584   -3.3294    0.0000 C   0  0  0  0  0  0  0  0  0  0  0  0
    5.7559   -3.3294    0.0000 N   0  0  0  0  0  0  0  0  0  0  0  0
    2.3056   -2.6522    0.0000 N   0  0  0  0  0  0  0  0  0  0  0  0
  1  2  3  0  0  0  0
  1  3  1  0  0  0  0
  3 16  1  0  0  0  0
  4  5  3  0  0  0  0
  4  6  1  0  0  0  0
  6 15  1  0  0  0  0
  7  8  3  0  0  0  0
  7  9  1  0  0  0  0
  9 16  1  0  0  0  0
 10 11  3  0  0  0  0
 10 12  1  0  0  0  0
 12 15  1  0  0  0  0
 13 14  1  0  0  0  0
 13 15  1  0  0  0  0
 14 16  1  0  0  0  0
M  END
> <ID>
5284

> <Formula>
C10H12N6

> <FW>
216.2425

> <DSSTox_CID>
7603

> <DSSTox_RID>
78526

> <DSSTox_GSID>
27603

> <DSSTox_FileID_Sort>
3209

> <TS_ChemName>
Acetonitrile, 2,2',2'',2'''-(1,2-ethanediyldinitrilo)tetrakis-

> <TS_ChemName_Synonyms>


> <TS_CASRN>
5766-67-6

> <CASRN_ChemName_Relationship>
primary

> <TS_Description>
single chemical compound

> <ChemNote>


> <STRUCTURE_Shown>
tested chemical

> <STRUCTURE_Formula>
C10H12N6

> <STRUCTURE_MW>
216.2425

> <STRUCTURE_ChemType>
defined organic

> <STRUCTURE_DefinedOrganicForm>
parent

> <STRUCTURE_IUPAC>
2,2',2'',2'''-(ethane-1,2-diyldinitrilo)tetraacetonitrile

> <STRUCTURE_SMILES>
N#CCN(CCN(CC#N)CC#N)CC#N

> <STRUCTURE_SMILES_Desalt>
N#CCN(CCN(CC#N)CC#N)CC#N

> <Substance_modify_yyyymmdd>
20080429

$$$$
