577-91-3
ChemmineR-0915142007XD

 20 21  0  0  0  0  0  0  0  0  1 V2000
    1.1530   -3.3300    0.0000 C   0  0  0  0  0  0  0  0  0  0  0  0
    1.1530   -1.9996    0.0000 C   0  0  0  0  0  0  0  0  0  0  0  0
    2.3060   -3.9831    0.0000 C   0  0  0  0  0  0  0  0  0  0  0  0
    6.9100   -1.3304    0.0000 C   0  0  0  0  0  0  0  0  0  0  0  0
    5.7570   -1.9996    0.0000 C   0  0  0  0  0  0  0  0  0  0  0  0
    3.4590   -1.9996    0.0000 C   0  0  0  0  0  0  0  0  0  0  0  0
    3.4590   -3.3300    0.0000 C   0  0  0  0  0  0  0  0  0  0  0  0
    2.3060   -1.3304    0.0000 C   0  0  0  0  0  0  0  0  0  0  0  0
    4.6040   -1.3304    0.0000 C   0  0  0  0  0  0  0  0  0  0  0  0
    6.9100    0.0000    0.0000 O   0  0  0  0  0  0  0  0  0  0  0  0
    5.7570   -3.3300    0.0000 C   0  0  0  0  0  0  0  0  0  0  0  0
    2.3060   -5.3135    0.0000 I   0  0  0  0  0  0  0  0  0  0  0  0
    0.0000   -1.3304    0.0000 I   0  0  0  0  0  0  0  0  0  0  0  0
    0.0000   -3.9831    0.0000 O   0  0  0  0  0  0  0  0  0  0  0  0
    8.0630   -1.9996    0.0000 O   0  0  0  0  0  0  0  0  0  0  0  0
    6.9100   -3.9831    0.0000 C   0  0  0  0  0  0  0  0  0  0  0  0
    4.6040   -3.9831    0.0000 C   0  0  0  0  0  0  0  0  0  0  0  0
    6.9100   -5.3135    0.0000 C   0  0  0  0  0  0  0  0  0  0  0  0
    4.6040   -5.3135    0.0000 C   0  0  0  0  0  0  0  0  0  0  0  0
    5.7570   -5.9828    0.0000 C   0  0  0  0  0  0  0  0  0  0  0  0
  1  2  2  0  0  0  0
  1  3  1  0  0  0  0
  1 14  1  0  0  0  0
  2  8  1  0  0  0  0
  2 13  1  0  0  0  0
  3  7  2  0  0  0  0
  3 12  1  0  0  0  0
  4  5  1  0  0  0  0
  4 10  2  0  0  0  0
  4 15  1  0  0  0  0
  5  9  1  0  0  0  0
  5 11  1  0  0  0  0
  6  7  1  0  0  0  0
  6  9  1  0  0  0  0
  6  8  2  0  0  0  0
 11 16  2  0  0  0  0
 11 17  1  0  0  0  0
 16 18  1  0  0  0  0
 17 19  2  0  0  0  0
 18 20  2  0  0  0  0
 19 20  1  0  0  0  0
M  END
> <ID>
11432

> <Formula>
C15H12I2O3

> <FW>
494.0629

> <DSSTox_CID>
26131

> <DSSTox_RID>
81364

> <DSSTox_GSID>
46131

> <DSSTox_FileID_Sort>
6045

> <TS_ChemName>
Iodoalphionic acid

> <TS_ChemName_Synonyms>


> <TS_CASRN>
577-91-3

> <CASRN_ChemName_Relationship>
primary

> <TS_Description>
single chemical compound

> <ChemNote>


> <STRUCTURE_Shown>
tested chemical

> <STRUCTURE_Formula>
C15H12I2O3

> <STRUCTURE_MW>
494.0629

> <STRUCTURE_ChemType>
defined organic

> <STRUCTURE_DefinedOrganicForm>
parent

> <STRUCTURE_IUPAC>
3-(4-hydroxy-3,5-diiodophenyl)-2-phenylpropanoic acid

> <STRUCTURE_SMILES>
Ic2cc(CC(c1ccccc1)C(=O)O)cc(I)c2O

> <STRUCTURE_SMILES_Desalt>
Ic2cc(CC(c1ccccc1)C(=O)O)cc(I)c2O

> <Substance_modify_yyyymmdd>
20110818

$$$$
