57754-85-5
ChemmineR-0915142007XD

 15 14  0  0  0  0  0  0  0  0  1 V2000
    2.0075   -3.5748    0.0000 N    0  0  0  0  0  0  0  0  0  0  0  0
    0.6956   -3.5748    0.0000 C    0  0  0  0  0  0  0  0  0  0  0  0
    2.7119   -2.4302    0.0000 C    0  0  0  0  0  0  0  0  0  0  0  0
    2.0075   -1.2943    0.0000 C    0  0  0  0  0  0  0  0  0  0  0  0
    0.0000   -2.4302    0.0000 C    0  0  0  0  0  0  0  0  0  0  0  0
    0.6956   -1.2943    0.0000 C    0  0  0  0  0  0  0  0  0  0  0  0
    4.0591   -2.4302    0.0000 C    0  0  0  0  0  0  0  0  0  0  0  0
    4.7019   -3.5748    0.0000 O    0  0  0  0  0  0  0  0  0  0  0  0
    4.7019   -1.2943    0.0000 O    0  0  0  0  0  0  0  0  0  0  0  0
    2.6679   -0.1321    0.0000 Cl   0  0  0  0  0  0  0  0  0  0  0  0
    0.0528   -4.7371    0.0000 Cl   0  0  0  0  0  0  0  0  0  0  0  0
    7.6604   -0.6780    0.0000 C    0  0  0  0  0  0  0  0  0  0  0  0
    6.4981    0.0000    0.0000 O    0  0  0  0  0  0  0  0  0  0  0  0
    7.6604   -2.0252    0.0000 C    0  0  0  0  0  0  0  0  0  0  0  0
    8.8050   -2.6855    0.0000 N    0  0  0  0  0  0  0  0  0  0  0  0
  1  2  2  0  0  0  0
  1  3  1  0  0  0  0
  2  5  1  0  0  0  0
  2 11  1  0  0  0  0
  3  4  2  0  0  0  0
  3  7  1  0  0  0  0
  4  6  1  0  0  0  0
  4 10  1  0  0  0  0
  5  6  2  0  0  0  0
  7  8  2  0  0  0  0
  7  9  1  0  0  0  0
 12 14  1  0  0  0  0
 12 13  1  0  0  0  0
 14 15  1  0  0  0  0
M  END
> <ID>
6531

> <Formula>
C8H10Cl2N2O3

> <FW>
253.0826 (191.9995+61.0831)

> <DSSTox_CID>
12582

> <DSSTox_RID>
79134

> <DSSTox_GSID>
34265

> <DSSTox_FileID_Sort>
3816

> <TS_ChemName>
Clopyralid-olamine

> <TS_ChemName_Synonyms>
Clopyralid-olamine (3,6-Dichloro-2-pyridinecarboxylic acid)

> <TS_CASRN>
57754-85-5

> <CASRN_ChemName_Relationship>
primary

> <TS_Description>
single chemical compound

> <ChemNote>
parent [1702-17-6]

> <STRUCTURE_Shown>
tested chemical

> <STRUCTURE_Formula>
C8H10Cl2N2O3

> <STRUCTURE_MW>
253.0826

> <STRUCTURE_ChemType>
defined organic

> <STRUCTURE_DefinedOrganicForm>
complex

> <STRUCTURE_IUPAC>
3,6-dichloropyridine-2-carboxylic acid - 2-aminoethanol (1:1)

> <STRUCTURE_SMILES>
Clc1ccc(Cl)nc1C(=O)O.NCCO

> <STRUCTURE_SMILES_Desalt>
Clc1ccc(Cl)nc1C(=O)O

> <Substance_modify_yyyymmdd>
20120530

$$$$
