578-46-1
ChemmineR-0915142007XD

 11 11  0  0  0  0  0  0  0  0  2 V2000
    0.6698   -2.3024    0.0000 N   0  3  0  0  0  0  0  0  0  0  0  0
    0.0000   -1.1542    0.0000 O   0  0  0  0  0  0  0  0  0  0  0  0
    0.0000   -3.4565    0.0000 O   0  5  0  0  0  0  0  0  0  0  0  0
    1.9974   -2.3024    0.0000 C   0  0  0  0  0  0  0  0  0  0  0  0
    2.6552   -3.4565    0.0000 C   0  0  0  0  0  0  0  0  0  0  0  0
    3.9948   -3.4565    0.0000 C   0  0  0  0  0  0  0  0  0  0  0  0
    4.6526   -2.3024    0.0000 C   0  0  0  0  0  0  0  0  0  0  0  0
    5.9802   -2.3024    0.0000 C   0  0  0  0  0  0  0  0  0  0  0  0
    3.9948   -1.1542    0.0000 C   0  0  0  0  0  0  0  0  0  0  0  0
    2.6552   -1.1542    0.0000 C   0  0  0  0  0  0  0  0  0  0  0  0
    1.9974    0.0000    0.0000 N   0  0  0  0  0  0  0  0  0  0  0  0
  1  2  2  0  0  0  0
  1  3  1  0  0  0  0
  1  4  1  0  0  0  0
  4  5  2  0  0  0  0
  4 10  1  0  0  0  0
  5  6  1  0  0  0  0
  6  7  2  0  0  0  0
  7  8  1  0  0  0  0
  7  9  1  0  0  0  0
  9 10  2  0  0  0  0
 10 11  1  0  0  0  0
M  END
> <ID>
4311

> <Formula>
C7H8N2O2

> <FW>
152.1506

> <DSSTox_CID>
5634

> <DSSTox_RID>
77861

> <DSSTox_GSID>
25634

> <DSSTox_FileID_Sort>
2544

> <TS_ChemName>
5-Methyl-2-nitroaniline

> <TS_ChemName_Synonyms>


> <TS_CASRN>
578-46-1

> <CASRN_ChemName_Relationship>
primary

> <TS_Description>
single chemical compound

> <ChemNote>


> <STRUCTURE_Shown>
tested chemical

> <STRUCTURE_Formula>
C7H8N2O2

> <STRUCTURE_MW>
152.1506

> <STRUCTURE_ChemType>
defined organic

> <STRUCTURE_DefinedOrganicForm>
parent

> <STRUCTURE_IUPAC>
5-methyl-2-nitroaniline

> <STRUCTURE_SMILES>
O=[N+]([O-])c1ccc(C)cc1N

> <STRUCTURE_SMILES_Desalt>
O=[N+]([O-])c1ccc(C)cc1N

> <Substance_modify_yyyymmdd>
20080429

$$$$
