578-54-1
ChemmineR-0915142007XD

  9  9  0  0  0  0  0  0  0  0  1 V2000
    3.4574   -2.6553    0.0000 N   0  0  0  0  0  0  0  0  0  0  0  0
    2.3187   -1.9822    0.0000 C   0  0  0  0  0  0  0  0  0  0  0  0
    2.3187   -0.6684    0.0000 C   0  0  0  0  0  0  0  0  0  0  0  0
    1.1525   -2.6553    0.0000 C   0  0  0  0  0  0  0  0  0  0  0  0
    1.1525    0.0000    0.0000 C   0  0  0  0  0  0  0  0  0  0  0  0
    0.0000   -1.9822    0.0000 C   0  0  0  0  0  0  0  0  0  0  0  0
    0.0000   -0.6684    0.0000 C   0  0  0  0  0  0  0  0  0  0  0  0
    3.4712    0.0000    0.0000 C   0  0  0  0  0  0  0  0  0  0  0  0
    4.6098   -0.6869    0.0000 C   0  0  0  0  0  0  0  0  0  0  0  0
  1  2  1  0  0  0  0
  2  3  2  0  0  0  0
  2  4  1  0  0  0  0
  3  5  1  0  0  0  0
  3  8  1  0  0  0  0
  4  6  2  0  0  0  0
  5  7  2  0  0  0  0
  6  7  1  0  0  0  0
  8  9  1  0  0  0  0
M  END
> <ID>
9171

> <Formula>
C8H11N

> <FW>
121.1796

> <DSSTox_CID>
22242

> <DSSTox_RID>
79968

> <DSSTox_GSID>
42242

> <DSSTox_FileID_Sort>
4650

> <TS_ChemName>
2-Ethylaniline

> <TS_ChemName_Synonyms>
2-Ethylaniline (o-Ethylaniline)

> <TS_CASRN>
578-54-1

> <CASRN_ChemName_Relationship>
primary

> <TS_Description>
single chemical compound

> <ChemNote>


> <STRUCTURE_Shown>
tested chemical

> <STRUCTURE_Formula>
C8H11N

> <STRUCTURE_MW>
121.1796

> <STRUCTURE_ChemType>
defined organic

> <STRUCTURE_DefinedOrganicForm>
parent

> <STRUCTURE_IUPAC>
2-ethylaniline

> <STRUCTURE_SMILES>
CCc1ccccc1N

> <STRUCTURE_SMILES_Desalt>
CCc1ccccc1N

> <Substance_modify_yyyymmdd>
20080825

$$$$
