57808-65-8
ChemmineR-0915142007XD

 30 32  0  0  0  0  0  0  0  0  1 V2000
    3.4541   -5.3382    0.0000 C    0  0  0  0  0  0  0  0  0  0  0  0
    4.6055   -4.6653    0.0000 C    0  0  0  0  0  0  0  0  0  0  0  0
    9.1960   -3.3345    0.0000 C    0  0  0  0  0  0  0  0  0  0  0  0
    2.3027   -4.6802    0.0000 C    0  0  0  0  0  0  0  0  0  0  0  0
    5.7568   -5.3232    0.0000 N    0  0  0  0  0  0  0  0  0  0  0  0
    6.9082   -4.6653    0.0000 C    0  0  0  0  0  0  0  0  0  0  0  0
    8.0446   -2.6766    0.0000 C    0  0  0  0  0  0  0  0  0  0  0  0
    9.1960   -4.6653    0.0000 C    0  0  0  0  0  0  0  0  0  0  0  0
    6.9082   -3.3345    0.0000 C    0  0  0  0  0  0  0  0  0  0  0  0
    1.1514   -5.3382    0.0000 C    0  0  0  0  0  0  0  0  0  0  0  0
   10.3474   -2.6616    0.0000 C    0  0  0  0  0  0  0  0  0  0  0  0
   10.3474    0.0000    0.0000 N    0  0  0  0  0  0  0  0  0  0  0  0
    8.0446   -5.3232    0.0000 C    0  0  0  0  0  0  0  0  0  0  0  0
   10.3474   -1.3308    0.0000 C    0  0  0  0  0  0  0  0  0  0  0  0
    1.1514   -6.6839    0.0000 C    0  0  0  0  0  0  0  0  0  0  0  0
    3.4541   -6.6839    0.0000 C    0  0  0  0  0  0  0  0  0  0  0  0
   11.4987   -3.3195    0.0000 C    0  0  0  0  0  0  0  0  0  0  0  0
    2.3027   -7.3418    0.0000 C    0  0  0  0  0  0  0  0  0  0  0  0
    4.6055   -3.3345    0.0000 O    0  0  0  0  0  0  0  0  0  0  0  0
   11.4987   -4.6503    0.0000 C    0  0  0  0  0  0  0  0  0  0  0  0
   12.6501   -2.6616    0.0000 C    0  0  0  0  0  0  0  0  0  0  0  0
    8.0446   -1.3458    0.0000 Cl   0  0  0  0  0  0  0  0  0  0  0  0
    0.0000   -4.6653    0.0000 I    0  0  0  0  0  0  0  0  0  0  0  0
    2.3027   -3.3494    0.0000 O    0  0  0  0  0  0  0  0  0  0  0  0
   13.8015   -4.6503    0.0000 C    0  0  0  0  0  0  0  0  0  0  0  0
    2.3027   -8.6727    0.0000 I    0  0  0  0  0  0  0  0  0  0  0  0
   13.8015   -3.3195    0.0000 C    0  0  0  0  0  0  0  0  0  0  0  0
   12.6501   -5.3232    0.0000 C    0  0  0  0  0  0  0  0  0  0  0  0
   14.9528   -5.3232    0.0000 Cl   0  0  0  0  0  0  0  0  0  0  0  0
    8.0446   -6.6690    0.0000 C    0  0  0  0  0  0  0  0  0  0  0  0
  1  2  1  0  0  0  0
  1  4  1  0  0  0  0
  1 16  2  0  0  0  0
  2  5  1  0  0  0  0
  2 19  2  0  0  0  0
  3  8  1  0  0  0  0
  3 11  1  0  0  0  0
  3  7  2  0  0  0  0
  4 10  2  0  0  0  0
  4 24  1  0  0  0  0
  5  6  1  0  0  0  0
  6  9  2  0  0  0  0
  6 13  1  0  0  0  0
  7  9  1  0  0  0  0
  7 22  1  0  0  0  0
  8 13  2  0  0  0  0
 10 23  1  0  0  0  0
 10 15  1  0  0  0  0
 11 14  1  0  0  0  0
 11 17  1  0  0  0  0
 12 14  3  0  0  0  0
 13 30  1  0  0  0  0
 15 18  2  0  0  0  0
 16 18  1  0  0  0  0
 17 20  1  0  0  0  0
 17 21  2  0  0  0  0
 18 26  1  0  0  0  0
 20 28  2  0  0  0  0
 21 27  1  0  0  0  0
 25 27  2  0  0  0  0
 25 29  1  0  0  0  0
 25 28  1  0  0  0  0
M  END
> <ID>
7863

> <Formula>
C22H14Cl2I2N2O2

> <FW>
663.0737

> <DSSTox_CID>
20662

> <DSSTox_RID>
79527

> <DSSTox_GSID>
40662

> <DSSTox_FileID_Sort>
4209

> <TS_ChemName>
Closantel

> <TS_ChemName_Synonyms>


> <TS_CASRN>
57808-65-8

> <CASRN_ChemName_Relationship>
primary

> <TS_Description>
single chemical compound

> <ChemNote>


> <STRUCTURE_Shown>
tested chemical

> <STRUCTURE_Formula>
C22H14Cl2I2N2O2

> <STRUCTURE_MW>
663.0737

> <STRUCTURE_ChemType>
defined organic

> <STRUCTURE_DefinedOrganicForm>
parent

> <STRUCTURE_IUPAC>
N-{5-chloro-4-[(4-chlorophenyl)(cyano)methyl]-2-methylphenyl}-2-hydroxy-3,5-diiodobenzamide

> <STRUCTURE_SMILES>
Clc3cc(NC(=O)c1cc(I)cc(I)c1O)c(C)cc3C(C#N)c2ccc(Cl)cc2

> <STRUCTURE_SMILES_Desalt>
Clc3cc(NC(=O)c1cc(I)cc(I)c1O)c(C)cc3C(C#N)c2ccc(Cl)cc2

> <Substance_modify_yyyymmdd>
20080429

$$$$
