57801-81-7
ChemmineR-0915142007XD

 22 25  0  0  0  0  0  0  0  0  1 V2000
    2.2015   -2.3411    0.0000 C    0  0  0  0  0  0  0  0  0  0  0  0
    2.4728   -1.0310    0.0000 C    0  0  0  0  0  0  0  0  0  0  0  0
    1.5271   -0.0853    0.0000 Br   0  0  0  0  0  0  0  0  0  0  0  0
    3.7752   -0.8837    0.0000 S    0  0  0  0  0  0  0  0  0  0  0  0
    4.3178   -2.0775    0.0000 C    0  0  0  0  0  0  0  0  0  0  0  0
    3.3721   -3.0155    0.0000 C    0  0  0  0  0  0  0  0  0  0  0  0
    3.4573   -4.3255    0.0000 C    0  0  0  0  0  0  0  0  0  0  0  0
    2.3023   -4.9922    0.0000 C    0  0  0  0  0  0  0  0  0  0  0  0
    2.3023   -6.3178    0.0000 C    0  0  0  0  0  0  0  0  0  0  0  0
    1.1550   -6.9844    0.0000 C    0  0  0  0  0  0  0  0  0  0  0  0
    0.0000   -6.3178    0.0000 C    0  0  0  0  0  0  0  0  0  0  0  0
    0.0000   -4.9922    0.0000 C    0  0  0  0  0  0  0  0  0  0  0  0
    1.1550   -4.3255    0.0000 C    0  0  0  0  0  0  0  0  0  0  0  0
    1.1550   -2.9922    0.0000 Cl   0  0  0  0  0  0  0  0  0  0  0  0
    4.5581   -5.0697    0.0000 N    0  0  0  0  0  0  0  0  0  0  0  0
    5.8294   -4.6821    0.0000 C    0  0  0  0  0  0  0  0  0  0  0  0
    6.3100   -3.4418    0.0000 C    0  0  0  0  0  0  0  0  0  0  0  0
    5.6433   -2.2945    0.0000 N    0  0  0  0  0  0  0  0  0  0  0  0
    6.5348   -1.3023    0.0000 C    0  0  0  0  0  0  0  0  0  0  0  0
    6.2635    0.0000    0.0000 C    0  0  0  0  0  0  0  0  0  0  0  0
    7.7518   -1.8449    0.0000 N    0  0  0  0  0  0  0  0  0  0  0  0
    7.6123   -3.1705    0.0000 N    0  0  0  0  0  0  0  0  0  0  0  0
  1  2  2  0  0  0  0
  1  6  1  0  0  0  0
  2  3  1  0  0  0  0
  2  4  1  0  0  0  0
  4  5  1  0  0  0  0
  5  6  2  0  0  0  0
  5 18  1  0  0  0  0
  6  7  1  0  0  0  0
  7  8  1  0  0  0  0
  7 15  2  0  0  0  0
  8  9  2  0  0  0  0
  8 13  1  0  0  0  0
  9 10  1  0  0  0  0
 10 11  2  0  0  0  0
 11 12  1  0  0  0  0
 12 13  2  0  0  0  0
 13 14  1  0  0  0  0
 15 16  1  0  0  0  0
 16 17  1  0  0  0  0
 17 18  1  0  0  0  0
 17 22  2  0  0  0  0
 18 19  1  0  0  0  0
 19 20  1  0  0  0  0
 19 21  2  0  0  0  0
 21 22  1  0  0  0  0
M  END
> <ID>
2437

> <Formula>
C15H10BrClN4S

> <FW>
393.6887

> <DSSTox_CID>
2692

> <DSSTox_RID>
76694

> <DSSTox_GSID>
22692

> <DSSTox_FileID_Sort>
1378

> <TS_ChemName>
Brotizolam

> <TS_ChemName_Synonyms>


> <TS_CASRN>
57801-81-7

> <CASRN_ChemName_Relationship>
primary

> <TS_Description>
single chemical compound

> <ChemNote>


> <STRUCTURE_Shown>
tested chemical

> <STRUCTURE_Formula>
C15H10BrClN4S

> <STRUCTURE_MW>
393.6887

> <STRUCTURE_ChemType>
defined organic

> <STRUCTURE_DefinedOrganicForm>
parent

> <STRUCTURE_IUPAC>
2-bromo-4-(2-chlorophenyl)-9-methyl-6H-thieno[3,2-f][1,2,4]triazolo[4,3-a][1,4]diazepine

> <STRUCTURE_SMILES>
Clc4ccccc4C2=NCc1nnc(C)n1c3sc(Br)cc23

> <STRUCTURE_SMILES_Desalt>
Clc4ccccc4C2=NCc1nnc(C)n1c3sc(Br)cc23

> <Substance_modify_yyyymmdd>
20080429

$$$$
