57808-66-9
ChemmineR-0915142007XD

 30 34  0  0  0  0  0  0  0  0  1 V2000
    5.5097   -1.3361    0.0000 C    0  0  0  0  0  0  0  0  0  0  0  0
   11.5014   -6.9284    0.0000 C    0  0  0  0  0  0  0  0  0  0  0  0
    4.7245   -2.4380    0.0000 N    0  0  0  0  0  0  0  0  0  0  0  0
   10.7439   -5.8540    0.0000 N    0  0  0  0  0  0  0  0  0  0  0  0
    4.7245   -0.2755    0.0000 N    0  0  0  0  0  0  0  0  0  0  0  0
   12.7824   -6.5152    0.0000 N    0  0  0  0  0  0  0  0  0  0  0  0
    3.4711   -0.6749    0.0000 C    0  0  0  0  0  0  0  0  0  0  0  0
    3.4711   -2.0110    0.0000 C    0  0  0  0  0  0  0  0  0  0  0  0
   11.5014   -4.7796    0.0000 C    0  0  0  0  0  0  0  0  0  0  0  0
   12.7824   -5.1791    0.0000 C    0  0  0  0  0  0  0  0  0  0  0  0
    5.4133   -3.5537    0.0000 C    0  0  0  0  0  0  0  0  0  0  0  0
    2.3003    0.0000    0.0000 C    0  0  0  0  0  0  0  0  0  0  0  0
    6.7356   -5.8540    0.0000 N    0  0  0  0  0  0  0  0  0  0  0  0
    6.8320   -1.3361    0.0000 O    0  0  0  0  0  0  0  0  0  0  0  0
    2.3003   -2.6722    0.0000 C    0  0  0  0  0  0  0  0  0  0  0  0
   11.0882   -8.2094    0.0000 O    0  0  0  0  0  0  0  0  0  0  0  0
    6.7356   -3.5537    0.0000 C    0  0  0  0  0  0  0  0  0  0  0  0
    4.7521   -4.7108    0.0000 C    0  0  0  0  0  0  0  0  0  0  0  0
    5.4133   -5.8540    0.0000 C    0  0  0  0  0  0  0  0  0  0  0  0
    7.3967   -4.7108    0.0000 C    0  0  0  0  0  0  0  0  0  0  0  0
    1.1570   -0.6749    0.0000 C    0  0  0  0  0  0  0  0  0  0  0  0
    9.4078   -5.8540    0.0000 C    0  0  0  0  0  0  0  0  0  0  0  0
    8.7328   -6.9973    0.0000 C    0  0  0  0  0  0  0  0  0  0  0  0
    1.1570   -2.0110    0.0000 C    0  0  0  0  0  0  0  0  0  0  0  0
    7.3967   -6.9973    0.0000 C    0  0  0  0  0  0  0  0  0  0  0  0
    0.0000    0.0000    0.0000 Cl   0  0  0  0  0  0  0  0  0  0  0  0
   11.2260   -3.4849    0.0000 C    0  0  0  0  0  0  0  0  0  0  0  0
   13.7742   -4.2975    0.0000 C    0  0  0  0  0  0  0  0  0  0  0  0
   12.2177   -2.5895    0.0000 C    0  0  0  0  0  0  0  0  0  0  0  0
   13.4987   -3.0165    0.0000 C    0  0  0  0  0  0  0  0  0  0  0  0
  1  3  1  0  0  0  0
  1  5  1  0  0  0  0
  1 14  2  0  0  0  0
  2  4  1  0  0  0  0
  2  6  1  0  0  0  0
  2 16  2  0  0  0  0
  3  8  1  0  0  0  0
  3 11  1  0  0  0  0
  4 22  1  0  0  0  0
  4  9  1  0  0  0  0
  5  7  1  0  0  0  0
  6 10  1  0  0  0  0
  7 12  1  0  0  0  0
  7  8  2  0  0  0  0
  8 15  1  0  0  0  0
  9 10  2  0  0  0  0
  9 27  1  0  0  0  0
 10 28  1  0  0  0  0
 11 17  1  0  0  0  0
 11 18  1  0  0  0  0
 12 21  2  0  0  0  0
 13 19  1  0  0  0  0
 13 25  1  0  0  0  0
 13 20  1  0  0  0  0
 15 24  2  0  0  0  0
 17 20  1  0  0  0  0
 18 19  1  0  0  0  0
 21 26  1  0  0  0  0
 21 24  1  0  0  0  0
 22 23  1  0  0  0  0
 23 25  1  0  0  0  0
 27 29  2  0  0  0  0
 28 30  2  0  0  0  0
 29 30  1  0  0  0  0
M  END
> <ID>
10750

> <Formula>
C22H24ClN5O2

> <FW>
425.9113

> <DSSTox_CID>
25116

> <DSSTox_RID>
80682

> <DSSTox_GSID>
45116

> <DSSTox_FileID_Sort>
5364

> <TS_ChemName>
Domperidone

> <TS_ChemName_Synonyms>


> <TS_CASRN>
57808-66-9

> <CASRN_ChemName_Relationship>
primary

> <TS_Description>
single chemical compound

> <ChemNote>


> <STRUCTURE_Shown>
tested chemical

> <STRUCTURE_Formula>
C22H24ClN5O2

> <STRUCTURE_MW>
425.9113

> <STRUCTURE_ChemType>
defined organic

> <STRUCTURE_DefinedOrganicForm>
parent

> <STRUCTURE_IUPAC>
5-chloro-1-{1-[3-(2-oxo-2,3-dihydro-1H-benzimidazol-1-yl)propyl]piperidin-4-yl}-1,3-dihydro-2H-benzimidazol-2-one

> <STRUCTURE_SMILES>
Clc4cc5NC(=O)N(C3CCN(CCCN1c2ccccc2NC1=O)CC3)c5cc4

> <STRUCTURE_SMILES_Desalt>
Clc4cc5NC(=O)N(C3CCN(CCCN1c2ccccc2NC1=O)CC3)c5cc4

> <Substance_modify_yyyymmdd>
20100107

$$$$
