57837-19-1
ChemmineR-0915142007XD

 20 20  0  0  0  0  0  0  0  0  1 V2000
    3.4691   -3.3101    0.0000 N   0  0  0  0  0  0  0  0  0  0  0  0
    2.3150   -3.9735    0.0000 C   0  0  0  0  0  0  0  0  0  0  0  0
    4.6162   -3.9735    0.0000 C   0  0  0  0  0  0  0  0  0  0  0  0
    3.4691   -1.9971    0.0000 C   0  0  0  0  0  0  0  0  0  0  0  0
    4.6162   -1.3268    0.0000 C   0  0  0  0  0  0  0  0  0  0  0  0
    2.3150   -5.3142    0.0000 C   0  0  0  0  0  0  0  0  0  0  0  0
    1.1541   -3.3101    0.0000 C   0  0  0  0  0  0  0  0  0  0  0  0
    4.6162   -5.3142    0.0000 O   0  0  0  0  0  0  0  0  0  0  0  0
    4.6162    0.0000    0.0000 O   0  0  0  0  0  0  0  0  0  0  0  0
    5.7565   -1.9971    0.0000 O   0  0  0  0  0  0  0  0  0  0  0  0
    5.7565   -3.3101    0.0000 C   0  0  0  0  0  0  0  0  0  0  0  0
    2.3150   -1.3268    0.0000 C   0  0  0  0  0  0  0  0  0  0  0  0
    6.9105   -3.9735    0.0000 O   0  0  0  0  0  0  0  0  0  0  0  0
    0.0000   -5.3142    0.0000 C   0  0  0  0  0  0  0  0  0  0  0  0
    0.0000   -3.9735    0.0000 C   0  0  0  0  0  0  0  0  0  0  0  0
    1.1541   -5.9707    0.0000 C   0  0  0  0  0  0  0  0  0  0  0  0
    1.1541   -1.9971    0.0000 C   0  0  0  0  0  0  0  0  0  0  0  0
    3.4691   -5.9707    0.0000 C   0  0  0  0  0  0  0  0  0  0  0  0
    6.9105   -1.3268    0.0000 C   0  0  0  0  0  0  0  0  0  0  0  0
    6.9105   -5.3142    0.0000 C   0  0  0  0  0  0  0  0  0  0  0  0
  1  2  1  0  0  0  0
  1  3  1  0  0  0  0
  1  4  1  0  0  0  0
  2  6  2  0  0  0  0
  2  7  1  0  0  0  0
  3  8  2  0  0  0  0
  3 11  1  0  0  0  0
  4  5  1  0  0  0  0
  4 12  1  0  0  0  0
  5  9  2  0  0  0  0
  5 10  1  0  0  0  0
  6 16  1  0  0  0  0
  6 18  1  0  0  0  0
  7 15  2  0  0  0  0
  7 17  1  0  0  0  0
 10 19  1  0  0  0  0
 11 13  1  0  0  0  0
 13 20  1  0  0  0  0
 14 15  1  0  0  0  0
 14 16  2  0  0  0  0
M  END
> <ID>
3546

> <Formula>
C15H21NO4

> <FW>
279.3315

> <DSSTox_CID>
4175

> <DSSTox_RID>
77316

> <DSSTox_GSID>
24175

> <DSSTox_FileID_Sort>
1999

> <TS_ChemName>
Metalaxyl

> <TS_ChemName_Synonyms>


> <TS_CASRN>
57837-19-1

> <CASRN_ChemName_Relationship>
primary

> <TS_Description>
single chemical compound

> <ChemNote>
mixture of (R,S) isomers; structure shown without stereochem

> <STRUCTURE_Shown>
tested chemical

> <STRUCTURE_Formula>
C15H21NO4

> <STRUCTURE_MW>
279.3315

> <STRUCTURE_ChemType>
defined organic

> <STRUCTURE_DefinedOrganicForm>
parent

> <STRUCTURE_IUPAC>
methyl N-(2,6-dimethylphenyl)-N-(methoxyacetyl)alaninate

> <STRUCTURE_SMILES>
CC(N(C(=O)COC)c1c(C)cccc1C)C(=O)OC

> <STRUCTURE_SMILES_Desalt>
CC(N(C(=O)COC)c1c(C)cccc1C)C(=O)OC

> <Substance_modify_yyyymmdd>
20080429

$$$$
