57852-57-0
ChemmineR-0915142007XD

 37 40  0  0  1  0  0  0  0  0  1 V2000
   12.6681   -2.3056    0.0000 C    0  0  0  0  0  0  0  0  0  0  0  0
   12.6681   -3.6357    0.0000 C    0  0  0  0  0  0  0  0  0  0  0  0
   11.5280   -1.6342    0.0000 C    0  0  0  0  0  0  0  0  0  0  0  0
   11.5280   -4.2945    0.0000 C    0  0  0  0  0  0  0  0  0  0  0  0
   10.3625   -2.3056    0.0000 C    0  0  0  0  0  0  0  0  0  0  0  0
   10.3625   -3.6357    0.0000 C    0  0  0  0  0  0  0  0  0  0  0  0
    9.2224   -1.6342    0.0000 C    0  0  0  0  0  0  0  0  0  0  0  0
    8.0696   -2.3056    0.0000 C    0  0  0  0  0  0  0  0  0  0  0  0
    9.2224   -4.2945    0.0000 C    0  0  0  0  0  0  0  0  0  0  0  0
    8.0696   -3.6357    0.0000 C    0  0  0  0  0  0  0  0  0  0  0  0
    6.9168   -1.6342    0.0000 C    0  0  0  0  0  0  0  0  0  0  0  0
    5.7513   -2.3056    0.0000 C    0  0  0  0  0  0  0  0  0  0  0  0
    6.9168   -4.2945    0.0000 C    0  0  0  0  0  0  0  0  0  0  0  0
    5.7513   -3.6357    0.0000 C    0  0  0  0  0  0  0  0  0  0  0  0
    9.2224   -0.3040    0.0000 O    0  0  0  0  0  0  0  0  0  0  0  0
    9.2224   -5.6246    0.0000 O    0  0  0  0  0  0  0  0  0  0  0  0
    6.9168   -0.3040    0.0000 O    0  0  0  0  0  0  0  0  0  0  0  0
    6.9168   -5.6246    0.0000 O    0  0  0  0  0  0  0  0  0  0  0  0
    4.5985   -1.6342    0.0000 C    0  0  0  0  0  0  0  0  0  0  0  0
    3.4457   -2.3056    0.0000 C    0  0  0  0  0  0  0  0  0  0  0  0
    4.5985   -4.2945    0.0000 C    0  0  0  0  0  0  0  0  0  0  0  0
    3.4457   -3.6357    0.0000 C    0  0  0  0  0  0  0  0  0  0  0  0
    4.5985   -5.6246    0.0000 O    0  0  0  0  0  0  0  0  0  0  0  0
    2.7870   -1.1275    0.0000 C    0  0  0  0  0  0  0  0  0  0  0  0
    1.4568   -1.1275    0.0000 O    0  0  0  0  0  0  0  0  0  0  0  0
    3.4457    0.0000    0.0000 C    0  0  0  0  0  0  0  0  0  0  0  0
    2.1156   -2.3056    0.0000 O    0  0  0  0  0  0  0  0  0  0  0  0
    3.4457   -6.2960    0.0000 C    0  0  0  0  0  0  0  0  0  0  0  0
    3.4457   -7.6262    0.0000 C    0  0  0  0  0  0  0  0  0  0  0  0
    2.3056   -5.6246    0.0000 O    0  0  0  0  0  0  0  0  0  0  0  0
    2.3056   -8.2849    0.0000 C    0  0  0  0  0  0  0  0  0  0  0  0
    1.1401   -6.2960    0.0000 C    0  0  0  0  0  0  0  0  0  0  0  0
    1.1401   -7.6262    0.0000 C    0  0  0  0  0  0  0  0  0  0  0  0
    0.0000   -5.6246    0.0000 C    0  0  0  0  0  0  0  0  0  0  0  0
    0.0000   -8.2849    0.0000 O    0  0  0  0  0  0  0  0  0  0  0  0
    2.3056   -9.6151    0.0000 N    0  0  0  0  0  0  0  0  0  0  0  0
    5.9033   -7.1575    0.0000 Cl   0  0  0  0  0  0  0  0  0  0  0  0
  1  2  1  0  0  0  0
  1  3  2  0  0  0  0
  2  4  2  0  0  0  0
  3  5  1  0  0  0  0
  4  6  1  0  0  0  0
  5  7  1  0  0  0  0
  5  6  2  0  0  0  0
  6  9  1  0  0  0  0
  7  8  1  0  0  0  0
  7 15  2  0  0  0  0
  8 11  1  0  0  0  0
  8 10  2  0  0  0  0
  9 10  1  0  0  0  0
  9 16  2  0  0  0  0
 10 13  1  0  0  0  0
 11 12  2  0  0  0  0
 11 17  1  0  0  0  0
 12 19  1  0  0  0  0
 12 14  1  0  0  0  0
 13 14  2  0  0  0  0
 13 18  1  0  0  0  0
 14 21  1  0  0  0  0
 19 20  1  0  0  0  0
 20 22  1  0  0  0  0
 20 24  1  0  0  0  0
 20 27  1  1  0  0  0
 21 22  1  0  0  0  0
 21 23  1  1  0  0  0
 28 23  1  1  0  0  0
 24 25  2  0  0  0  0
 24 26  1  0  0  0  0
 28 29  1  0  0  0  0
 28 30  1  0  0  0  0
 29 31  1  0  0  0  0
 30 32  1  0  0  0  0
 31 33  1  0  0  0  0
 31 36  1  6  0  0  0
 32 33  1  0  0  0  0
 32 34  1  6  0  0  0
 33 35  1  6  0  0  0
M  END
> <ID>
12892

> <Formula>
C26H28ClNO9

> <FW>
533.9548 (497.4939+36.4609)

> <DSSTox_CID>
27775

> <DSSTox_RID>
82550

> <DSSTox_GSID>
47797

> <DSSTox_FileID_Sort>
7230

> <TS_ChemName>
Idarubicin hydrochloride

> <TS_ChemName_Synonyms>


> <TS_CASRN>
57852-57-0

> <CASRN_ChemName_Relationship>
primary

> <TS_Description>
single chemical compound

> <ChemNote>
stereochem; parent [58957-92-9]

> <STRUCTURE_Shown>
tested chemical

> <STRUCTURE_Formula>
C26H28ClNO9

> <STRUCTURE_MW>
533.9548

> <STRUCTURE_ChemType>
defined organic

> <STRUCTURE_DefinedOrganicForm>
complex

> <STRUCTURE_IUPAC>
(1S,3S)-3-acetyl-3,5,12-trihydroxy-6,11-dioxo-1,2,3,4,6,11-hexahydrotetracen-1-yl 3-amino-2,3,6-trideoxy-alpha-L-lyxo-hexopyranoside hydrochloride (1:1)

> <STRUCTURE_SMILES>
Cl.CC(=O)[C@@]4(O)C[C@H](O[C@H]1C[C@H](N)[C@H](O)[C@H](C)O1)c5c(O)c3C(=O)c2ccccc2C(=O)c3c(O)c5C4

> <STRUCTURE_SMILES_Desalt>
CC(=O)[C@@]4(O)C[C@H](O[C@H]1C[C@H](N)[C@H](O)[C@H](C)O1)c5c(O)c3C(=O)c2ccccc2C(=O)c3c(O)c5C4

> <Substance_modify_yyyymmdd>
20110902

$$$$
