5786-21-0
ChemmineR-0915142007XD

 23 26  0  0  0  0  0  0  0  0  1 V2000
    4.0681   -1.0992    0.0000 C    0  0  0  0  0  0  0  0  0  0  0  0
    3.3165    0.0000    0.0000 Cl   0  0  0  0  0  0  0  0  0  0  0  0
    5.3928   -0.9959    0.0000 C    0  0  0  0  0  0  0  0  0  0  0  0
    6.1350   -2.0951    0.0000 C    0  0  0  0  0  0  0  0  0  0  0  0
    5.5431   -3.3071    0.0000 C    0  0  0  0  0  0  0  0  0  0  0  0
    4.2372   -3.3916    0.0000 C    0  0  0  0  0  0  0  0  0  0  0  0
    3.4856   -2.2924    0.0000 C    0  0  0  0  0  0  0  0  0  0  0  0
    3.4856   -4.4908    0.0000 N    0  0  0  0  0  0  0  0  0  0  0  0
    3.8614   -5.7404    0.0000 C    0  0  0  0  0  0  0  0  0  0  0  0
    2.9219   -6.6799    0.0000 N    0  0  0  0  0  0  0  0  0  0  0  0
    3.1849   -7.9388    0.0000 C    0  0  0  0  0  0  0  0  0  0  0  0
    2.2454   -8.8784    0.0000 C    0  0  0  0  0  0  0  0  0  0  0  0
    0.9395   -8.4556    0.0000 N    0  0  0  0  0  0  0  0  0  0  0  0
    0.0000   -9.3951    0.0000 C    0  0  0  0  0  0  0  0  0  0  0  0
    0.6764   -7.1966    0.0000 C    0  0  0  0  0  0  0  0  0  0  0  0
    1.6160   -6.2571    0.0000 C    0  0  0  0  0  0  0  0  0  0  0  0
    5.1203   -6.2477    0.0000 C    0  0  0  0  0  0  0  0  0  0  0  0
    6.2665   -5.5807    0.0000 C    0  0  0  0  0  0  0  0  0  0  0  0
    6.4826   -4.2466    0.0000 N    0  0  0  0  0  0  0  0  0  0  0  0
    7.4221   -6.2477    0.0000 C    0  0  0  0  0  0  0  0  0  0  0  0
    7.4221   -7.5724    0.0000 C    0  0  0  0  0  0  0  0  0  0  0  0
    6.2665   -8.2395    0.0000 C    0  0  0  0  0  0  0  0  0  0  0  0
    5.1203   -7.5724    0.0000 C    0  0  0  0  0  0  0  0  0  0  0  0
  1  2  1  0  0  0  0
  1  3  2  0  0  0  0
  1  7  1  0  0  0  0
  3  4  1  0  0  0  0
  4  5  2  0  0  0  0
  5  6  1  0  0  0  0
  5 19  1  0  0  0  0
  6  7  2  0  0  0  0
  6  8  1  0  0  0  0
  8  9  2  0  0  0  0
  9 10  1  0  0  0  0
  9 17  1  0  0  0  0
 10 11  1  0  0  0  0
 10 16  1  0  0  0  0
 11 12  1  0  0  0  0
 12 13  1  0  0  0  0
 13 14  1  0  0  0  0
 13 15  1  0  0  0  0
 15 16  1  0  0  0  0
 17 18  2  0  0  0  0
 17 23  1  0  0  0  0
 18 19  1  0  0  0  0
 18 20  1  0  0  0  0
 20 21  2  0  0  0  0
 21 22  1  0  0  0  0
 22 23  2  0  0  0  0
M  END
> <ID>
2581

> <Formula>
C18H19ClN4

> <FW>
326.8233

> <DSSTox_CID>
2855

> <DSSTox_RID>
76759

> <DSSTox_GSID>
22855

> <DSSTox_FileID_Sort>
1443

> <TS_ChemName>
Clozapine

> <TS_ChemName_Synonyms>


> <TS_CASRN>
5786-21-0

> <CASRN_ChemName_Relationship>
primary

> <TS_Description>
single chemical compound

> <ChemNote>


> <STRUCTURE_Shown>
tested chemical

> <STRUCTURE_Formula>
C18H19ClN4

> <STRUCTURE_MW>
326.8233

> <STRUCTURE_ChemType>
defined organic

> <STRUCTURE_DefinedOrganicForm>
parent

> <STRUCTURE_IUPAC>
8-chloro-11-(4-methylpiperazin-1-yl)-5H-dibenzo[b,e][1,4]diazepine

> <STRUCTURE_SMILES>
CN1CCN(CC1)C2=Nc4cc(Cl)ccc4Nc3ccccc23

> <STRUCTURE_SMILES_Desalt>
CN1CCN(CC1)C2=Nc4cc(Cl)ccc4Nc3ccccc23

> <Substance_modify_yyyymmdd>
20080429

$$$$
