5786-68-5
ChemmineR-0915142007XD

 24 25  0  0  0  0  0  0  0  0  1 V2000
    7.9516   -3.4501    0.0000 C   0  0  0  0  0  0  0  0  0  0  0  0
    6.6373   -3.4501    0.0000 C   0  0  0  0  0  0  0  0  0  0  0  0
    5.9801   -2.3000    0.0000 N   0  0  0  0  0  0  0  0  0  0  0  0
    6.6373   -1.1500    0.0000 C   0  0  0  0  0  0  0  0  0  0  0  0
    7.9516   -1.1500    0.0000 C   0  0  0  0  0  0  0  0  0  0  0  0
    8.6251   -2.3000    0.0000 N   0  0  0  0  0  0  0  0  0  0  0  0
    4.6494   -2.3000    0.0000 C   0  0  0  0  0  0  0  0  0  0  0  0
    3.9922   -3.4501    0.0000 C   0  0  0  0  0  0  0  0  0  0  0  0
    2.6450   -3.4501    0.0000 C   0  0  0  0  0  0  0  0  0  0  0  0
    2.0043   -2.3000    0.0000 C   0  0  0  0  0  0  0  0  0  0  0  0
    0.6736   -2.3000    0.0000 C   0  0  0  0  0  0  0  0  0  0  0  0
    0.0000   -1.1500    0.0000 C   0  0  0  0  0  0  0  0  0  0  0  0
    0.6736    0.0000    0.0000 C   0  0  0  0  0  0  0  0  0  0  0  0
    2.0043    0.0000    0.0000 C   0  0  0  0  0  0  0  0  0  0  0  0
    2.6450   -1.1500    0.0000 C   0  0  0  0  0  0  0  0  0  0  0  0
    3.9922   -1.1500    0.0000 N   0  0  0  0  0  0  0  0  0  0  0  0
   15.0817   -1.2650    0.0000 C   0  0  0  0  0  0  0  0  0  0  0  0
   12.4038   -1.2650    0.0000 C   0  0  0  0  0  0  0  0  0  0  0  0
   13.0609   -0.1150    0.0000 C   0  0  0  0  0  0  0  0  0  0  0  0
   14.4245   -0.1150    0.0000 C   0  0  0  0  0  0  0  0  0  0  0  0
   14.4245   -2.4150    0.0000 O   0  0  0  0  0  0  0  0  0  0  0  0
   13.0609   -2.4150    0.0000 O   0  0  0  0  0  0  0  0  0  0  0  0
   16.4288   -1.2814    0.0000 O   0  0  0  0  0  0  0  0  0  0  0  0
   11.0566   -1.2814    0.0000 O   0  0  0  0  0  0  0  0  0  0  0  0
  1  2  1  0  0  0  0
  1  6  1  0  0  0  0
  2  3  1  0  0  0  0
  3  4  1  0  0  0  0
  3  7  1  0  0  0  0
  4  5  1  0  0  0  0
  5  6  1  0  0  0  0
  7  8  2  0  0  0  0
  7 16  1  0  0  0  0
  8  9  1  0  0  0  0
  9 10  2  0  0  0  0
 10 11  1  0  0  0  0
 10 15  1  0  0  0  0
 11 12  2  0  0  0  0
 12 13  1  0  0  0  0
 13 14  2  0  0  0  0
 14 15  1  0  0  0  0
 15 16  2  0  0  0  0
 17 20  1  0  0  0  0
 17 21  2  0  0  0  0
 17 23  1  0  0  0  0
 18 19  1  0  0  0  0
 18 22  2  0  0  0  0
 18 24  1  0  0  0  0
 19 20  2  0  0  0  0
M  END
> <ID>
10807

> <Formula>
C17H19N3O4

> <FW>
329.3505 (213.2783+116.0722)

> <DSSTox_CID>
25190

> <DSSTox_RID>
80737

> <DSSTox_GSID>
45190

> <DSSTox_FileID_Sort>
5418

> <TS_ChemName>
Quipazine maleate

> <TS_ChemName_Synonyms>


> <TS_CASRN>
5786-68-5

> <CASRN_ChemName_Relationship>
primary

> <TS_Description>
single chemical compound

> <ChemNote>
parent [4774-24-7]

> <STRUCTURE_Shown>
tested chemical

> <STRUCTURE_Formula>
C17H19N3O4

> <STRUCTURE_MW>
329.3505

> <STRUCTURE_ChemType>
defined organic

> <STRUCTURE_DefinedOrganicForm>
complex

> <STRUCTURE_IUPAC>
2-(piperazin-1-yl)quinoline (2Z)-but-2-enedioate (1:1)

> <STRUCTURE_SMILES>
O=C(O)/C=C\C(=O)O.n1c3ccccc3ccc1N2CCNCC2

> <STRUCTURE_SMILES_Desalt>
n1c3ccccc3ccc1N2CCNCC2

> <Substance_modify_yyyymmdd>
20100107

$$$$
