579-56-6
ChemmineR-0915142007XD

 23 23  0  0  0  0  0  0  0  0  1 V2000
    6.8927   -1.9851    0.0000 N    0  0  0  0  0  0  0  0  0  0  0  0
    5.7347   -2.6606    0.0000 C    0  0  0  0  0  0  0  0  0  0  0  0
    4.5905   -1.9851    0.0000 C    0  0  0  0  0  0  0  0  0  0  0  0
    3.4326   -2.6606    0.0000 C    0  0  0  0  0  0  0  0  0  0  0  0
    2.3022   -1.9851    0.0000 C    0  0  0  0  0  0  0  0  0  0  0  0
    3.4326   -3.9978    0.0000 C    0  0  0  0  0  0  0  0  0  0  0  0
   10.3253   -2.6606    0.0000 O    0  0  0  0  0  0  0  0  0  0  0  0
    1.1442   -3.9978    0.0000 C    0  0  0  0  0  0  0  0  0  0  0  0
    4.5905   -0.6479    0.0000 O    0  0  0  0  0  0  0  0  0  0  0  0
    2.3022   -4.6319    0.0000 C    0  0  0  0  0  0  0  0  0  0  0  0
    1.1442   -2.6606    0.0000 C    0  0  0  0  0  0  0  0  0  0  0  0
    9.1949   -1.9851    0.0000 C    0  0  0  0  0  0  0  0  0  0  0  0
   11.4833   -1.9851    0.0000 C    0  0  0  0  0  0  0  0  0  0  0  0
    8.0369   -2.6606    0.0000 C    0  0  0  0  0  0  0  0  0  0  0  0
    0.0000   -4.6319    0.0000 O    0  0  0  0  0  0  0  0  0  0  0  0
    5.7347   -3.9978    0.0000 C    0  0  0  0  0  0  0  0  0  0  0  0
   11.4833   -0.6479    0.0000 C    0  0  0  0  0  0  0  0  0  0  0  0
   12.6274   -2.6606    0.0000 C    0  0  0  0  0  0  0  0  0  0  0  0
    8.0369   -3.9978    0.0000 C    0  0  0  0  0  0  0  0  0  0  0  0
   12.6274    0.0000    0.0000 C    0  0  0  0  0  0  0  0  0  0  0  0
   13.7854   -1.9851    0.0000 C    0  0  0  0  0  0  0  0  0  0  0  0
   13.7854   -0.6479    0.0000 C    0  0  0  0  0  0  0  0  0  0  0  0
    4.6319   -5.3625    0.0000 Cl   0  0  0  0  0  0  0  0  0  0  0  0
  1  2  1  0  0  0  0
  1 14  1  0  0  0  0
  2  3  1  0  0  0  0
  2 16  1  0  0  0  0
  3  4  1  0  0  0  0
  3  9  1  0  0  0  0
  4  5  2  0  0  0  0
  4  6  1  0  0  0  0
  5 11  1  0  0  0  0
  6 10  2  0  0  0  0
  7 12  1  0  0  0  0
  7 13  1  0  0  0  0
  8 10  1  0  0  0  0
  8 15  1  0  0  0  0
  8 11  2  0  0  0  0
 12 14  1  0  0  0  0
 13 17  1  0  0  0  0
 13 18  2  0  0  0  0
 14 19  1  0  0  0  0
 17 20  2  0  0  0  0
 18 21  1  0  0  0  0
 20 22  1  0  0  0  0
 21 22  2  0  0  0  0
M  END
> <ID>
10876

> <Formula>
C18H24ClNO3

> <FW>
337.8411 (301.3801+36.4609)

> <DSSTox_CID>
25328

> <DSSTox_RID>
80806

> <DSSTox_GSID>
45328

> <DSSTox_FileID_Sort>
5487

> <TS_ChemName>
Isoxsuprine hydrochloride

> <TS_ChemName_Synonyms>


> <TS_CASRN>
579-56-6

> <CASRN_ChemName_Relationship>
primary

> <TS_Description>
single chemical compound

> <ChemNote>
parent [395-28-8]

> <STRUCTURE_Shown>
tested chemical

> <STRUCTURE_Formula>
C18H24ClNO3

> <STRUCTURE_MW>
337.8411

> <STRUCTURE_ChemType>
defined organic

> <STRUCTURE_DefinedOrganicForm>
complex

> <STRUCTURE_IUPAC>
4-{1-hydroxy-2-[(1-phenoxypropan-2-yl)amino]propyl}phenol hydrochloride (1:1)

> <STRUCTURE_SMILES>
Cl.Oc1ccc(cc1)C(O)C(C)NC(C)COc2ccccc2

> <STRUCTURE_SMILES_Desalt>
Oc1ccc(cc1)C(O)C(C)NC(C)COc2ccccc2

> <Substance_modify_yyyymmdd>
20100107

$$$$
