579-23-7
ChemmineR-0915142007XD

 27 29  0  0  0  0  0  0  0  0  1 V2000
    1.1541    0.0000    0.0000 C   0  0  0  0  0  0  0  0  0  0  0  0
    2.3083   -0.6745    0.0000 O   0  0  0  0  0  0  0  0  0  0  0  0
    2.3083   -2.0085    0.0000 C   0  0  0  0  0  0  0  0  0  0  0  0
    3.4624   -2.6680    0.0000 C   0  0  0  0  0  0  0  0  0  0  0  0
    3.4624   -4.0170    0.0000 C   0  0  0  0  0  0  0  0  0  0  0  0
    2.3083   -4.6615    0.0000 C   0  0  0  0  0  0  0  0  0  0  0  0
    1.1541   -4.0170    0.0000 C   0  0  0  0  0  0  0  0  0  0  0  0
    1.1541   -2.6680    0.0000 C   0  0  0  0  0  0  0  0  0  0  0  0
    0.0000   -2.0085    0.0000 O   0  0  0  0  0  0  0  0  0  0  0  0
    4.6166   -4.6615    0.0000 C   0  0  0  0  0  0  0  0  0  0  0  0
    5.7707   -4.0170    0.0000 C   0  0  0  0  0  0  0  0  0  0  0  0
    5.7707   -2.6680    0.0000 C   0  0  0  0  0  0  0  0  0  0  0  0
    6.9249   -2.0085    0.0000 C   0  0  0  0  0  0  0  0  0  0  0  0
    8.0640   -2.6680    0.0000 C   0  0  0  0  0  0  0  0  0  0  0  0
    8.0640   -4.0170    0.0000 C   0  0  0  0  0  0  0  0  0  0  0  0
    9.2182   -4.6615    0.0000 C   0  0  0  0  0  0  0  0  0  0  0  0
   10.3723   -4.0170    0.0000 C   0  0  0  0  0  0  0  0  0  0  0  0
   10.3723   -2.6680    0.0000 C   0  0  0  0  0  0  0  0  0  0  0  0
   11.5264   -2.0085    0.0000 C   0  0  0  0  0  0  0  0  0  0  0  0
   12.6806   -2.6680    0.0000 C   0  0  0  0  0  0  0  0  0  0  0  0
   13.8347   -2.0085    0.0000 O   0  0  0  0  0  0  0  0  0  0  0  0
   12.6806   -4.0170    0.0000 C   0  0  0  0  0  0  0  0  0  0  0  0
   11.5264   -4.6615    0.0000 C   0  0  0  0  0  0  0  0  0  0  0  0
   13.8347   -4.6615    0.0000 O   0  0  0  0  0  0  0  0  0  0  0  0
   14.9889   -4.0170    0.0000 C   0  0  0  0  0  0  0  0  0  0  0  0
    6.9249   -4.6615    0.0000 C   0  0  0  0  0  0  0  0  0  0  0  0
    6.9249   -5.9956    0.0000 O   0  0  0  0  0  0  0  0  0  0  0  0
  1  2  1  0  0  0  0
  2  3  1  0  0  0  0
  3  4  2  0  0  0  0
  3  8  1  0  0  0  0
  4  5  1  0  0  0  0
  5  6  2  0  0  0  0
  5 10  1  0  0  0  0
  6  7  1  0  0  0  0
  7  8  2  0  0  0  0
  8  9  1  0  0  0  0
 10 11  2  3  0  0  0
 11 12  1  0  0  0  0
 11 26  1  0  0  0  0
 12 13  1  0  0  0  0
 13 14  1  0  0  0  0
 14 15  1  0  0  0  0
 15 16  2  3  0  0  0
 15 26  1  0  0  0  0
 16 17  1  0  0  0  0
 17 18  2  0  0  0  0
 17 23  1  0  0  0  0
 18 19  1  0  0  0  0
 19 20  2  0  0  0  0
 20 21  1  0  0  0  0
 20 22  1  0  0  0  0
 22 23  2  0  0  0  0
 22 24  1  0  0  0  0
 24 25  1  0  0  0  0
 26 27  2  0  0  0  0
M  END
> <ID>
11634

> <Formula>
C22H22O5

> <FW>
366.4071

> <DSSTox_CID>
26386

> <DSSTox_RID>
81567

> <DSSTox_GSID>
46386

> <DSSTox_FileID_Sort>
6248

> <TS_ChemName>
Cyclovalone

> <TS_ChemName_Synonyms>


> <TS_CASRN>
579-23-7

> <CASRN_ChemName_Relationship>
primary

> <TS_Description>
mixture of Z,E isomers

> <ChemNote>
mixture of Z,E isomers

> <STRUCTURE_Shown>
representative isomer in mixture

> <STRUCTURE_Formula>
C22H22O5

> <STRUCTURE_MW>
366.4071

> <STRUCTURE_ChemType>
defined organic

> <STRUCTURE_DefinedOrganicForm>
parent

> <STRUCTURE_IUPAC>
2,6-bis(4-hydroxy-3-methoxybenzylidene)cyclohexanone

> <STRUCTURE_SMILES>
Oc1ccc(cc1OC)C=C3CCCC(=Cc2cc(OC)c(O)cc2)C3=O

> <STRUCTURE_SMILES_Desalt>
Oc1ccc(cc1OC)C=C3CCCC(=Cc2cc(OC)c(O)cc2)C3=O

> <Substance_modify_yyyymmdd>
20110814

$$$$
