5794-04-7
ChemmineR-0915142007XD

 12 13  0  0  1  0  0  0  0  0  1 V2000
    0.0000   -3.0403    0.0000 C   0  0  0  0  0  0  0  0  0  0  0  0
    0.5817   -2.0042    0.0000 C   0  0  0  0  0  0  0  0  0  0  0  0
    1.5966   -1.2866    0.0000 C   0  0  0  0  0  0  0  0  0  0  0  0
    1.2229   -2.4289    0.0000 C   0  0  0  0  0  0  0  0  0  0  0  0
    1.3333    0.0000    0.0000 C   0  0  0  0  0  0  0  0  0  0  0  0
    2.8535   -2.0212    0.0000 C   0  0  0  0  0  0  0  0  0  0  0  0
    2.3822   -3.0234    0.0000 C   0  0  0  0  0  0  0  0  0  0  0  0
    4.0892   -2.4119    0.0000 C   0  0  0  0  0  0  0  0  0  0  0  0
    2.9299   -0.7219    0.0000 C   0  0  0  0  0  0  0  0  0  0  0  0
    2.8068   -4.2463    0.0000 C   0  0  0  0  0  0  0  0  0  0  0  0
    2.2081   -0.5011    0.0000 H   0  0  0  0  0  0  0  0  0  0  0  0
    1.6603   -3.3206    0.0000 H   0  0  0  0  0  0  0  0  0  0  0  0
  1  2  1  0  0  0  0
  1  4  1  0  0  0  0
  2  3  1  0  0  0  0
  3  5  1  0  0  0  0
  3  6  1  0  0  0  0
  3 11  1  6  0  0  0
  4  5  1  0  0  0  0
  4  7  1  0  0  0  0
  4 12  1  1  0  0  0
  6  7  1  0  0  0  0
  6  8  1  0  0  0  0
  6  9  1  0  0  0  0
  7 10  2  0  0  0  0
M  END
> <ID>
11768

> <Formula>
C10H16

> <FW>
136.234

> <DSSTox_CID>
26538

> <DSSTox_RID>
81702

> <DSSTox_GSID>
46538

> <DSSTox_FileID_Sort>
6383

> <TS_ChemName>
(-)-Camphene

> <TS_ChemName_Synonyms>


> <TS_CASRN>
5794-04-7

> <CASRN_ChemName_Relationship>
primary

> <TS_Description>
single chemical compound

> <ChemNote>
stereochem

> <STRUCTURE_Shown>
tested chemical

> <STRUCTURE_Formula>
C10H16

> <STRUCTURE_MW>
136.234

> <STRUCTURE_ChemType>
defined organic

> <STRUCTURE_DefinedOrganicForm>
parent

> <STRUCTURE_IUPAC>
(1S,4R)-2,2-dimethyl-3-methylidenebicyclo[2.2.1]heptane

> <STRUCTURE_SMILES>
CC2(C)C(=C)[C@@H]1CC[C@H]2C1

> <STRUCTURE_SMILES_Desalt>
CC2(C)C(=C)[C@@H]1CC[C@H]2C1

> <Substance_modify_yyyymmdd>
20110811

$$$$
