57966-95-7
ChemmineR-0915142007XD

 14 13  0  0  0  0  0  0  0  0  1 V2000
    3.4276   -2.0072    0.0000 C   0  0  0  0  0  0  0  0  0  0  0  0
    4.5702   -1.3175    0.0000 C   0  0  0  0  0  0  0  0  0  0  0  0
    2.2851   -1.3175    0.0000 N   0  0  0  0  0  0  0  0  0  0  0  0
    3.4276   -3.3247    0.0000 C   0  0  0  0  0  0  0  0  0  0  0  0
    5.7230   -2.0072    0.0000 N   0  0  0  0  0  0  0  0  0  0  0  0
    4.5702    0.0000    0.0000 O   0  0  0  0  0  0  0  0  0  0  0  0
    1.1323   -2.0072    0.0000 O   0  0  0  0  0  0  0  0  0  0  0  0
    3.4276   -4.6422    0.0000 N   0  0  0  0  0  0  0  0  0  0  0  0
    6.8759   -1.3175    0.0000 C   0  0  0  0  0  0  0  0  0  0  0  0
    0.0000   -1.3175    0.0000 C   0  0  0  0  0  0  0  0  0  0  0  0
    8.0081   -2.0072    0.0000 N   0  0  0  0  0  0  0  0  0  0  0  0
    6.8759    0.0000    0.0000 O   0  0  0  0  0  0  0  0  0  0  0  0
    9.1610   -1.3175    0.0000 C   0  0  0  0  0  0  0  0  0  0  0  0
   10.2932   -2.0072    0.0000 C   0  0  0  0  0  0  0  0  0  0  0  0
  1  2  1  0  0  0  0
  1  3  2  0  0  0  0
  1  4  1  0  0  0  0
  2  5  1  0  0  0  0
  2  6  2  0  0  0  0
  3  7  1  0  0  0  0
  4  8  3  0  0  0  0
  5  9  1  0  0  0  0
  7 10  1  0  0  0  0
  9 11  1  0  0  0  0
  9 12  2  0  0  0  0
 11 13  1  0  0  0  0
 13 14  1  0  0  0  0
M  END
> <ID>
6432

> <Formula>
C7H10N4O3

> <FW>
198.1793

> <DSSTox_CID>
12358

> <DSSTox_RID>
78924

> <DSSTox_GSID>
32358

> <DSSTox_FileID_Sort>
3606

> <TS_ChemName>
Cymoxanil

> <TS_ChemName_Synonyms>


> <TS_CASRN>
57966-95-7

> <CASRN_ChemName_Relationship>
primary

> <TS_Description>
single chemical compound

> <ChemNote>


> <STRUCTURE_Shown>
tested chemical

> <STRUCTURE_Formula>
C7H10N4O3

> <STRUCTURE_MW>
198.1793

> <STRUCTURE_ChemType>
defined organic

> <STRUCTURE_DefinedOrganicForm>
parent

> <STRUCTURE_IUPAC>
(2E)-2-cyano-N-(ethylcarbamoyl)-2-(methoxyimino)acetamide

> <STRUCTURE_SMILES>
N#C/C(=N\OC)C(=O)NC(=O)NCC

> <STRUCTURE_SMILES_Desalt>
N#C/C(=N\OC)C(=O)NC(=O)NCC

> <Substance_modify_yyyymmdd>
20080429

$$$$
