58-00-4
ChemmineR-0915142007XD

 21 24  0  0  1  0  0  0  0  0  1 V2000
    5.6885   -3.9573    0.0000 C   0  0  0  0  0  0  0  0  0  0  0  0
    3.4147   -2.6568    0.0000 C   0  0  0  0  0  0  0  0  0  0  0  0
    4.5476   -2.0026    0.0000 C   0  0  0  0  0  0  0  0  0  0  0  0
    5.6885   -2.6568    0.0000 C   0  0  0  0  0  0  0  0  0  0  0  0
    3.4147   -3.9573    0.0000 C   0  0  0  0  0  0  0  0  0  0  0  0
    4.5636   -4.6274    0.0000 C   0  0  0  0  0  0  0  0  0  0  0  0
    6.8374   -4.6274    0.0000 N   0  0  0  0  0  0  0  0  0  0  0  0
    2.2898   -2.0026    0.0000 C   0  0  0  0  0  0  0  0  0  0  0  0
    6.8374   -2.0026    0.0000 C   0  0  0  0  0  0  0  0  0  0  0  0
    1.1409   -2.6568    0.0000 C   0  0  0  0  0  0  0  0  0  0  0  0
    2.2898   -4.6274    0.0000 C   0  0  0  0  0  0  0  0  0  0  0  0
    7.9783   -3.9573    0.0000 C   0  0  0  0  0  0  0  0  0  0  0  0
    7.9783   -2.6568    0.0000 C   0  0  0  0  0  0  0  0  0  0  0  0
    1.1409   -3.9573    0.0000 C   0  0  0  0  0  0  0  0  0  0  0  0
    2.2898   -0.6702    0.0000 O   0  0  0  0  0  0  0  0  0  0  0  0
    4.5476   -0.6542    0.0000 C   0  0  0  0  0  0  0  0  0  0  0  0
    0.0000   -1.9706    0.0000 O   0  0  0  0  0  0  0  0  0  0  0  0
    6.8374   -5.9439    0.0000 C   0  0  0  0  0  0  0  0  0  0  0  0
    5.6885    0.0000    0.0000 C   0  0  0  0  0  0  0  0  0  0  0  0
    6.8374   -0.6542    0.0000 C   0  0  0  0  0  0  0  0  0  0  0  0
    5.6885   -5.5449    0.0000 H   0  0  0  0  0  0  0  0  0  0  0  0
  1  4  1  0  0  0  0
  1  6  1  0  0  0  0
  1  7  1  0  0  0  0
  1 21  1  1  0  0  0
  2  5  2  0  0  0  0
  2  8  1  0  0  0  0
  2  3  1  0  0  0  0
  3  4  2  0  0  0  0
  3 16  1  0  0  0  0
  4  9  1  0  0  0  0
  5  6  1  0  0  0  0
  5 11  1  0  0  0  0
  7 12  1  0  0  0  0
  7 18  1  0  0  0  0
  8 15  1  0  0  0  0
  8 10  2  0  0  0  0
  9 20  2  0  0  0  0
  9 13  1  0  0  0  0
 10 14  1  0  0  0  0
 10 17  1  0  0  0  0
 11 14  2  0  0  0  0
 12 13  1  0  0  0  0
 16 19  2  0  0  0  0
 19 20  1  0  0  0  0
M  END
> <ID>
2369

> <Formula>
C17H17NO2

> <FW>
267.3224

> <DSSTox_CID>
2614

> <DSSTox_RID>
76660

> <DSSTox_GSID>
22614

> <DSSTox_FileID_Sort>
1344

> <TS_ChemName>
Apomorphine

> <TS_ChemName_Synonyms>


> <TS_CASRN>
58-00-4

> <CASRN_ChemName_Relationship>
primary

> <TS_Description>
single chemical compound

> <ChemNote>
stereochem

> <STRUCTURE_Shown>
tested chemical

> <STRUCTURE_Formula>
C17H17NO2

> <STRUCTURE_MW>
267.3224

> <STRUCTURE_ChemType>
defined organic

> <STRUCTURE_DefinedOrganicForm>
parent

> <STRUCTURE_IUPAC>
(6aR)-6-methyl-5,6,6a,7-tetrahydro-4H-dibenzo[de,g]quinoline-10,11-diol

> <STRUCTURE_SMILES>
Oc3ccc2C[C@@H]1c4c(CCN1C)cccc4c2c3O

> <STRUCTURE_SMILES_Desalt>
Oc3ccc2C[C@@H]1c4c(CCN1C)cccc4c2c3O

> <Substance_modify_yyyymmdd>
20080429

$$$$
