58-18-4
ChemmineR-0915142007XD

 25 28  0  0  1  0  0  0  0  0  1 V2000
    3.4676   -3.7684    0.0000 C   0  0  0  0  0  0  0  0  0  0  0  0
    6.9353   -1.7573    0.0000 C   0  0  0  0  0  0  0  0  0  0  0  0
    3.4676   -5.0934    0.0000 C   0  0  0  0  0  0  0  0  0  0  0  0
    4.6235   -3.1011    0.0000 C   0  0  0  0  0  0  0  0  0  0  0  0
    6.9353   -3.1011    0.0000 C   0  0  0  0  0  0  0  0  0  0  0  0
    5.7888   -3.7684    0.0000 C   0  0  0  0  0  0  0  0  0  0  0  0
    2.3306   -5.7512    0.0000 C   0  0  0  0  0  0  0  0  0  0  0  0
    8.2133   -1.3438    0.0000 C   0  0  0  0  0  0  0  0  0  0  0  0
    5.7888   -1.0807    0.0000 C   0  0  0  0  0  0  0  0  0  0  0  0
    4.6235   -1.7573    0.0000 C   0  0  0  0  0  0  0  0  0  0  0  0
    2.3306   -3.1011    0.0000 C   0  0  0  0  0  0  0  0  0  0  0  0
    5.7888   -5.0934    0.0000 C   0  0  0  0  0  0  0  0  0  0  0  0
    8.2133   -3.4864    0.0000 C   0  0  0  0  0  0  0  0  0  0  0  0
    4.6235   -5.7512    0.0000 C   0  0  0  0  0  0  0  0  0  0  0  0
    1.1653   -5.0934    0.0000 C   0  0  0  0  0  0  0  0  0  0  0  0
    8.9933   -2.4151    0.0000 C   0  0  0  0  0  0  0  0  0  0  0  0
    0.0000   -5.7512    0.0000 O   0  0  0  0  0  0  0  0  0  0  0  0
    1.1653   -3.7684    0.0000 C   0  0  0  0  0  0  0  0  0  0  0  0
    8.2133    0.0000    0.0000 O   0  0  0  0  0  0  0  0  0  0  0  0
    3.4676   -2.4151    0.0000 C   0  0  0  0  0  0  0  0  0  0  0  0
    6.9353   -0.3947    0.0000 C   0  0  0  0  0  0  0  0  0  0  0  0
    9.3974   -1.3438    0.0000 C   0  0  0  0  0  0  0  0  0  0  0  0
    5.7888   -2.4151    0.0000 H   0  0  0  0  0  0  0  0  0  0  0  0
    4.6235   -4.4262    0.0000 H   0  0  0  0  0  0  0  0  0  0  0  0
    6.9353   -4.4262    0.0000 H   0  0  0  0  0  0  0  0  0  0  0  0
  1  3  1  0  0  0  0
  1  4  1  0  0  0  0
  1 11  1  0  0  0  0
  1 20  1  1  0  0  0
  2  9  1  0  0  0  0
  2  8  1  0  0  0  0
  2 21  1  1  0  0  0
  2  5  1  0  0  0  0
  3  7  2  0  0  0  0
  3 14  1  0  0  0  0
  4  6  1  0  0  0  0
  4 10  1  0  0  0  0
  4 24  1  6  0  0  0
  5  6  1  0  0  0  0
  5 13  1  0  0  0  0
  5 25  1  6  0  0  0
  6 12  1  0  0  0  0
  6 23  1  1  0  0  0
  7 15  1  0  0  0  0
  8 19  1  1  0  0  0
  8 22  1  6  0  0  0
  8 16  1  0  0  0  0
  9 10  1  0  0  0  0
 11 18  1  0  0  0  0
 12 14  1  0  0  0  0
 13 16  1  0  0  0  0
 15 18  1  0  0  0  0
 15 17  2  0  0  0  0
M  END
> <ID>
6640

> <Formula>
C20H30O2

> <FW>
302.451

> <DSSTox_CID>
13664

> <DSSTox_RID>
79089

> <DSSTox_GSID>
33664

> <DSSTox_FileID_Sort>
3771

> <TS_ChemName>
17-Methyltestosterone

> <TS_ChemName_Synonyms>


> <TS_CASRN>
58-18-4

> <CASRN_ChemName_Relationship>
primary

> <TS_Description>
single chemical compound

> <ChemNote>
stereochem

> <STRUCTURE_Shown>
tested chemical

> <STRUCTURE_Formula>
C20H30O2

> <STRUCTURE_MW>
302.451

> <STRUCTURE_ChemType>
defined organic

> <STRUCTURE_DefinedOrganicForm>
parent

> <STRUCTURE_IUPAC>
(17beta)-17-hydroxy-17-methylandrost-4-en-3-one

> <STRUCTURE_SMILES>
O=C4CC[C@@]3(C)C(CC[C@@H]2[C@@H]3CC[C@@]1(C)[C@H]2CC[C@]1(C)O)=C4

> <STRUCTURE_SMILES_Desalt>
O=C4CC[C@@]3(C)C(CC[C@@H]2[C@@H]3CC[C@@]1(C)[C@H]2CC[C@]1(C)O)=C4

> <Substance_modify_yyyymmdd>
20080429

$$$$
