58-28-6
ChemmineR-0915142007XD

 21 22  0  0  0  0  0  0  0  0  1 V2000
    3.7287   -2.9285    0.0000 N    0  0  0  0  0  0  0  0  0  0  0  0
    2.5243   -2.3511    0.0000 C    0  0  0  0  0  0  0  0  0  0  0  0
    4.9249   -2.3511    0.0000 C    0  0  0  0  0  0  0  0  0  0  0  0
    2.2191   -1.0559    0.0000 C    0  0  0  0  0  0  0  0  0  0  0  0
    5.2301   -1.0559    0.0000 C    0  0  0  0  0  0  0  0  0  0  0  0
    3.0853    0.0000    0.0000 C    0  0  0  0  0  0  0  0  0  0  0  0
    4.4134    0.0000    0.0000 C    0  0  0  0  0  0  0  0  0  0  0  0
    3.7287   -4.2567    0.0000 C    0  0  0  0  0  0  0  0  0  0  0  0
    1.4189   -6.9212    0.0000 N    0  0  0  0  0  0  0  0  0  0  0  0
    2.5903   -4.9084    0.0000 C    0  0  0  0  0  0  0  0  0  0  0  0
    1.5674   -3.2420    0.0000 C    0  0  0  0  0  0  0  0  0  0  0  0
    5.8983   -3.2420    0.0000 C    0  0  0  0  0  0  0  0  0  0  0  0
    2.5903   -6.2365    0.0000 C    0  0  0  0  0  0  0  0  0  0  0  0
    0.9734   -0.6517    0.0000 C    0  0  0  0  0  0  0  0  0  0  0  0
    6.5087   -0.6517    0.0000 C    0  0  0  0  0  0  0  0  0  0  0  0
    1.4189   -8.2493    0.0000 C    0  0  0  0  0  0  0  0  0  0  0  0
    0.2887   -2.8460    0.0000 C    0  0  0  0  0  0  0  0  0  0  0  0
    7.1769   -2.8460    0.0000 C    0  0  0  0  0  0  0  0  0  0  0  0
    0.0000   -1.5674    0.0000 C    0  0  0  0  0  0  0  0  0  0  0  0
    7.4822   -1.5674    0.0000 C    0  0  0  0  0  0  0  0  0  0  0  0
    5.2301   -5.3208    0.0000 Cl   0  0  0  0  0  0  0  0  0  0  0  0
  1  2  1  0  0  0  0
  1  3  1  0  0  0  0
  1  8  1  0  0  0  0
  2  4  2  0  0  0  0
  2 11  1  0  0  0  0
  3  5  2  0  0  0  0
  3 12  1  0  0  0  0
  4  6  1  0  0  0  0
  4 14  1  0  0  0  0
  5  7  1  0  0  0  0
  5 15  1  0  0  0  0
  6  7  1  0  0  0  0
  8 10  1  0  0  0  0
  9 13  1  0  0  0  0
  9 16  1  0  0  0  0
 10 13  1  0  0  0  0
 11 17  2  0  0  0  0
 12 18  2  0  0  0  0
 14 19  2  0  0  0  0
 15 20  2  0  0  0  0
 17 19  1  0  0  0  0
 18 20  1  0  0  0  0
M  END
> <ID>
12101

> <Formula>
C18H23ClN2

> <FW>
302.8416 (266.3807+36.4609)

> <DSSTox_CID>
26942

> <DSSTox_RID>
82024

> <DSSTox_GSID>
46942

> <DSSTox_FileID_Sort>
6705

> <TS_ChemName>
Desipramine hydrochloride

> <TS_ChemName_Synonyms>


> <TS_CASRN>
58-28-6

> <CASRN_ChemName_Relationship>
primary

> <TS_Description>
single chemical compound

> <ChemNote>
parent [50-47-5]

> <STRUCTURE_Shown>
tested chemical

> <STRUCTURE_Formula>
C18H23ClN2

> <STRUCTURE_MW>
302.8416

> <STRUCTURE_ChemType>
defined organic

> <STRUCTURE_DefinedOrganicForm>
complex

> <STRUCTURE_IUPAC>
3-(10,11-dihydro-5H-dibenzo[b,f]azepin-5-yl)-N-methylpropan-1-amine hydrochloride (1:1)

> <STRUCTURE_SMILES>
Cl.CNCCCN2c3ccccc3CCc1ccccc12

> <STRUCTURE_SMILES_Desalt>
CNCCCN2c3ccccc3CCc1ccccc12

> <Substance_modify_yyyymmdd>
20100107

$$$$
