58-25-3
ChemmineR-0915142007XD

 21 23  0  0  0  0  0  0  0  0  2 V2000
    5.8612   -3.5135    0.0000 N    0  3  0  0  0  0  0  0  0  0  0  0
    3.5295   -2.9625    0.0000 C    0  0  0  0  0  0  0  0  0  0  0  0
    4.5755   -3.7850    0.0000 C    0  0  0  0  0  0  0  0  0  0  0  0
    4.5755   -0.7905    0.0000 N    0  0  0  0  0  0  0  0  0  0  0  0
    6.4361   -2.3237    0.0000 C    0  0  0  0  0  0  0  0  0  0  0  0
    3.5295   -1.6290    0.0000 C    0  0  0  0  0  0  0  0  0  0  0  0
    5.8612   -1.0620    0.0000 C    0  0  0  0  0  0  0  0  0  0  0  0
    6.5719   -4.4318    0.0000 O    0  5  0  0  0  0  0  0  0  0  0  0
    2.3636   -3.6093    0.0000 C    0  0  0  0  0  0  0  0  0  0  0  0
    4.5755   -5.1185    0.0000 C    0  0  0  0  0  0  0  0  0  0  0  0
    2.3636   -0.9502    0.0000 C    0  0  0  0  0  0  0  0  0  0  0  0
    6.6357    0.0000    0.0000 N    0  0  0  0  0  0  0  0  0  0  0  0
    1.2058   -2.9466    0.0000 C    0  0  0  0  0  0  0  0  0  0  0  0
    1.2058   -1.6450    0.0000 C    0  0  0  0  0  0  0  0  0  0  0  0
    0.0000   -3.5774    0.0000 Cl   0  0  0  0  0  0  0  0  0  0  0  0
    3.3778   -5.7973    0.0000 C    0  0  0  0  0  0  0  0  0  0  0  0
    5.7174   -5.7973    0.0000 C    0  0  0  0  0  0  0  0  0  0  0  0
    7.9853    0.0000    0.0000 C    0  0  0  0  0  0  0  0  0  0  0  0
    3.3778   -7.1308    0.0000 C    0  0  0  0  0  0  0  0  0  0  0  0
    5.7174   -7.1308    0.0000 C    0  0  0  0  0  0  0  0  0  0  0  0
    4.5755   -7.7936    0.0000 C    0  0  0  0  0  0  0  0  0  0  0  0
  1  3  2  0  0  0  0
  1  5  1  0  0  0  0
  1  8  1  0  0  0  0
  2  3  1  0  0  0  0
  2  6  2  0  0  0  0
  2  9  1  0  0  0  0
  3 10  1  0  0  0  0
  4  7  2  0  0  0  0
  4  6  1  0  0  0  0
  5  7  1  0  0  0  0
  6 11  1  0  0  0  0
  7 12  1  0  0  0  0
  9 13  2  0  0  0  0
 10 16  1  0  0  0  0
 10 17  2  0  0  0  0
 11 14  2  0  0  0  0
 12 18  1  0  0  0  0
 13 14  1  0  0  0  0
 13 15  1  0  0  0  0
 16 19  2  0  0  0  0
 17 20  1  0  0  0  0
 19 21  1  0  0  0  0
 20 21  2  0  0  0  0
M  END
> <ID>
11363

> <Formula>
C16H14ClN3O

> <FW>
299.7549

> <DSSTox_CID>
26022

> <DSSTox_RID>
81295

> <DSSTox_GSID>
46022

> <DSSTox_FileID_Sort>
5976

> <TS_ChemName>
Chlordiazepoxide

> <TS_ChemName_Synonyms>


> <TS_CASRN>
58-25-3

> <CASRN_ChemName_Relationship>
primary

> <TS_Description>
single chemical compound

> <ChemNote>
ammonium

> <STRUCTURE_Shown>
tested chemical

> <STRUCTURE_Formula>
C16H14ClN3O

> <STRUCTURE_MW>
299.7549

> <STRUCTURE_ChemType>
defined organic

> <STRUCTURE_DefinedOrganicForm>
parent

> <STRUCTURE_IUPAC>
7-chloro-N-methyl-5-phenyl-3H-1,4-benzodiazepin-2-amine 4-oxide

> <STRUCTURE_SMILES>
Clc1ccc2N=C(C[N+]([O-])=C(c2c1)c3ccccc3)NC

> <STRUCTURE_SMILES_Desalt>
Clc1ccc2N=C(C[N+](O)=C(c2c1)c3ccccc3)NC

> <Substance_modify_yyyymmdd>
20110824

$$$$
