58-32-2
ChemmineR-0915142007XD

 36 39  0  0  0  0  0  0  0  0  1 V2000
    6.9045   -6.0050    0.0000 C   0  0  0  0  0  0  0  0  0  0  0  0
    6.9045   -4.6621    0.0000 C   0  0  0  0  0  0  0  0  0  0  0  0
    4.6115   -4.6621    0.0000 N   0  0  0  0  0  0  0  0  0  0  0  0
    9.2103   -6.0050    0.0000 N   0  0  0  0  0  0  0  0  0  0  0  0
    5.7643   -4.0034    0.0000 C   0  0  0  0  0  0  0  0  0  0  0  0
    8.0574   -6.6638    0.0000 C   0  0  0  0  0  0  0  0  0  0  0  0
    4.6115   -6.0050    0.0000 C   0  0  0  0  0  0  0  0  0  0  0  0
    9.2103   -4.6621    0.0000 C   0  0  0  0  0  0  0  0  0  0  0  0
    8.0574   -4.0034    0.0000 N   0  0  0  0  0  0  0  0  0  0  0  0
    5.7643   -6.6638    0.0000 N   0  0  0  0  0  0  0  0  0  0  0  0
    5.7643   -2.6731    0.0000 N   0  0  0  0  0  0  0  0  0  0  0  0
    8.0574   -8.0067    0.0000 N   0  0  0  0  0  0  0  0  0  0  0  0
   10.3631   -3.9907    0.0000 N   0  0  0  0  0  0  0  0  0  0  0  0
    3.4586   -6.6892    0.0000 N   0  0  0  0  0  0  0  0  0  0  0  0
    6.9045   -2.0017    0.0000 C   0  0  0  0  0  0  0  0  0  0  0  0
    9.2103   -8.6655    0.0000 C   0  0  0  0  0  0  0  0  0  0  0  0
    4.6115   -2.0017    0.0000 C   0  0  0  0  0  0  0  0  0  0  0  0
    6.9045   -8.6655    0.0000 C   0  0  0  0  0  0  0  0  0  0  0  0
   11.5160   -0.6715    0.0000 O   0  0  0  0  0  0  0  0  0  0  0  0
    0.0000   -6.0304    0.0000 O   0  0  0  0  0  0  0  0  0  0  0  0
   12.6689   -6.6385    0.0000 O   0  0  0  0  0  0  0  0  0  0  0  0
    4.6115   -9.9957    0.0000 O   0  0  0  0  0  0  0  0  0  0  0  0
    2.3057   -6.0304    0.0000 C   0  0  0  0  0  0  0  0  0  0  0  0
   11.5160   -4.6368    0.0000 C   0  0  0  0  0  0  0  0  0  0  0  0
    3.4586   -8.0067    0.0000 C   0  0  0  0  0  0  0  0  0  0  0  0
   10.3631   -2.6731    0.0000 C   0  0  0  0  0  0  0  0  0  0  0  0
   11.5160   -2.0017    0.0000 C   0  0  0  0  0  0  0  0  0  0  0  0
    1.1529   -6.6892    0.0000 C   0  0  0  0  0  0  0  0  0  0  0  0
    4.6115   -8.6655    0.0000 C   0  0  0  0  0  0  0  0  0  0  0  0
   11.5160   -5.9797    0.0000 C   0  0  0  0  0  0  0  0  0  0  0  0
    6.9045   -9.9957    0.0000 C   0  0  0  0  0  0  0  0  0  0  0  0
    9.2103   -9.9957    0.0000 C   0  0  0  0  0  0  0  0  0  0  0  0
    6.9045   -0.6715    0.0000 C   0  0  0  0  0  0  0  0  0  0  0  0
    4.6115   -0.6715    0.0000 C   0  0  0  0  0  0  0  0  0  0  0  0
    5.7643    0.0000    0.0000 C   0  0  0  0  0  0  0  0  0  0  0  0
    8.0574  -10.6672    0.0000 C   0  0  0  0  0  0  0  0  0  0  0  0
  1  2  1  0  0  0  0
  1  6  2  0  0  0  0
  1 10  1  0  0  0  0
  2  5  1  0  0  0  0
  2  9  2  0  0  0  0
  3  7  1  0  0  0  0
  3  5  2  0  0  0  0
  4  6  1  0  0  0  0
  4  8  2  0  0  0  0
  5 11  1  0  0  0  0
  6 12  1  0  0  0  0
  7 10  2  0  0  0  0
  7 14  1  0  0  0  0
  8 13  1  0  0  0  0
  8  9  1  0  0  0  0
 11 15  1  0  0  0  0
 11 17  1  0  0  0  0
 12 16  1  0  0  0  0
 12 18  1  0  0  0  0
 13 24  1  0  0  0  0
 13 26  1  0  0  0  0
 14 23  1  0  0  0  0
 14 25  1  0  0  0  0
 15 33  1  0  0  0  0
 16 32  1  0  0  0  0
 17 34  1  0  0  0  0
 18 31  1  0  0  0  0
 19 27  1  0  0  0  0
 20 28  1  0  0  0  0
 21 30  1  0  0  0  0
 22 29  1  0  0  0  0
 23 28  1  0  0  0  0
 24 30  1  0  0  0  0
 25 29  1  0  0  0  0
 26 27  1  0  0  0  0
 31 36  1  0  0  0  0
 32 36  1  0  0  0  0
 33 35  1  0  0  0  0
 34 35  1  0  0  0  0
M  END
> <ID>
7869

> <Formula>
C24H40N8O4

> <FW>
504.6256

> <DSSTox_CID>
20668

> <DSSTox_RID>
79531

> <DSSTox_GSID>
40668

> <DSSTox_FileID_Sort>
4213

> <TS_ChemName>
Dipyridamole

> <TS_ChemName_Synonyms>


> <TS_CASRN>
58-32-2

> <CASRN_ChemName_Relationship>
primary

> <TS_Description>
single chemical compound

> <ChemNote>


> <STRUCTURE_Shown>
tested chemical

> <STRUCTURE_Formula>
C24H40N8O4

> <STRUCTURE_MW>
504.6256

> <STRUCTURE_ChemType>
defined organic

> <STRUCTURE_DefinedOrganicForm>
parent

> <STRUCTURE_IUPAC>
2,2',2'',2'''-{[4,8-di(piperidin-1-yl)pyrimido[5,4-d]pyrimidine-2,6-diyl]dinitrilo}tetraethanol

> <STRUCTURE_SMILES>
OCCN(CCO)c2nc1c(nc(nc1c(n2)N3CCCCC3)N(CCO)CCO)N4CCCCC4

> <STRUCTURE_SMILES_Desalt>
OCCN(CCO)c2nc1c(nc(nc1c(n2)N3CCCCC3)N(CCO)CCO)N4CCCCC4

> <Substance_modify_yyyymmdd>
20080429

$$$$
