58-33-3
ChemmineR-0915142007XD

 21 22  0  0  0  0  0  0  0  0  1 V2000
    4.6030   -3.9903    0.0000 N    0  0  0  0  0  0  0  0  0  0  0  0
    5.7558   -4.6594    0.0000 C    0  0  0  0  0  0  0  0  0  0  0  0
    6.9085   -3.9903    0.0000 C    0  0  0  0  0  0  0  0  0  0  0  0
    6.9085   -2.6602    0.0000 S    0  0  0  0  0  0  0  0  0  0  0  0
    5.7558   -1.9992    0.0000 C    0  0  0  0  0  0  0  0  0  0  0  0
    4.6030   -2.6602    0.0000 C    0  0  0  0  0  0  0  0  0  0  0  0
    3.4583   -1.9992    0.0000 C    0  0  0  0  0  0  0  0  0  0  0  0
    3.4583   -0.6691    0.0000 C    0  0  0  0  0  0  0  0  0  0  0  0
    4.6030    0.0000    0.0000 C    0  0  0  0  0  0  0  0  0  0  0  0
    5.7558   -0.6691    0.0000 C    0  0  0  0  0  0  0  0  0  0  0  0
    8.0613   -4.6594    0.0000 C    0  0  0  0  0  0  0  0  0  0  0  0
    8.0613   -5.9895    0.0000 C    0  0  0  0  0  0  0  0  0  0  0  0
    6.9085   -6.6506    0.0000 C    0  0  0  0  0  0  0  0  0  0  0  0
    5.7558   -5.9895    0.0000 C    0  0  0  0  0  0  0  0  0  0  0  0
    3.4583   -4.6594    0.0000 C    0  0  0  0  0  0  0  0  0  0  0  0
    2.3055   -3.9903    0.0000 C    0  0  0  0  0  0  0  0  0  0  0  0
    1.1528   -4.6594    0.0000 N    0  0  0  0  0  0  0  0  0  0  0  0
    0.0000   -3.9903    0.0000 C    0  0  0  0  0  0  0  0  0  0  0  0
    1.1528   -5.9895    0.0000 C    0  0  0  0  0  0  0  0  0  0  0  0
    2.3055   -2.6602    0.0000 C    0  0  0  0  0  0  0  0  0  0  0  0
    4.4095   -6.7150    0.0000 Cl   0  0  0  0  0  0  0  0  0  0  0  0
  1  2  1  0  0  0  0
  1  6  1  0  0  0  0
  1 15  1  0  0  0  0
  2  3  1  0  0  0  0
  2 14  2  0  0  0  0
  3  4  1  0  0  0  0
  3 11  2  0  0  0  0
  4  5  1  0  0  0  0
  5  6  2  0  0  0  0
  5 10  1  0  0  0  0
  6  7  1  0  0  0  0
  7  8  2  0  0  0  0
  8  9  1  0  0  0  0
  9 10  2  0  0  0  0
 11 12  1  0  0  0  0
 12 13  2  0  0  0  0
 13 14  1  0  0  0  0
 15 16  1  0  0  0  0
 16 17  1  0  0  0  0
 16 20  1  0  0  0  0
 17 18  1  0  0  0  0
 17 19  1  0  0  0  0
M  END
> <ID>
1146

> <Formula>
C17H21ClN2S

> <FW>
320.8800 (284.4191+36.4609)

> <DSSTox_CID>
1192

> <DSSTox_RID>
76002

> <DSSTox_GSID>
21192

> <DSSTox_FileID_Sort>
686

> <TS_ChemName>
Promethazine hydrochloride

> <TS_ChemName_Synonyms>


> <TS_CASRN>
58-33-3

> <CASRN_ChemName_Relationship>
primary

> <TS_Description>
single chemical compound

> <ChemNote>
parent [60-87-7]

> <STRUCTURE_Shown>
tested chemical

> <STRUCTURE_Formula>
C17H21ClN2S

> <STRUCTURE_MW>
320.88

> <STRUCTURE_ChemType>
defined organic

> <STRUCTURE_DefinedOrganicForm>
complex

> <STRUCTURE_IUPAC>
N,N-dimethyl-1-(10H-phenothiazin-10-yl)propan-2-amine hydrochloride (1:1)

> <STRUCTURE_SMILES>
Cl.CN(C)C(C)CN1c3ccccc3Sc2ccccc12

> <STRUCTURE_SMILES_Desalt>
CN(C)C(C)CN1c3ccccc3Sc2ccccc12

> <Substance_modify_yyyymmdd>
20080429

$$$$
