58-39-9
ChemmineR-0915142007XD

 27 30  0  0  0  0  0  0  0  0  1 V2000
    7.3153   -1.1587    0.0000 C    0  0  0  0  0  0  0  0  0  0  0  0
    7.9714    0.0000    0.0000 C    0  0  0  0  0  0  0  0  0  0  0  0
    9.3116    0.0000    0.0000 C    0  0  0  0  0  0  0  0  0  0  0  0
    9.9678   -1.1587    0.0000 C    0  0  0  0  0  0  0  0  0  0  0  0
    9.3116   -2.3035    0.0000 C    0  0  0  0  0  0  0  0  0  0  0  0
    7.9714   -2.3035    0.0000 C    0  0  0  0  0  0  0  0  0  0  0  0
    9.9678   -3.4622    0.0000 N    0  0  0  0  0  0  0  0  0  0  0  0
    9.3116   -4.6069    0.0000 C    0  0  0  0  0  0  0  0  0  0  0  0
    7.9714   -4.6069    0.0000 C    0  0  0  0  0  0  0  0  0  0  0  0
    7.3153   -5.7657    0.0000 C    0  0  0  0  0  0  0  0  0  0  0  0
    5.9890   -5.7657    0.0000 N    0  0  0  0  0  0  0  0  0  0  0  0
    5.3189   -6.9104    0.0000 C    0  0  0  0  0  0  0  0  0  0  0  0
    3.9927   -6.9104    0.0000 C    0  0  0  0  0  0  0  0  0  0  0  0
    3.3226   -5.7657    0.0000 N    0  0  0  0  0  0  0  0  0  0  0  0
    1.9963   -5.7657    0.0000 C    0  0  0  0  0  0  0  0  0  0  0  0
    1.3262   -6.9104    0.0000 C    0  0  0  0  0  0  0  0  0  0  0  0
    0.0000   -6.9104    0.0000 O    0  0  0  0  0  0  0  0  0  0  0  0
    3.9927   -4.6069    0.0000 C    0  0  0  0  0  0  0  0  0  0  0  0
    5.3189   -4.6069    0.0000 C    0  0  0  0  0  0  0  0  0  0  0  0
   11.3080   -3.4622    0.0000 C    0  0  0  0  0  0  0  0  0  0  0  0
   11.9641   -2.3035    0.0000 C    0  0  0  0  0  0  0  0  0  0  0  0
   11.3080   -1.1587    0.0000 S    0  0  0  0  0  0  0  0  0  0  0  0
   13.2903   -2.3035    0.0000 C    0  0  0  0  0  0  0  0  0  0  0  0
   13.9605   -3.4622    0.0000 C    0  0  0  0  0  0  0  0  0  0  0  0
   13.2903   -4.6069    0.0000 C    0  0  0  0  0  0  0  0  0  0  0  0
   13.9605   -5.7657    0.0000 Cl   0  0  0  0  0  0  0  0  0  0  0  0
   11.9641   -4.6069    0.0000 C    0  0  0  0  0  0  0  0  0  0  0  0
  1  2  2  0  0  0  0
  1  6  1  0  0  0  0
  2  3  1  0  0  0  0
  3  4  2  0  0  0  0
  4  5  1  0  0  0  0
  4 22  1  0  0  0  0
  5  6  2  0  0  0  0
  5  7  1  0  0  0  0
  7  8  1  0  0  0  0
  7 20  1  0  0  0  0
  8  9  1  0  0  0  0
  9 10  1  0  0  0  0
 10 11  1  0  0  0  0
 11 12  1  0  0  0  0
 11 19  1  0  0  0  0
 12 13  1  0  0  0  0
 13 14  1  0  0  0  0
 14 15  1  0  0  0  0
 14 18  1  0  0  0  0
 15 16  1  0  0  0  0
 16 17  1  0  0  0  0
 18 19  1  0  0  0  0
 20 21  2  0  0  0  0
 20 27  1  0  0  0  0
 21 22  1  0  0  0  0
 21 23  1  0  0  0  0
 23 24  2  0  0  0  0
 24 25  1  0  0  0  0
 25 26  1  0  0  0  0
 25 27  2  0  0  0  0
M  END
> <ID>
3087

> <Formula>
C21H26ClN3OS

> <FW>
403.9686

> <DSSTox_CID>
3441

> <DSSTox_RID>
77031

> <DSSTox_GSID>
23441

> <DSSTox_FileID_Sort>
1715

> <TS_ChemName>
Perphenazine

> <TS_ChemName_Synonyms>


> <TS_CASRN>
58-39-9

> <CASRN_ChemName_Relationship>
primary

> <TS_Description>
single chemical compound

> <ChemNote>


> <STRUCTURE_Shown>
tested chemical

> <STRUCTURE_Formula>
C21H26ClN3OS

> <STRUCTURE_MW>
403.9686

> <STRUCTURE_ChemType>
defined organic

> <STRUCTURE_DefinedOrganicForm>
parent

> <STRUCTURE_IUPAC>
2-{4-[3-(2-chloro-10H-phenothiazin-10-yl)propyl]piperazin-1-yl}ethanol

> <STRUCTURE_SMILES>
OCCN1CCN(CC1)CCCN2c4ccccc4Sc3ccc(Cl)cc23

> <STRUCTURE_SMILES_Desalt>
OCCN1CCN(CC1)CCCN2c4ccccc4Sc3ccc(Cl)cc23

> <Substance_modify_yyyymmdd>
20080429

$$$$
