58-46-8
ChemmineR-0915142007XD

 23 25  0  0  0  0  0  0  0  0  1 V2000
    6.9183   -3.9895    0.0000 N   0  0  0  0  0  0  0  0  0  0  0  0
    5.7768   -3.3208    0.0000 C   0  0  0  0  0  0  0  0  0  0  0  0
    4.6352   -3.9895    0.0000 C   0  0  0  0  0  0  0  0  0  0  0  0
    5.7768   -1.9948    0.0000 C   0  0  0  0  0  0  0  0  0  0  0  0
    6.9183   -1.3491    0.0000 C   0  0  0  0  0  0  0  0  0  0  0  0
    8.0598   -1.9948    0.0000 C   0  0  0  0  0  0  0  0  0  0  0  0
    4.6352   -5.3155    0.0000 C   0  0  0  0  0  0  0  0  0  0  0  0
    3.4822   -3.3208    0.0000 C   0  0  0  0  0  0  0  0  0  0  0  0
    8.0598   -3.3208    0.0000 C   0  0  0  0  0  0  0  0  0  0  0  0
    2.3522   -3.9895    0.0000 C   0  0  0  0  0  0  0  0  0  0  0  0
    3.4822   -5.9728    0.0000 C   0  0  0  0  0  0  0  0  0  0  0  0
    2.3522   -5.3155    0.0000 C   0  0  0  0  0  0  0  0  0  0  0  0
    6.9183   -5.3155    0.0000 C   0  0  0  0  0  0  0  0  0  0  0  0
    9.2128   -1.3491    0.0000 C   0  0  0  0  0  0  0  0  0  0  0  0
    5.7768   -5.9728    0.0000 C   0  0  0  0  0  0  0  0  0  0  0  0
    6.9183    0.0000    0.0000 O   0  0  0  0  0  0  0  0  0  0  0  0
    1.1761   -3.2977    0.0000 O   0  0  0  0  0  0  0  0  0  0  0  0
    1.1761   -6.0074    0.0000 O   0  0  0  0  0  0  0  0  0  0  0  0
   10.3544   -1.9948    0.0000 C   0  0  0  0  0  0  0  0  0  0  0  0
    0.0000   -5.3155    0.0000 C   0  0  0  0  0  0  0  0  0  0  0  0
    0.0000   -3.9665    0.0000 C   0  0  0  0  0  0  0  0  0  0  0  0
   10.3544   -3.3208    0.0000 C   0  0  0  0  0  0  0  0  0  0  0  0
   11.5305   -1.3145    0.0000 C   0  0  0  0  0  0  0  0  0  0  0  0
  1  2  1  0  0  0  0
  1  9  1  0  0  0  0
  1 13  1  0  0  0  0
  2  3  1  0  0  0  0
  2  4  1  0  0  0  0
  3  8  1  0  0  0  0
  3  7  2  0  0  0  0
  4  5  1  0  0  0  0
  5  6  1  0  0  0  0
  5 16  2  0  0  0  0
  6  9  1  0  0  0  0
  6 14  1  0  0  0  0
  7 15  1  0  0  0  0
  7 11  1  0  0  0  0
  8 10  2  0  0  0  0
 10 17  1  0  0  0  0
 10 12  1  0  0  0  0
 11 12  2  0  0  0  0
 12 18  1  0  0  0  0
 13 15  1  0  0  0  0
 14 19  1  0  0  0  0
 17 21  1  0  0  0  0
 18 20  1  0  0  0  0
 19 22  1  0  0  0  0
 19 23  1  0  0  0  0
M  END
> <ID>
9483

> <Formula>
C19H27NO3

> <FW>
317.4226

> <DSSTox_CID>
22614

> <DSSTox_RID>
80059

> <DSSTox_GSID>
42614

> <DSSTox_FileID_Sort>
4741

> <TS_ChemName>
Tetrabenazine

> <TS_ChemName_Synonyms>


> <TS_CASRN>
58-46-8

> <CASRN_ChemName_Relationship>
primary

> <TS_Description>
single chemical compound

> <ChemNote>


> <STRUCTURE_Shown>
tested chemical

> <STRUCTURE_Formula>
C19H27NO3

> <STRUCTURE_MW>
317.4226

> <STRUCTURE_ChemType>
defined organic

> <STRUCTURE_DefinedOrganicForm>
parent

> <STRUCTURE_IUPAC>
9,10-dimethoxy-3-(2-methylpropyl)-1,3,4,6,7,11b-hexahydro-2H-pyrido[2,1-a]isoquinolin-2-one

> <STRUCTURE_SMILES>
CC(C)CC2CN3CCc1cc(OC)c(OC)cc1C3CC2=O

> <STRUCTURE_SMILES_Desalt>
CC(C)CC2CN3CCc1cc(OC)c(OC)cc1C3CC2=O

> <Substance_modify_yyyymmdd>
20081003

$$$$
