58-58-2
ChemmineR-0915142007XD

 36 37  0  0  1  0  0  0  0  0  1 V2000
   13.3248   -5.3432    0.0000 Cl   0  0  0  0  0  0  0  0  0  0  0  0
   12.9650   -7.6884    0.0000 Cl   0  0  0  0  0  0  0  0  0  0  0  0
   10.1135   -4.4505    0.0000 N    0  0  0  0  0  0  0  0  0  0  0  0
   10.1135   -6.7956    0.0000 C    0  0  0  0  0  0  0  0  0  0  0  0
    8.8077   -2.6516    0.0000 C    0  0  0  0  0  0  0  0  0  0  0  0
    8.8077   -4.0108    0.0000 C    0  0  0  0  0  0  0  0  0  0  0  0
   10.1135   -2.2119    0.0000 N    0  0  0  0  0  0  0  0  0  0  0  0
    9.7271   -8.1015    0.0000 C    0  0  0  0  0  0  0  0  0  0  0  0
    8.3013   -8.1015    0.0000 C    0  0  0  0  0  0  0  0  0  0  0  0
   10.8997   -3.3179    0.0000 C    0  0  0  0  0  0  0  0  0  0  0  0
    9.0076   -6.0228    0.0000 O    0  0  0  0  0  0  0  0  0  0  0  0
    7.6351   -1.9721    0.0000 C    0  0  0  0  0  0  0  0  0  0  0  0
    7.4885   -9.2074    0.0000 N    0  0  0  0  0  0  0  0  0  0  0  0
    7.8883   -6.7956    0.0000 C    0  0  0  0  0  0  0  0  0  0  0  0
    7.4885  -10.5133    0.0000 C    0  0  0  0  0  0  0  0  0  0  0  0
    7.6351   -4.7036    0.0000 N    0  0  0  0  0  0  0  0  0  0  0  0
    6.4359   -2.6516    0.0000 N    0  0  0  0  0  0  0  0  0  0  0  0
    6.4359   -4.0108    0.0000 C    0  0  0  0  0  0  0  0  0  0  0  0
    7.6351   -0.6529    0.0000 N    0  0  0  0  0  0  0  0  0  0  0  0
    6.3959  -11.1395    0.0000 C    0  0  0  0  0  0  0  0  0  0  0  0
    8.5412  -11.1528    0.0000 O    0  0  0  0  0  0  0  0  0  0  0  0
    5.2899  -10.5133    0.0000 C    0  0  0  0  0  0  0  0  0  0  0  0
   10.4866   -9.2074    0.0000 O    0  0  0  0  0  0  0  0  0  0  0  0
    4.2906  -11.1395    0.0000 C    0  0  0  0  0  0  0  0  0  0  0  0
    6.3959  -12.2721    0.0000 N    0  0  0  0  0  0  0  0  0  0  0  0
    2.1853  -12.3254    0.0000 C    0  0  0  0  0  0  0  0  0  0  0  0
    6.5558   -6.4225    0.0000 C    0  0  0  0  0  0  0  0  0  0  0  0
    3.2246  -10.5133    0.0000 C    0  0  0  0  0  0  0  0  0  0  0  0
    4.2906  -12.3254    0.0000 C    0  0  0  0  0  0  0  0  0  0  0  0
    2.1853  -11.1395    0.0000 C    0  0  0  0  0  0  0  0  0  0  0  0
    3.2779  -12.9117    0.0000 C    0  0  0  0  0  0  0  0  0  0  0  0
    1.1060  -12.9117    0.0000 O    0  0  0  0  0  0  0  0  0  0  0  0
    5.5298   -7.0621    0.0000 O    0  0  0  0  0  0  0  0  0  0  0  0
    8.7544   -0.0133    0.0000 C    0  0  0  0  0  0  0  0  0  0  0  0
    6.5025    0.0000    0.0000 C    0  0  0  0  0  0  0  0  0  0  0  0
    0.0000  -12.3387    0.0000 C    0  0  0  0  0  0  0  0  0  0  0  0
  4  3  1  1  0  0  0
  3  6  1  0  0  0  0
  3 10  1  0  0  0  0
  4  8  1  0  0  0  0
  4 11  1  0  0  0  0
  5  6  2  0  0  0  0
  5 12  1  0  0  0  0
  5  7  1  0  0  0  0
  6 16  1  0  0  0  0
  7 10  2  0  0  0  0
  8  9  1  0  0  0  0
  8 23  1  6  0  0  0
  9 13  1  6  0  0  0
  9 14  1  0  0  0  0
 11 14  1  0  0  0  0
 12 19  1  0  0  0  0
 12 17  2  0  0  0  0
 13 15  1  0  0  0  0
 14 27  1  1  0  0  0
 15 20  1  0  0  0  0
 15 21  2  0  0  0  0
 16 18  2  0  0  0  0
 17 18  1  0  0  0  0
 19 34  1  0  0  0  0
 19 35  1  0  0  0  0
 20 22  1  0  0  0  0
 20 25  1  1  0  0  0
 22 24  1  0  0  0  0
 24 28  2  0  0  0  0
 24 29  1  0  0  0  0
 26 31  1  0  0  0  0
 26 32  1  0  0  0  0
 26 30  2  0  0  0  0
 27 33  1  0  0  0  0
 28 30  1  0  0  0  0
 29 31  2  0  0  0  0
 32 36  1  0  0  0  0
M  END
> <ID>
11249

> <Formula>
C22H31Cl2N7O5

> <FW>
544.4314 (36.4609+36.4609+471.5096)

> <DSSTox_CID>
25861

> <DSSTox_RID>
81181

> <DSSTox_GSID>
45861

> <DSSTox_FileID_Sort>
5862

> <TS_ChemName>
Puromycin dihydrochloride

> <TS_ChemName_Synonyms>


> <TS_CASRN>
58-58-2

> <CASRN_ChemName_Relationship>
primary

> <TS_Description>
single chemical compound

> <ChemNote>
stereochem; parent [53-79-2]

> <STRUCTURE_Shown>
tested chemical

> <STRUCTURE_Formula>
C22H31Cl2N7O5

> <STRUCTURE_MW>
544.4314

> <STRUCTURE_ChemType>
defined organic

> <STRUCTURE_DefinedOrganicForm>
complex

> <STRUCTURE_IUPAC>
3'-deoxy-N,N-dimethyl-3'-[(O-methyl-L-tyrosyl)amino]adenosine dihydrochloride

> <STRUCTURE_SMILES>
Cl.Cl.COc1ccc(cc1)C[C@H](N)C(=O)N[C@@H]4[C@@H](CO)O[C@@H](n3cnc2c3ncnc2N(C)C)[C@@H]4O

> <STRUCTURE_SMILES_Desalt>
COc1ccc(cc1)C[C@H](N)C(=O)N[C@@H]4[C@@H](CO)O[C@@H](n3cnc2c3ncnc2N(C)C)[C@@H]4O

> <Substance_modify_yyyymmdd>
20110922

$$$$
