58-56-0
ChemmineR-0915142007XD

 13 12  0  0  0  0  0  0  0  0  1 V2000
    3.3134   -4.6099    0.0000 N    0  0  0  0  0  0  0  0  0  0  0  0
    1.9823   -4.6099    0.0000 C    0  0  0  0  0  0  0  0  0  0  0  0
    3.9876   -3.4574    0.0000 C    0  0  0  0  0  0  0  0  0  0  0  0
    3.3134   -2.3049    0.0000 C    0  0  0  0  0  0  0  0  0  0  0  0
    1.3311   -3.4574    0.0000 C    0  0  0  0  0  0  0  0  0  0  0  0
    1.9823   -2.3049    0.0000 C    0  0  0  0  0  0  0  0  0  0  0  0
    3.9876   -1.1525    0.0000 C    0  0  0  0  0  0  0  0  0  0  0  0
    3.3134    0.0000    0.0000 O    0  0  0  0  0  0  0  0  0  0  0  0
    1.3311   -1.1525    0.0000 C    0  0  0  0  0  0  0  0  0  0  0  0
    0.0000   -1.1525    0.0000 O    0  0  0  0  0  0  0  0  0  0  0  0
    0.0000   -3.4574    0.0000 O    0  0  0  0  0  0  0  0  0  0  0  0
    1.3311   -5.7624    0.0000 C    0  0  0  0  0  0  0  0  0  0  0  0
    5.5837   -3.5842    0.0000 Cl   0  0  0  0  0  0  0  0  0  0  0  0
  1  2  2  0  0  0  0
  1  3  1  0  0  0  0
  2  5  1  0  0  0  0
  2 12  1  0  0  0  0
  3  4  2  0  0  0  0
  4  6  1  0  0  0  0
  4  7  1  0  0  0  0
  5  6  2  0  0  0  0
  5 11  1  0  0  0  0
  6  9  1  0  0  0  0
  7  8  1  0  0  0  0
  9 10  1  0  0  0  0
M  END
> <ID>
6291

> <Formula>
C8H12ClNO3

> <FW>
205.6388 (169.1778+36.4609)

> <DSSTox_CID>
10780

> <DSSTox_RID>
79601

> <DSSTox_GSID>
40792

> <DSSTox_FileID_Sort>
4283

> <TS_ChemName>
Pyridoxine hydrochloride

> <TS_ChemName_Synonyms>


> <TS_CASRN>
58-56-0

> <CASRN_ChemName_Relationship>
primary

> <TS_Description>
single chemical compound

> <ChemNote>
parent [65-23-6]

> <STRUCTURE_Shown>
tested chemical

> <STRUCTURE_Formula>
C8H12ClNO3

> <STRUCTURE_MW>
205.6388

> <STRUCTURE_ChemType>
defined organic

> <STRUCTURE_DefinedOrganicForm>
complex

> <STRUCTURE_IUPAC>
4,5-bis(hydroxymethyl)-2-methylpyridin-3-ol hydrochloride (1:1)

> <STRUCTURE_SMILES>
Cl.Oc1c(CO)c(cnc1C)CO

> <STRUCTURE_SMILES_Desalt>
Oc1c(CO)c(cnc1C)CO

> <Substance_modify_yyyymmdd>
20080429

$$$$
