58-54-8
ChemmineR-0915142007XD

 19 19  0  0  0  0  0  0  0  0  1 V2000
    2.3015   -1.3270    0.0000 C    0  0  0  0  0  0  0  0  0  0  0  0
    2.3015    0.0000    0.0000 O    0  0  0  0  0  0  0  0  0  0  0  0
    1.1507   -1.9905    0.0000 C    0  0  0  0  0  0  0  0  0  0  0  0
    0.0000   -1.3270    0.0000 C    0  0  0  0  0  0  0  0  0  0  0  0
    1.1507   -3.3278    0.0000 C    0  0  0  0  0  0  0  0  0  0  0  0
    0.0000   -3.9913    0.0000 C    0  0  0  0  0  0  0  0  0  0  0  0
    3.4522   -1.9905    0.0000 C    0  0  0  0  0  0  0  0  0  0  0  0
    4.6029   -1.3270    0.0000 C    0  0  0  0  0  0  0  0  0  0  0  0
    5.7537   -1.9905    0.0000 C    0  0  0  0  0  0  0  0  0  0  0  0
    5.7537   -3.3278    0.0000 C    0  0  0  0  0  0  0  0  0  0  0  0
    6.9148   -3.9913    0.0000 O    0  0  0  0  0  0  0  0  0  0  0  0
    8.0655   -3.3278    0.0000 C    0  0  0  0  0  0  0  0  0  0  0  0
    9.2163   -3.9913    0.0000 C    0  0  0  0  0  0  0  0  0  0  0  0
    9.2163   -5.3183    0.0000 O    0  0  0  0  0  0  0  0  0  0  0  0
   10.3670   -3.3278    0.0000 O    0  0  0  0  0  0  0  0  0  0  0  0
    4.6029   -3.9913    0.0000 C    0  0  0  0  0  0  0  0  0  0  0  0
    4.6029   -5.3183    0.0000 Cl   0  0  0  0  0  0  0  0  0  0  0  0
    3.4522   -3.3278    0.0000 C    0  0  0  0  0  0  0  0  0  0  0  0
    2.3015   -3.9913    0.0000 Cl   0  0  0  0  0  0  0  0  0  0  0  0
  1  2  2  0  0  0  0
  1  3  1  0  0  0  0
  1  7  1  0  0  0  0
  3  4  2  0  0  0  0
  3  5  1  0  0  0  0
  5  6  1  0  0  0  0
  7  8  2  0  0  0  0
  7 18  1  0  0  0  0
  8  9  1  0  0  0  0
  9 10  2  0  0  0  0
 10 11  1  0  0  0  0
 10 16  1  0  0  0  0
 11 12  1  0  0  0  0
 12 13  1  0  0  0  0
 13 14  2  0  0  0  0
 13 15  1  0  0  0  0
 16 17  1  0  0  0  0
 16 18  2  0  0  0  0
 18 19  1  0  0  0  0
M  END
> <ID>
4108

> <Formula>
C13H12Cl2O4

> <FW>
303.138

> <DSSTox_CID>
5257

> <DSSTox_RID>
77718

> <DSSTox_GSID>
25257

> <DSSTox_FileID_Sort>
2401

> <TS_ChemName>
Ethacrynic acid

> <TS_ChemName_Synonyms>


> <TS_CASRN>
58-54-8

> <CASRN_ChemName_Relationship>
primary

> <TS_Description>
single chemical compound

> <ChemNote>


> <STRUCTURE_Shown>
tested chemical

> <STRUCTURE_Formula>
C13H12Cl2O4

> <STRUCTURE_MW>
303.138

> <STRUCTURE_ChemType>
defined organic

> <STRUCTURE_DefinedOrganicForm>
parent

> <STRUCTURE_IUPAC>
[2,3-dichloro-4-(2-methylidenebutanoyl)phenoxy]acetic acid

> <STRUCTURE_SMILES>
Clc1c(ccc(OCC(=O)O)c1Cl)C(=O)C(=C)CC

> <STRUCTURE_SMILES_Desalt>
Clc1c(ccc(OCC(=O)O)c1Cl)C(=O)C(=C)CC

> <Substance_modify_yyyymmdd>
20080429

$$$$
