58-63-9
ChemmineR-0915142007XD

 19 21  0  0  1  0  0  0  0  0  1 V2000
    4.3085   -3.7088    0.0000 N   0  0  0  0  0  0  0  0  0  0  0  0
    5.5789   -3.3300    0.0000 C   0  0  0  0  0  0  0  0  0  0  0  0
    5.5789   -1.9806    0.0000 C   0  0  0  0  0  0  0  0  0  0  0  0
    4.3085   -1.5861    0.0000 N   0  0  0  0  0  0  0  0  0  0  0  0
    3.5667   -2.6435    0.0000 C   0  0  0  0  0  0  0  0  0  0  0  0
    6.6994   -3.9613    0.0000 N   0  0  0  0  0  0  0  0  0  0  0  0
    6.6994   -1.3178    0.0000 C   0  0  0  0  0  0  0  0  0  0  0  0
    7.8910   -1.9806    0.0000 N   0  0  0  0  0  0  0  0  0  0  0  0
    7.8910   -3.3300    0.0000 C   0  0  0  0  0  0  0  0  0  0  0  0
    6.6994    0.0000    0.0000 O   0  0  0  0  0  0  0  0  0  0  0  0
    2.2174   -5.3264    0.0000 C   0  0  0  0  0  0  0  0  0  0  0  0
    3.2353   -4.5452    0.0000 O   0  0  0  0  0  0  0  0  0  0  0  0
    2.6277   -6.5732    0.0000 C   0  0  0  0  0  0  0  0  0  0  0  0
    4.3085   -5.3106    0.0000 C   0  0  0  0  0  0  0  0  0  0  0  0
    3.9297   -6.5732    0.0000 C   0  0  0  0  0  0  0  0  0  0  0  0
    4.7030   -7.6069    0.0000 O   0  0  0  0  0  0  0  0  0  0  0  0
    1.8544   -7.6385    0.0000 O   0  0  0  0  0  0  0  0  0  0  0  0
    0.9311   -4.9476    0.0000 C   0  0  0  0  0  0  0  0  0  0  0  0
    0.0000   -5.8314    0.0000 O   0  0  0  0  0  0  0  0  0  0  0  0
  1  2  1  0  0  0  0
  1  5  1  0  0  0  0
 14  1  1  1  0  0  0
  2  3  2  0  0  0  0
  2  6  1  0  0  0  0
  3  7  1  0  0  0  0
  3  4  1  0  0  0  0
  4  5  2  0  0  0  0
  6  9  2  0  0  0  0
  7 10  1  0  0  0  0
  7  8  2  0  0  0  0
  8  9  1  0  0  0  0
 11 12  1  0  0  0  0
 11 13  1  0  0  0  0
 11 18  1  1  0  0  0
 12 14  1  0  0  0  0
 13 15  1  0  0  0  0
 13 17  1  6  0  0  0
 14 15  1  0  0  0  0
 15 16  1  6  0  0  0
 18 19  1  0  0  0  0
M  END
> <ID>
11346

> <Formula>
C10H12N4O5

> <FW>
268.2261

> <DSSTox_CID>
25993

> <DSSTox_RID>
81278

> <DSSTox_GSID>
45993

> <DSSTox_FileID_Sort>
5959

> <TS_ChemName>
Inosine

> <TS_ChemName_Synonyms>


> <TS_CASRN>
58-63-9

> <CASRN_ChemName_Relationship>
primary

> <TS_Description>
single chemical compound

> <ChemNote>
stereochem; tautomers

> <STRUCTURE_Shown>
tested chemical

> <STRUCTURE_Formula>
C10H12N4O5

> <STRUCTURE_MW>
268.2261

> <STRUCTURE_ChemType>
defined organic

> <STRUCTURE_DefinedOrganicForm>
parent

> <STRUCTURE_IUPAC>
9-(beta-D-ribofuranosyl)-9H-purin-6-ol

> <STRUCTURE_SMILES>
Oc3ncnc2c3ncn2[C@@H]1O[C@H](CO)[C@@H](O)[C@H]1O

> <STRUCTURE_SMILES_Desalt>
Oc3ncnc2c3ncn2[C@@H]1O[C@H](CO)[C@@H](O)[C@H]1O

> <Substance_modify_yyyymmdd>
20110824

$$$$
