58-61-7
ChemmineR-0915142007XD

 19 21  0  0  1  0  0  0  0  0  1 V2000
    4.4037   -3.5691    0.0000 N   0  0  0  0  0  0  0  0  0  0  0  0
    3.2273   -3.1875    0.0000 C   0  0  0  0  0  0  0  0  0  0  0  0
    3.2273   -1.9077    0.0000 C   0  0  0  0  0  0  0  0  0  0  0  0
    4.4037   -1.5182    0.0000 N   0  0  0  0  0  0  0  0  0  0  0  0
    5.1509   -2.5516    0.0000 C   0  0  0  0  0  0  0  0  0  0  0  0
    2.0906   -1.2559    0.0000 C   0  0  0  0  0  0  0  0  0  0  0  0
    2.0906   -3.8314    0.0000 N   0  0  0  0  0  0  0  0  0  0  0  0
    1.0175   -1.9077    0.0000 N   0  0  0  0  0  0  0  0  0  0  0  0
    1.0175   -3.1875    0.0000 C   0  0  0  0  0  0  0  0  0  0  0  0
    2.0906    0.0000    0.0000 N   0  0  0  0  0  0  0  0  0  0  0  0
    4.4037   -5.6199    0.0000 C   0  0  0  0  0  0  0  0  0  0  0  0
    2.2495   -5.6199    0.0000 C   0  0  0  0  0  0  0  0  0  0  0  0
    3.3465   -4.8488    0.0000 O   0  0  0  0  0  0  0  0  0  0  0  0
    2.6788   -6.8917    0.0000 C   0  0  0  0  0  0  0  0  0  0  0  0
    3.9983   -6.8917    0.0000 C   0  0  0  0  0  0  0  0  0  0  0  0
    1.8839   -7.9489    0.0000 O   0  0  0  0  0  0  0  0  0  0  0  0
    4.7614   -7.9489    0.0000 O   0  0  0  0  0  0  0  0  0  0  0  0
    0.9936   -5.2145    0.0000 C   0  0  0  0  0  0  0  0  0  0  0  0
    0.0000   -6.1048    0.0000 O   0  0  0  0  0  0  0  0  0  0  0  0
  1  2  1  0  0  0  0
  1  5  1  0  0  0  0
 11  1  1  1  0  0  0
  2  3  2  0  0  0  0
  2  7  1  0  0  0  0
  3  6  1  0  0  0  0
  3  4  1  0  0  0  0
  4  5  2  0  0  0  0
  6 10  1  0  0  0  0
  6  8  2  0  0  0  0
  7  9  2  0  0  0  0
  8  9  1  0  0  0  0
 11 13  1  0  0  0  0
 11 15  1  0  0  0  0
 12 13  1  0  0  0  0
 12 14  1  0  0  0  0
 12 18  1  1  0  0  0
 14 15  1  0  0  0  0
 14 16  1  6  0  0  0
 15 17  1  6  0  0  0
 18 19  1  0  0  0  0
M  END
> <ID>
2320

> <Formula>
C10H13N5O4

> <FW>
267.2413

> <DSSTox_CID>
2558

> <DSSTox_RID>
76628

> <DSSTox_GSID>
22558

> <DSSTox_FileID_Sort>
1312

> <TS_ChemName>
Adenosine

> <TS_ChemName_Synonyms>


> <TS_CASRN>
58-61-7

> <CASRN_ChemName_Relationship>
primary

> <TS_Description>
single chemical compound

> <ChemNote>
stereochem

> <STRUCTURE_Shown>
tested chemical

> <STRUCTURE_Formula>
C10H13N5O4

> <STRUCTURE_MW>
267.2413

> <STRUCTURE_ChemType>
defined organic

> <STRUCTURE_DefinedOrganicForm>
parent

> <STRUCTURE_IUPAC>
adenosine

> <STRUCTURE_SMILES>
Nc3ncnc2c3ncn2[C@@H]1O[C@H](CO)[C@@H](O)[C@H]1O

> <STRUCTURE_SMILES_Desalt>
Nc3ncnc2c3ncn2[C@@H]1O[C@H](CO)[C@@H](O)[C@H]1O

> <Substance_modify_yyyymmdd>
20080429

$$$$
