58-72-0
ChemmineR-0915142007XD

 20 22  0  0  0  0  0  0  0  0  1 V2000
    3.9945   -3.4585    0.0000 C   0  0  0  0  0  0  0  0  0  0  0  0
    4.6517   -4.6084    0.0000 C   0  0  0  0  0  0  0  0  0  0  0  0
    5.9832   -4.6084    0.0000 C   0  0  0  0  0  0  0  0  0  0  0  0
    6.6489   -3.4585    0.0000 C   0  0  0  0  0  0  0  0  0  0  0  0
    7.9804   -3.4585    0.0000 C   0  0  0  0  0  0  0  0  0  0  0  0
    8.6462   -4.6084    0.0000 C   0  0  0  0  0  0  0  0  0  0  0  0
    7.9804   -5.7584    0.0000 C   0  0  0  0  0  0  0  0  0  0  0  0
    6.6489   -5.7584    0.0000 C   0  0  0  0  0  0  0  0  0  0  0  0
    2.6630   -3.4585    0.0000 C   0  0  0  0  0  0  0  0  0  0  0  0
    1.9973   -4.6084    0.0000 C   0  0  0  0  0  0  0  0  0  0  0  0
    0.6658   -4.6084    0.0000 C   0  0  0  0  0  0  0  0  0  0  0  0
    0.0000   -3.4585    0.0000 C   0  0  0  0  0  0  0  0  0  0  0  0
    0.6658   -2.2999    0.0000 C   0  0  0  0  0  0  0  0  0  0  0  0
    1.9973   -2.2999    0.0000 C   0  0  0  0  0  0  0  0  0  0  0  0
    4.6517   -2.2999    0.0000 C   0  0  0  0  0  0  0  0  0  0  0  0
    3.9945   -1.1499    0.0000 C   0  0  0  0  0  0  0  0  0  0  0  0
    4.6517    0.0000    0.0000 C   0  0  0  0  0  0  0  0  0  0  0  0
    5.9832    0.0000    0.0000 C   0  0  0  0  0  0  0  0  0  0  0  0
    6.6489   -1.1499    0.0000 C   0  0  0  0  0  0  0  0  0  0  0  0
    5.9832   -2.2999    0.0000 C   0  0  0  0  0  0  0  0  0  0  0  0
  1  2  2  0  0  0  0
  1  9  1  0  0  0  0
  1 15  1  0  0  0  0
  2  3  1  0  0  0  0
  3  4  2  0  0  0  0
  3  8  1  0  0  0  0
  4  5  1  0  0  0  0
  5  6  2  0  0  0  0
  6  7  1  0  0  0  0
  7  8  2  0  0  0  0
  9 10  2  0  0  0  0
  9 14  1  0  0  0  0
 10 11  1  0  0  0  0
 11 12  2  0  0  0  0
 12 13  1  0  0  0  0
 13 14  2  0  0  0  0
 15 16  2  0  0  0  0
 15 20  1  0  0  0  0
 16 17  1  0  0  0  0
 17 18  2  0  0  0  0
 18 19  1  0  0  0  0
 19 20  2  0  0  0  0
M  END
> <ID>
2152

> <Formula>
C20H16

> <FW>
256.341

> <DSSTox_CID>
2320

> <DSSTox_RID>
76547

> <DSSTox_GSID>
22320

> <DSSTox_FileID_Sort>
1231

> <TS_ChemName>
Triphenylethylene

> <TS_ChemName_Synonyms>


> <TS_CASRN>
58-72-0

> <CASRN_ChemName_Relationship>
primary

> <TS_Description>
single chemical compound

> <ChemNote>


> <STRUCTURE_Shown>
tested chemical

> <STRUCTURE_Formula>
C20H16

> <STRUCTURE_MW>
256.341

> <STRUCTURE_ChemType>
defined organic

> <STRUCTURE_DefinedOrganicForm>
parent

> <STRUCTURE_IUPAC>
1,1',1''-ethene-1,1,2-triyltribenzene

> <STRUCTURE_SMILES>
C(/c1ccccc1)=C(/c2ccccc2)c3ccccc3

> <STRUCTURE_SMILES_Desalt>
C(/c1ccccc1)=C(/c2ccccc2)c3ccccc3

> <Substance_modify_yyyymmdd>
20080429

$$$$
