58-94-6
ChemmineR-0915142007XD

 17 18  0  0  0  0  0  0  0  0  1 V2000
    5.7383   -1.1849    0.0000 S    0  0  0  0  0  0  0  0  0  0  0  0
    1.1504   -1.1573    0.0000 S    0  0  0  0  0  0  0  0  0  0  0  0
    4.5948   -1.8600    0.0000 C    0  0  0  0  0  0  0  0  0  0  0  0
    2.3077   -1.8462    0.0000 C    0  0  0  0  0  0  0  0  0  0  0  0
    6.8888   -1.8462    0.0000 N    0  0  0  0  0  0  0  0  0  0  0  0
    3.4444   -1.1849    0.0000 C    0  0  0  0  0  0  0  0  0  0  0  0
    4.5948   -3.1757    0.0000 C    0  0  0  0  0  0  0  0  0  0  0  0
    2.3077   -3.1895    0.0000 C    0  0  0  0  0  0  0  0  0  0  0  0
    5.7383   -3.8439    0.0000 N    0  0  0  0  0  0  0  0  0  0  0  0
    3.4444   -3.8439    0.0000 C    0  0  0  0  0  0  0  0  0  0  0  0
    6.8888   -3.1895    0.0000 C    0  0  0  0  0  0  0  0  0  0  0  0
    5.1115   -0.0482    0.0000 O    0  0  0  0  0  0  0  0  0  0  0  0
    6.3928   -0.0344    0.0000 O    0  0  0  0  0  0  0  0  0  0  0  0
    1.8393    0.0000    0.0000 O    0  0  0  0  0  0  0  0  0  0  0  0
    0.4615   -2.3077    0.0000 O    0  0  0  0  0  0  0  0  0  0  0  0
    0.0000   -0.4684    0.0000 N    0  0  0  0  0  0  0  0  0  0  0  0
    1.1504   -3.8784    0.0000 Cl   0  0  0  0  0  0  0  0  0  0  0  0
  1  3  1  0  0  0  0
  1  5  1  0  0  0  0
  1 12  2  0  0  0  0
  1 13  2  0  0  0  0
  2  4  1  0  0  0  0
  2 14  2  0  0  0  0
  2 15  2  0  0  0  0
  2 16  1  0  0  0  0
  3  6  1  0  0  0  0
  3  7  2  0  0  0  0
  4  6  2  0  0  0  0
  4  8  1  0  0  0  0
  5 11  1  0  0  0  0
  7 10  1  0  0  0  0
  7  9  1  0  0  0  0
  8 10  2  0  0  0  0
  8 17  1  0  0  0  0
  9 11  2  0  0  0  0
M  END
> <ID>
2533

> <Formula>
C7H6ClN3O4S2

> <FW>
295.7232

> <DSSTox_CID>
2800

> <DSSTox_RID>
76733

> <DSSTox_GSID>
22800

> <DSSTox_FileID_Sort>
1417

> <TS_ChemName>
Chlorothiazide

> <TS_ChemName_Synonyms>


> <TS_CASRN>
58-94-6

> <CASRN_ChemName_Relationship>
primary

> <TS_Description>
single chemical compound

> <ChemNote>


> <STRUCTURE_Shown>
tested chemical

> <STRUCTURE_Formula>
C7H6ClN3O4S2

> <STRUCTURE_MW>
295.7232

> <STRUCTURE_ChemType>
defined organic

> <STRUCTURE_DefinedOrganicForm>
parent

> <STRUCTURE_IUPAC>
6-chloro-2H-1,2,4-benzothiadiazine-7-sulfonamide 1,1-dioxide

> <STRUCTURE_SMILES>
NS(=O)(=O)c2cc1c(N=CNS1(=O)=O)cc2Cl

> <STRUCTURE_SMILES_Desalt>
NS(=O)(=O)c2cc1c(N=CNS1(=O)=O)cc2Cl

> <Substance_modify_yyyymmdd>
20080429

$$$$
