58045-23-1
ChemmineR-0915142007XD

 29 30  0  0  0  0  0  0  0  0  1 V2000
    0.0000  -10.4961    0.0000 O    0  0  0  0  0  0  0  0  0  0  0  0
    1.1546   -9.8349    0.0000 C    0  0  0  0  0  0  0  0  0  0  0  0
    1.1651   -8.5124    0.0000 C    0  0  0  0  0  0  0  0  0  0  0  0
    2.3196   -7.8511    0.0000 N    0  0  0  0  0  0  0  0  0  0  0  0
    3.4742   -8.5124    0.0000 C    0  0  0  0  0  0  0  0  0  0  0  0
    4.6288   -7.8511    0.0000 C    0  0  0  0  0  0  0  0  0  0  0  0
    4.6393   -6.5286    0.0000 N    0  0  0  0  0  0  0  0  0  0  0  0
    5.7939   -5.8568    0.0000 C    0  0  0  0  0  0  0  0  0  0  0  0
    5.7939   -4.5238    0.0000 C    0  0  0  0  0  0  0  0  0  0  0  0
    6.8960   -4.0200    0.0000 C    0  0  0  0  0  0  0  0  0  0  0  0
    6.8960   -2.7080    0.0000 C    0  0  0  0  0  0  0  0  0  0  0  0
    8.0295   -2.0153    0.0000 C    0  0  0  0  0  0  0  0  0  0  0  0
    8.0295   -0.7032    0.0000 C    0  0  0  0  0  0  0  0  0  0  0  0
    6.8750   -0.0315    0.0000 S    0  0  0  0  0  0  0  0  0  0  0  0
    5.7309   -0.7032    0.0000 C    0  0  0  0  0  0  0  0  0  0  0  0
    5.7309   -2.0153    0.0000 C    0  0  0  0  0  0  0  0  0  0  0  0
    4.5973   -2.7080    0.0000 C    0  0  0  0  0  0  0  0  0  0  0  0
    3.4427   -2.0153    0.0000 C    0  0  0  0  0  0  0  0  0  0  0  0
    2.2672   -2.7080    0.0000 Cl   0  0  0  0  0  0  0  0  0  0  0  0
    3.4217   -0.7032    0.0000 C    0  0  0  0  0  0  0  0  0  0  0  0
    4.5763   -0.0315    0.0000 C    0  0  0  0  0  0  0  0  0  0  0  0
    9.2051    0.0000    0.0000 C    0  0  0  0  0  0  0  0  0  0  0  0
   10.3492   -0.6718    0.0000 C    0  0  0  0  0  0  0  0  0  0  0  0
   10.3387   -2.0153    0.0000 C    0  0  0  0  0  0  0  0  0  0  0  0
    9.2051   -2.6870    0.0000 C    0  0  0  0  0  0  0  0  0  0  0  0
    3.4742   -5.8359    0.0000 C    0  0  0  0  0  0  0  0  0  0  0  0
    2.3196   -6.5076    0.0000 C    0  0  0  0  0  0  0  0  0  0  0  0
    9.3626   -3.5792    0.0000 Cl   0  0  0  0  0  0  0  0  0  0  0  0
    3.6946   -3.6946    0.0000 Cl   0  0  0  0  0  0  0  0  0  0  0  0
  1  2  1  0  0  0  0
  2  3  1  0  0  0  0
  3  4  1  0  0  0  0
  4  5  1  0  0  0  0
  4 27  1  0  0  0  0
  5  6  1  0  0  0  0
  6  7  1  0  0  0  0
  7  8  1  0  0  0  0
  7 26  1  0  0  0  0
  8  9  1  0  0  0  0
  9 10  1  0  0  0  0
 10 11  2  0  0  0  0
 11 12  1  0  0  0  0
 11 16  1  0  0  0  0
 12 13  2  0  0  0  0
 12 25  1  0  0  0  0
 13 14  1  0  0  0  0
 13 22  1  0  0  0  0
 14 15  1  0  0  0  0
 15 16  2  0  0  0  0
 15 21  1  0  0  0  0
 16 17  1  0  0  0  0
 17 18  2  0  0  0  0
 18 19  1  0  0  0  0
 18 20  1  0  0  0  0
 20 21  2  0  0  0  0
 22 23  2  0  0  0  0
 23 24  1  0  0  0  0
 24 25  2  0  0  0  0
 26 27  1  0  0  0  0
M  END
> <ID>
10878

> <Formula>
C22H27Cl3N2OS

> <FW>
473.8866 (400.9647+36.4609+36.4609)

> <DSSTox_CID>
25332

> <DSSTox_RID>
80808

> <DSSTox_GSID>
45332

> <DSSTox_FileID_Sort>
5489

> <TS_ChemName>
Zuclopenthixol dihydrochloride

> <TS_ChemName_Synonyms>


> <TS_CASRN>
58045-23-1

> <CASRN_ChemName_Relationship>
primary

> <TS_Description>
single chemical compound

> <ChemNote>
stereochem; parent [53772-83-1]

> <STRUCTURE_Shown>
tested chemical

> <STRUCTURE_Formula>
C22H27Cl3N2OS

> <STRUCTURE_MW>
473.8866

> <STRUCTURE_ChemType>
defined organic

> <STRUCTURE_DefinedOrganicForm>
complex

> <STRUCTURE_IUPAC>
2-{4-[(3Z)-3-(2-chloro-9H-thioxanthen-9-ylidene)propyl]piperazin-1-yl}ethanol dihydrochloride

> <STRUCTURE_SMILES>
Cl.Cl.OCCN1CCN(CC1)CC\C=C2\c4ccccc4Sc3ccc(Cl)cc23

> <STRUCTURE_SMILES_Desalt>
OCCN1CCN(CC1)CC\C=C2\c4ccccc4Sc3ccc(Cl)cc23

> <Substance_modify_yyyymmdd>
20110805

$$$$
