58066-85-6
ChemmineR-0915142007XD

 27 26  0  0  0  0  0  0  0  0  2 V2000
    0.0000   -1.9998    0.0000 C   0  0  0  0  0  0  0  0  0  0  0  0
    1.1499   -1.3499    0.0000 C   0  0  0  0  0  0  0  0  0  0  0  0
    2.3247   -1.9998    0.0000 C   0  0  0  0  0  0  0  0  0  0  0  0
    3.4746   -1.3499    0.0000 C   0  0  0  0  0  0  0  0  0  0  0  0
    4.6245   -1.9998    0.0000 C   0  0  0  0  0  0  0  0  0  0  0  0
    5.7744   -1.3499    0.0000 C   0  0  0  0  0  0  0  0  0  0  0  0
    6.9492   -1.9998    0.0000 C   0  0  0  0  0  0  0  0  0  0  0  0
    8.0991   -1.3499    0.0000 C   0  0  0  0  0  0  0  0  0  0  0  0
    9.2490   -1.9998    0.0000 C   0  0  0  0  0  0  0  0  0  0  0  0
   10.3988   -1.3499    0.0000 C   0  0  0  0  0  0  0  0  0  0  0  0
   11.5737   -1.9998    0.0000 C   0  0  0  0  0  0  0  0  0  0  0  0
   12.7236   -1.3499    0.0000 C   0  0  0  0  0  0  0  0  0  0  0  0
   13.8735   -1.9998    0.0000 C   0  0  0  0  0  0  0  0  0  0  0  0
   15.0233   -1.3499    0.0000 C   0  0  0  0  0  0  0  0  0  0  0  0
   16.1982   -1.9998    0.0000 C   0  0  0  0  0  0  0  0  0  0  0  0
   17.3481   -1.3499    0.0000 C   0  0  0  0  0  0  0  0  0  0  0  0
   18.4980   -1.9998    0.0000 O   0  0  0  0  0  0  0  0  0  0  0  0
   19.6478   -1.3499    0.0000 P   0  0  0  0  0  0  0  0  0  0  0  0
   18.9979   -0.1750    0.0000 O   0  5  0  0  0  0  0  0  0  0  0  0
   20.8227   -0.6749    0.0000 O   0  0  0  0  0  0  0  0  0  0  0  0
   20.3228   -2.4997    0.0000 O   0  0  0  0  0  0  0  0  0  0  0  0
   21.6476   -2.4997    0.0000 C   0  0  0  0  0  0  0  0  0  0  0  0
   22.3225   -1.3499    0.0000 C   0  0  0  0  0  0  0  0  0  0  0  0
   23.6724   -1.3499    0.0000 N   0  3  0  0  0  0  0  0  0  0  0  0
   23.6724    0.0000    0.0000 C   0  0  0  0  0  0  0  0  0  0  0  0
   24.9972   -1.3499    0.0000 C   0  0  0  0  0  0  0  0  0  0  0  0
   23.6724   -2.6747    0.0000 C   0  0  0  0  0  0  0  0  0  0  0  0
  1  2  1  0  0  0  0
  2  3  1  0  0  0  0
  3  4  1  0  0  0  0
  4  5  1  0  0  0  0
  5  6  1  0  0  0  0
  6  7  1  0  0  0  0
  7  8  1  0  0  0  0
  8  9  1  0  0  0  0
  9 10  1  0  0  0  0
 10 11  1  0  0  0  0
 11 12  1  0  0  0  0
 12 13  1  0  0  0  0
 13 14  1  0  0  0  0
 14 15  1  0  0  0  0
 15 16  1  0  0  0  0
 16 17  1  0  0  0  0
 17 18  1  0  0  0  0
 18 19  1  0  0  0  0
 18 20  2  0  0  0  0
 18 21  1  0  0  0  0
 21 22  1  0  0  0  0
 22 23  1  0  0  0  0
 23 24  1  0  0  0  0
 24 25  1  0  0  0  0
 24 26  1  0  0  0  0
 24 27  1  0  0  0  0
M  END
> <ID>
11308

> <Formula>
C21H46NO4P

> <FW>
407.568

> <DSSTox_CID>
25942

> <DSSTox_RID>
81240

> <DSSTox_GSID>
45942

> <DSSTox_FileID_Sort>
5921

> <TS_ChemName>
Miltefosine

> <TS_ChemName_Synonyms>


> <TS_CASRN>
58066-85-6

> <CASRN_ChemName_Relationship>
primary

> <TS_Description>
single chemical compound

> <ChemNote>
ammonium

> <STRUCTURE_Shown>
tested chemical

> <STRUCTURE_Formula>
C21H46NO4P

> <STRUCTURE_MW>
407.568

> <STRUCTURE_ChemType>
defined organic

> <STRUCTURE_DefinedOrganicForm>
parent

> <STRUCTURE_IUPAC>
hexadecyl 2-(trimethylammonio)ethyl phosphate

> <STRUCTURE_SMILES>
C[N+](C)(C)CCOP([O-])(=O)OCCCCCCCCCCCCCCCC

> <STRUCTURE_SMILES_Desalt>
C[N+](C)(C)CCOP(=O)(O)OCCCCCCCCCCCCCCCC

> <Substance_modify_yyyymmdd>
20110930

$$$$
