5809-23-4
ChemmineR-0915142007XD

 23 24  0  0  0  0  0  0  0  0  1 V2000
   10.0041   -2.1841    0.0000 C   0  0  0  0  0  0  0  0  0  0  0  0
    9.3138   -1.0977    0.0000 O   0  0  0  0  0  0  0  0  0  0  0  0
    9.3590   -3.3950    0.0000 C   0  0  0  0  0  0  0  0  0  0  0  0
   11.3168   -2.1841    0.0000 O   0  0  0  0  0  0  0  0  0  0  0  0
    8.0236   -3.4177    0.0000 C   0  0  0  0  0  0  0  0  0  0  0  0
   10.0493   -4.5041    0.0000 C   0  0  0  0  0  0  0  0  0  0  0  0
    7.4238   -4.5946    0.0000 C   0  0  0  0  0  0  0  0  0  0  0  0
    9.4043   -5.7037    0.0000 C   0  0  0  0  0  0  0  0  0  0  0  0
    8.0915   -5.7037    0.0000 C   0  0  0  0  0  0  0  0  0  0  0  0
    7.3333   -2.3086    0.0000 C   0  0  0  0  0  0  0  0  0  0  0  0
    7.9670   -1.1090    0.0000 O   0  0  0  0  0  0  0  0  0  0  0  0
    6.0206   -2.3086    0.0000 C   0  0  0  0  0  0  0  0  0  0  0  0
    5.3415   -1.1543    0.0000 C   0  0  0  0  0  0  0  0  0  0  0  0
    5.3415   -3.4629    0.0000 C   0  0  0  0  0  0  0  0  0  0  0  0
    4.0062   -1.1543    0.0000 C   0  0  0  0  0  0  0  0  0  0  0  0
    4.0062   -3.4629    0.0000 C   0  0  0  0  0  0  0  0  0  0  0  0
    3.3498   -2.3086    0.0000 C   0  0  0  0  0  0  0  0  0  0  0  0
    2.0031   -2.3086    0.0000 N   0  0  0  0  0  0  0  0  0  0  0  0
    1.3467   -3.4629    0.0000 C   0  0  0  0  0  0  0  0  0  0  0  0
    0.0000   -3.4629    0.0000 C   0  0  0  0  0  0  0  0  0  0  0  0
    1.3467   -1.1543    0.0000 C   0  0  0  0  0  0  0  0  0  0  0  0
    0.0000   -1.1543    0.0000 C   0  0  0  0  0  0  0  0  0  0  0  0
    6.0206    0.0000    0.0000 O   0  0  0  0  0  0  0  0  0  0  0  0
  1  2  2  0  0  0  0
  1  3  1  0  0  0  0
  1  4  1  0  0  0  0
  3  5  2  0  0  0  0
  3  6  1  0  0  0  0
  5  7  1  0  0  0  0
  5 10  1  0  0  0  0
  6  8  2  0  0  0  0
  7  9  2  0  0  0  0
  8  9  1  0  0  0  0
 10 11  2  0  0  0  0
 10 12  1  0  0  0  0
 12 13  2  0  0  0  0
 12 14  1  0  0  0  0
 13 15  1  0  0  0  0
 13 23  1  0  0  0  0
 14 16  2  0  0  0  0
 15 17  2  0  0  0  0
 16 17  1  0  0  0  0
 17 18  1  0  0  0  0
 18 19  1  0  0  0  0
 18 21  1  0  0  0  0
 19 20  1  0  0  0  0
 21 22  1  0  0  0  0
M  END
> <ID>
5285

> <Formula>
C18H19NO4

> <FW>
313.3478

> <DSSTox_CID>
7604

> <DSSTox_RID>
78527

> <DSSTox_GSID>
27604

> <DSSTox_FileID_Sort>
3210

> <TS_ChemName>
2-[4-(Diethylamino)-2-hydroxybenzoyl]benzoic acid

> <TS_ChemName_Synonyms>


> <TS_CASRN>
5809-23-4

> <CASRN_ChemName_Relationship>
primary

> <TS_Description>
single chemical compound

> <ChemNote>


> <STRUCTURE_Shown>
tested chemical

> <STRUCTURE_Formula>
C18H19NO4

> <STRUCTURE_MW>
313.3478

> <STRUCTURE_ChemType>
defined organic

> <STRUCTURE_DefinedOrganicForm>
parent

> <STRUCTURE_IUPAC>
2-[4-(diethylamino)-2-hydroxybenzoyl]benzoic acid

> <STRUCTURE_SMILES>
O=C(c1ccc(cc1O)N(CC)CC)c2ccccc2C(=O)O

> <STRUCTURE_SMILES_Desalt>
O=C(c1ccc(cc1O)N(CC)CC)c2ccccc2C(=O)O

> <Substance_modify_yyyymmdd>
20080429

$$$$
