581-88-4
ChemmineR-0915142007XD

 31 32  0  0  0  0  0  0  0  0  1 V2000
    1.4375   -1.9880    0.0000 N   0  0  0  0  0  0  0  0  0  0  0  0
    2.5896   -1.3254    0.0000 C   0  0  0  0  0  0  0  0  0  0  0  0
    2.5896    0.0000    0.0000 N   0  0  0  0  0  0  0  0  0  0  0  0
    3.7416   -1.9982    0.0000 N   0  0  0  0  0  0  0  0  0  0  0  0
    3.7416   -3.3338    0.0000 C   0  0  0  0  0  0  0  0  0  0  0  0
    4.8937   -3.9863    0.0000 C   0  0  0  0  0  0  0  0  0  0  0  0
    6.0457   -3.3338    0.0000 C   0  0  0  0  0  0  0  0  0  0  0  0
    6.0457   -1.9982    0.0000 C   0  0  0  0  0  0  0  0  0  0  0  0
    4.8937   -1.3254    0.0000 C   0  0  0  0  0  0  0  0  0  0  0  0
    7.1978   -1.3254    0.0000 C   0  0  0  0  0  0  0  0  0  0  0  0
    8.3498   -1.9982    0.0000 C   0  0  0  0  0  0  0  0  0  0  0  0
    8.3498   -3.3338    0.0000 C   0  0  0  0  0  0  0  0  0  0  0  0
    7.1978   -3.9863    0.0000 C   0  0  0  0  0  0  0  0  0  0  0  0
    2.0696   -4.5266    0.0000 S   0  0  0  0  0  0  0  0  0  0  0  0
    3.3950   -4.5266    0.0000 O   0  0  0  0  0  0  0  0  0  0  0  0
    0.7340   -4.5266    0.0000 O   0  0  0  0  0  0  0  0  0  0  0  0
    2.0696   -5.8622    0.0000 O   0  0  0  0  0  0  0  0  0  0  0  0
    2.0696   -3.2013    0.0000 O   0  0  0  0  0  0  0  0  0  0  0  0
    6.9123   -8.1969    0.0000 N   0  0  0  0  0  0  0  0  0  0  0  0
    5.7602   -7.5342    0.0000 C   0  0  0  0  0  0  0  0  0  0  0  0
    5.7602   -6.2088    0.0000 N   0  0  0  0  0  0  0  0  0  0  0  0
    4.6082   -8.2071    0.0000 N   0  0  0  0  0  0  0  0  0  0  0  0
    4.6082   -9.5426    0.0000 C   0  0  0  0  0  0  0  0  0  0  0  0
    3.4561  -10.1951    0.0000 C   0  0  0  0  0  0  0  0  0  0  0  0
    2.3041   -9.5426    0.0000 C   0  0  0  0  0  0  0  0  0  0  0  0
    2.3041   -8.2071    0.0000 C   0  0  0  0  0  0  0  0  0  0  0  0
    3.4561   -7.5342    0.0000 C   0  0  0  0  0  0  0  0  0  0  0  0
    1.1520   -7.5342    0.0000 C   0  0  0  0  0  0  0  0  0  0  0  0
    0.0000   -8.2071    0.0000 C   0  0  0  0  0  0  0  0  0  0  0  0
    0.0204   -9.5426    0.0000 C   0  0  0  0  0  0  0  0  0  0  0  0
    1.1520  -10.1951    0.0000 C   0  0  0  0  0  0  0  0  0  0  0  0
  1  2  1  0  0  0  0
  2  3  2  0  0  0  0
  2  4  1  0  0  0  0
  4  5  1  0  0  0  0
  4  9  1  0  0  0  0
  5  6  1  0  0  0  0
  6  7  1  0  0  0  0
  7  8  2  0  0  0  0
  7 13  1  0  0  0  0
  8  9  1  0  0  0  0
  8 10  1  0  0  0  0
 10 11  2  0  0  0  0
 11 12  1  0  0  0  0
 12 13  2  0  0  0  0
 14 15  2  0  0  0  0
 14 16  2  0  0  0  0
 14 17  1  0  0  0  0
 14 18  1  0  0  0  0
 19 20  1  0  0  0  0
 20 21  2  0  0  0  0
 20 22  1  0  0  0  0
 22 23  1  0  0  0  0
 22 27  1  0  0  0  0
 23 24  1  0  0  0  0
 24 25  1  0  0  0  0
 25 26  2  0  0  0  0
 25 31  1  0  0  0  0
 26 27  1  0  0  0  0
 26 28  1  0  0  0  0
 28 29  2  0  0  0  0
 29 30  1  0  0  0  0
 30 31  2  0  0  0  0
M  END
> <ID>
12876

> <Formula>
C20H28N6O4S

> <FW>
448.5391 (175.2303+98.0785+175.2303)

> <DSSTox_CID>
27755

> <DSSTox_RID>
82532

> <DSSTox_GSID>
47775

> <DSSTox_FileID_Sort>
7213

> <TS_ChemName>
Debrisoquin sulfate

> <TS_ChemName_Synonyms>


> <TS_CASRN>
581-88-4

> <CASRN_ChemName_Relationship>
primary

> <TS_Description>
single chemical compound

> <ChemNote>
parent [1131-64-2]

> <STRUCTURE_Shown>
tested chemical

> <STRUCTURE_Formula>
C20H28N6O4S

> <STRUCTURE_MW>
448.5391

> <STRUCTURE_ChemType>
defined organic

> <STRUCTURE_DefinedOrganicForm>
complex

> <STRUCTURE_IUPAC>
3,4-dihydroisoquinoline-2(1H)-carboximidamide sulfate (2:1)

> <STRUCTURE_SMILES>
O=S(=O)(O)O.N=C(N)N1Cc2ccccc2CC1.N=C(N)N1Cc2ccccc2CC1

> <STRUCTURE_SMILES_Desalt>
N=C(N)N1Cc2ccccc2CC1

> <Substance_modify_yyyymmdd>
20110720

$$$$
