581-42-0
ChemmineR-0915142007XD

 12 13  0  0  0  0  0  0  0  0  1 V2000
    3.4487   -0.6553    0.0000 C   0  0  0  0  0  0  0  0  0  0  0  0
    3.4487   -2.0071    0.0000 C   0  0  0  0  0  0  0  0  0  0  0  0
    2.2968    0.0000    0.0000 C   0  0  0  0  0  0  0  0  0  0  0  0
    2.2968   -2.6624    0.0000 C   0  0  0  0  0  0  0  0  0  0  0  0
    4.5730   -2.6624    0.0000 C   0  0  0  0  0  0  0  0  0  0  0  0
    4.5730    0.0000    0.0000 C   0  0  0  0  0  0  0  0  0  0  0  0
    5.7248   -0.6553    0.0000 C   0  0  0  0  0  0  0  0  0  0  0  0
    5.7248   -2.0071    0.0000 C   0  0  0  0  0  0  0  0  0  0  0  0
    1.1243   -2.0071    0.0000 C   0  0  0  0  0  0  0  0  0  0  0  0
    1.1243   -0.6553    0.0000 C   0  0  0  0  0  0  0  0  0  0  0  0
    6.8974    0.0000    0.0000 C   0  0  0  0  0  0  0  0  0  0  0  0
    0.0000   -2.6624    0.0000 C   0  0  0  0  0  0  0  0  0  0  0  0
  1  2  2  0  0  0  0
  1  3  1  0  0  0  0
  1  6  1  0  0  0  0
  2  4  1  0  0  0  0
  2  5  1  0  0  0  0
  3 10  2  0  0  0  0
  4  9  2  0  0  0  0
  5  8  2  0  0  0  0
  6  7  2  0  0  0  0
  7  8  1  0  0  0  0
  7 11  1  0  0  0  0
  9 10  1  0  0  0  0
  9 12  1  0  0  0  0
M  END
> <ID>
5841

> <Formula>
C12H12

> <FW>
156.2237

> <DSSTox_CID>
9187

> <DSSTox_RID>
78701

> <DSSTox_GSID>
29187

> <DSSTox_FileID_Sort>
3383

> <TS_ChemName>
2,6-Dimethylnaphthalene

> <TS_ChemName_Synonyms>


> <TS_CASRN>
581-42-0

> <CASRN_ChemName_Relationship>
primary

> <TS_Description>
single chemical compound

> <ChemNote>


> <STRUCTURE_Shown>
tested chemical

> <STRUCTURE_Formula>
C12H12

> <STRUCTURE_MW>
156.2237

> <STRUCTURE_ChemType>
defined organic

> <STRUCTURE_DefinedOrganicForm>
parent

> <STRUCTURE_IUPAC>
2,6-dimethylnaphthalene

> <STRUCTURE_SMILES>
Cc1ccc2cc(C)ccc2c1

> <STRUCTURE_SMILES_Desalt>
Cc1ccc2cc(C)ccc2c1

> <Substance_modify_yyyymmdd>
20080429

$$$$
