5817-39-0
ChemmineR-0915142007XD

 23 24  0  0  1  0  0  0  0  0  1 V2000
   10.3630   -3.3192    0.0000 N   0  0  0  0  0  0  0  0  0  0  0  0
   10.3630   -1.9890    0.0000 C   0  0  0  0  0  0  0  0  0  0  0  0
    9.2229   -1.3302    0.0000 C   0  0  0  0  0  0  0  0  0  0  0  0
    8.0700   -1.9890    0.0000 C   0  0  0  0  0  0  0  0  0  0  0  0
    8.0700   -3.3192    0.0000 C   0  0  0  0  0  0  0  0  0  0  0  0
    6.9171   -3.9907    0.0000 C   0  0  0  0  0  0  0  0  0  0  0  0
    5.7516   -3.3192    0.0000 C   0  0  0  0  0  0  0  0  0  0  0  0
    4.5988   -3.9907    0.0000 O   0  0  0  0  0  0  0  0  0  0  0  0
    3.4459   -3.3192    0.0000 C   0  0  0  0  0  0  0  0  0  0  0  0
    2.2930   -3.9907    0.0000 C   0  0  0  0  0  0  0  0  0  0  0  0
    1.1402   -3.3192    0.0000 C   0  0  0  0  0  0  0  0  0  0  0  0
    1.1402   -1.9890    0.0000 C   0  0  0  0  0  0  0  0  0  0  0  0
    0.0000   -1.3302    0.0000 O   0  0  0  0  0  0  0  0  0  0  0  0
    2.2930   -1.3302    0.0000 C   0  0  0  0  0  0  0  0  0  0  0  0
    3.4459   -1.9890    0.0000 C   0  0  0  0  0  0  0  0  0  0  0  0
    2.2930    0.0000    0.0000 I   0  0  0  0  0  0  0  0  0  0  0  0
    0.0000   -3.9907    0.0000 I   0  0  0  0  0  0  0  0  0  0  0  0
    5.7516   -1.9890    0.0000 C   0  0  0  0  0  0  0  0  0  0  0  0
    6.9171   -1.3302    0.0000 C   0  0  0  0  0  0  0  0  0  0  0  0
    6.9171   -5.3209    0.0000 I   0  0  0  0  0  0  0  0  0  0  0  0
   11.5159   -1.3302    0.0000 C   0  0  0  0  0  0  0  0  0  0  0  0
   12.6688   -1.9890    0.0000 O   0  0  0  0  0  0  0  0  0  0  0  0
   11.5159    0.0000    0.0000 O   0  0  0  0  0  0  0  0  0  0  0  0
  2  1  1  1  0  0  0
  2  3  1  0  0  0  0
  2 21  1  0  0  0  0
  3  4  1  0  0  0  0
  4  5  2  0  0  0  0
  4 19  1  0  0  0  0
  5  6  1  0  0  0  0
  6  7  2  0  0  0  0
  6 20  1  0  0  0  0
  7  8  1  0  0  0  0
  7 18  1  0  0  0  0
  8  9  1  0  0  0  0
  9 10  2  0  0  0  0
  9 15  1  0  0  0  0
 10 11  1  0  0  0  0
 11 12  2  0  0  0  0
 11 17  1  0  0  0  0
 12 13  1  0  0  0  0
 12 14  1  0  0  0  0
 14 15  2  0  0  0  0
 14 16  1  0  0  0  0
 18 19  2  0  0  0  0
 21 22  1  0  0  0  0
 21 23  2  0  0  0  0
M  END
> <ID>
12068

> <Formula>
C15H12I3NO4

> <FW>
650.9735

> <DSSTox_CID>
26908

> <DSSTox_RID>
82006

> <DSSTox_GSID>
46908

> <DSSTox_FileID_Sort>
6687

> <TS_ChemName>
3,3',5'-Triiodo-L-thyronine

> <TS_ChemName_Synonyms>


> <TS_CASRN>
5817-39-0

> <CASRN_ChemName_Relationship>
primary

> <TS_Description>
single chemical compound

> <ChemNote>
stereochem

> <STRUCTURE_Shown>
tested chemical

> <STRUCTURE_Formula>
C15H12I3NO4

> <STRUCTURE_MW>
650.9735

> <STRUCTURE_ChemType>
defined organic

> <STRUCTURE_DefinedOrganicForm>
parent

> <STRUCTURE_IUPAC>
O-(4-hydroxy-3,5-diiodophenyl)-3-iodo-L-tyrosine

> <STRUCTURE_SMILES>
Ic2cc(Oc1ccc(C[C@H](N)C(=O)O)cc1I)cc(I)c2O

> <STRUCTURE_SMILES_Desalt>
Ic2cc(Oc1ccc(C[C@H](N)C(=O)O)cc1I)cc(I)c2O

> <Substance_modify_yyyymmdd>
20110725

$$$$
