58186-27-9
ChemmineR-0915142007XD

 24 24  0  0  0  0  0  0  0  0  1 V2000
    2.2774   -3.3299    0.0000 C   0  0  0  0  0  0  0  0  0  0  0  0
    2.2774   -2.0014    0.0000 C   0  0  0  0  0  0  0  0  0  0  0  0
    3.4161   -4.0027    0.0000 C   0  0  0  0  0  0  0  0  0  0  0  0
    3.4161   -1.3285    0.0000 C   0  0  0  0  0  0  0  0  0  0  0  0
    4.5721   -3.3299    0.0000 C   0  0  0  0  0  0  0  0  0  0  0  0
    4.5721   -2.0014    0.0000 C   0  0  0  0  0  0  0  0  0  0  0  0
    3.4161    0.0000    0.0000 O   0  0  0  0  0  0  0  0  0  0  0  0
    3.4161   -5.3140    0.0000 O   0  0  0  0  0  0  0  0  0  0  0  0
    1.1387   -4.0027    0.0000 O   0  0  0  0  0  0  0  0  0  0  0  0
    1.1387   -1.3285    0.0000 O   0  0  0  0  0  0  0  0  0  0  0  0
    5.7280   -1.3285    0.0000 C   0  0  0  0  0  0  0  0  0  0  0  0
    5.7280   -4.0027    0.0000 C   0  0  0  0  0  0  0  0  0  0  0  0
   17.2531   -1.3457    0.0000 O   0  0  0  0  0  0  0  0  0  0  0  0
    0.0000   -2.0014    0.0000 C   0  0  0  0  0  0  0  0  0  0  0  0
    0.0000   -3.3299    0.0000 C   0  0  0  0  0  0  0  0  0  0  0  0
   16.0972   -2.0186    0.0000 C   0  0  0  0  0  0  0  0  0  0  0  0
    6.9012   -2.0014    0.0000 C   0  0  0  0  0  0  0  0  0  0  0  0
   14.9412   -1.3457    0.0000 C   0  0  0  0  0  0  0  0  0  0  0  0
   11.4733   -2.0014    0.0000 C   0  0  0  0  0  0  0  0  0  0  0  0
   12.6120   -1.3285    0.0000 C   0  0  0  0  0  0  0  0  0  0  0  0
   13.7680   -2.0014    0.0000 C   0  0  0  0  0  0  0  0  0  0  0  0
    8.0227   -1.3285    0.0000 C   0  0  0  0  0  0  0  0  0  0  0  0
    9.1787   -2.0014    0.0000 C   0  0  0  0  0  0  0  0  0  0  0  0
   10.3174   -1.3285    0.0000 C   0  0  0  0  0  0  0  0  0  0  0  0
  1  2  2  0  0  0  0
  1  3  1  0  0  0  0
  1  9  1  0  0  0  0
  2  4  1  0  0  0  0
  2 10  1  0  0  0  0
  3  5  1  0  0  0  0
  3  8  2  0  0  0  0
  4  7  2  0  0  0  0
  4  6  1  0  0  0  0
  5  6  2  0  0  0  0
  5 12  1  0  0  0  0
  6 11  1  0  0  0  0
  9 15  1  0  0  0  0
 10 14  1  0  0  0  0
 11 17  1  0  0  0  0
 13 16  1  0  0  0  0
 16 18  1  0  0  0  0
 17 22  1  0  0  0  0
 18 21  1  0  0  0  0
 19 24  1  0  0  0  0
 19 20  1  0  0  0  0
 20 21  1  0  0  0  0
 22 23  1  0  0  0  0
 23 24  1  0  0  0  0
M  END
> <ID>
7876

> <Formula>
C19H30O5

> <FW>
338.4385

> <DSSTox_CID>
20678

> <DSSTox_RID>
79536

> <DSSTox_GSID>
40678

> <DSSTox_FileID_Sort>
4218

> <TS_ChemName>
Idebenone

> <TS_ChemName_Synonyms>


> <TS_CASRN>
58186-27-9

> <CASRN_ChemName_Relationship>
primary

> <TS_Description>
single chemical compound

> <ChemNote>


> <STRUCTURE_Shown>
tested chemical

> <STRUCTURE_Formula>
C19H30O5

> <STRUCTURE_MW>
338.4385

> <STRUCTURE_ChemType>
defined organic

> <STRUCTURE_DefinedOrganicForm>
parent

> <STRUCTURE_IUPAC>
2-(10-hydroxydecyl)-5,6-dimethoxy-3-methylcyclohexa-2,5-diene-1,4-dione

> <STRUCTURE_SMILES>
COC1=C(OC)C(=O)C(C)=C(CCCCCCCCCCO)C1=O

> <STRUCTURE_SMILES_Desalt>
COC1=C(OC)C(=O)C(C)=C(CCCCCCCCCCO)C1=O

> <Substance_modify_yyyymmdd>
20080429

$$$$
