582-25-2
ChemmineR-0915142007XD

 10  9  0  0  0  0  0  0  0  0  2 V2000
    1.1586   -1.8783    0.0000 C   0  0  0  0  0  0  0  0  0  0  0  0
    0.0000   -1.2054    0.0000 O   0  0  0  0  0  0  0  0  0  0  0  0
    1.1586   -3.2007    0.0000 C   0  0  0  0  0  0  0  0  0  0  0  0
    2.3171   -1.1878    0.0000 O   0  5  0  0  0  0  0  0  0  0  0  0
    0.0176   -3.8736    0.0000 C   0  0  0  0  0  0  0  0  0  0  0  0
    2.3171   -3.8560    0.0000 C   0  0  0  0  0  0  0  0  0  0  0  0
    0.0176   -5.1901    0.0000 C   0  0  0  0  0  0  0  0  0  0  0  0
    2.3171   -5.1901    0.0000 C   0  0  0  0  0  0  0  0  0  0  0  0
    1.1761   -5.8513    0.0000 C   0  0  0  0  0  0  0  0  0  0  0  0
    3.9087    0.0000    0.0000 K   0  3  0  0  0  0  0  0  0  0  0  0
  1  2  2  0  0  0  0
  1  3  1  0  0  0  0
  1  4  1  0  0  0  0
  3  5  2  0  0  0  0
  3  6  1  0  0  0  0
  5  7  1  0  0  0  0
  6  8  2  0  0  0  0
  7  9  2  0  0  0  0
  8  9  1  0  0  0  0
M  END
> <ID>
5003

> <Formula>
C7H5KO2

> <FW>
160.2117 (121.1139+39.0978)

> <DSSTox_CID>
7219

> <DSSTox_RID>
78354

> <DSSTox_GSID>
27219

> <DSSTox_FileID_Sort>
3037

> <TS_ChemName>
Potassium benzoate

> <TS_ChemName_Synonyms>
Benzoic acid, potassium salt

> <TS_CASRN>
582-25-2

> <CASRN_ChemName_Relationship>
primary

> <TS_Description>
single chemical compound

> <ChemNote>
parent [65-85-0]

> <STRUCTURE_Shown>
tested chemical

> <STRUCTURE_Formula>
C7H5KO2

> <STRUCTURE_MW>
160.2117

> <STRUCTURE_ChemType>
defined organic

> <STRUCTURE_DefinedOrganicForm>
salt

> <STRUCTURE_IUPAC>
potassium benzoate

> <STRUCTURE_SMILES>
[K+].[O-]C(=O)c1ccccc1

> <STRUCTURE_SMILES_Desalt>
O=C(O)c1ccccc1

> <Substance_modify_yyyymmdd>
20080429

$$$$
