583-39-1
ChemmineR-0915142007XD

 10 11  0  0  0  0  0  0  0  0  1 V2000
    0.0000   -1.3294    0.0000 S   0  0  0  0  0  0  0  0  0  0  0  0
    1.3294   -1.3294    0.0000 C   0  0  0  0  0  0  0  0  0  0  0  0
    2.1134   -0.2500    0.0000 N   0  0  0  0  0  0  0  0  0  0  0  0
    3.3747   -0.6647    0.0000 C   0  0  0  0  0  0  0  0  0  0  0  0
    4.5280    0.0000    0.0000 C   0  0  0  0  0  0  0  0  0  0  0  0
    5.6812   -0.6647    0.0000 C   0  0  0  0  0  0  0  0  0  0  0  0
    5.6812   -1.9941    0.0000 C   0  0  0  0  0  0  0  0  0  0  0  0
    4.5280   -2.6588    0.0000 C   0  0  0  0  0  0  0  0  0  0  0  0
    3.3747   -1.9941    0.0000 C   0  0  0  0  0  0  0  0  0  0  0  0
    2.1134   -2.4032    0.0000 N   0  0  0  0  0  0  0  0  0  0  0  0
  1  2  2  0  0  0  0
  2  3  1  0  0  0  0
  2 10  1  0  0  0  0
  3  4  1  0  0  0  0
  4  5  2  0  0  0  0
  4  9  1  0  0  0  0
  5  6  1  0  0  0  0
  6  7  2  0  0  0  0
  7  8  1  0  0  0  0
  8  9  2  0  0  0  0
  9 10  1  0  0  0  0
M  END
> <ID>
4250

> <Formula>
C7H6N2S

> <FW>
150.2009

> <DSSTox_CID>
5536

> <DSSTox_RID>
77821

> <DSSTox_GSID>
25536

> <DSSTox_FileID_Sort>
2504

> <TS_ChemName>
2-Mercaptobenzimidazole

> <TS_ChemName_Synonyms>


> <TS_CASRN>
583-39-1

> <CASRN_ChemName_Relationship>
primary

> <TS_Description>
single chemical compound

> <ChemNote>


> <STRUCTURE_Shown>
tested chemical

> <STRUCTURE_Formula>
C7H6N2S

> <STRUCTURE_MW>
150.2009

> <STRUCTURE_ChemType>
defined organic

> <STRUCTURE_DefinedOrganicForm>
parent

> <STRUCTURE_IUPAC>
1,3-dihydro-2H-benzimidazole-2-thione

> <STRUCTURE_SMILES>
S=C1Nc2ccccc2N1

> <STRUCTURE_SMILES_Desalt>
S=C1Nc2ccccc2N1

> <Substance_modify_yyyymmdd>
20080429

$$$$
