583-03-9
ChemmineR-0915142007XD

 12 12  0  0  0  0  0  0  0  0  1 V2000
    2.2904   -2.0000    0.0000 C   0  0  0  0  0  0  0  0  0  0  0  0
    3.4517   -1.3387    0.0000 C   0  0  0  0  0  0  0  0  0  0  0  0
    3.4517    0.0000    0.0000 O   0  0  0  0  0  0  0  0  0  0  0  0
    2.2904   -3.3388    0.0000 C   0  0  0  0  0  0  0  0  0  0  0  0
    1.1613   -1.3387    0.0000 C   0  0  0  0  0  0  0  0  0  0  0  0
    4.6130   -2.0000    0.0000 C   0  0  0  0  0  0  0  0  0  0  0  0
    5.7743   -1.3387    0.0000 C   0  0  0  0  0  0  0  0  0  0  0  0
    6.9195   -2.0000    0.0000 C   0  0  0  0  0  0  0  0  0  0  0  0
    8.0647   -1.3387    0.0000 C   0  0  0  0  0  0  0  0  0  0  0  0
    1.1613   -4.0001    0.0000 C   0  0  0  0  0  0  0  0  0  0  0  0
    0.0000   -2.0000    0.0000 C   0  0  0  0  0  0  0  0  0  0  0  0
    0.0000   -3.3388    0.0000 C   0  0  0  0  0  0  0  0  0  0  0  0
  1  2  1  0  0  0  0
  1  4  2  0  0  0  0
  1  5  1  0  0  0  0
  2  3  1  0  0  0  0
  2  6  1  0  0  0  0
  4 10  1  0  0  0  0
  5 11  2  0  0  0  0
  6  7  1  0  0  0  0
  7  8  1  0  0  0  0
  8  9  1  0  0  0  0
 10 12  2  0  0  0  0
 11 12  1  0  0  0  0
M  END
> <ID>
11994

> <Formula>
C11H16O

> <FW>
164.2441

> <DSSTox_CID>
26818

> <DSSTox_RID>
81930

> <DSSTox_GSID>
46818

> <DSSTox_FileID_Sort>
6611

> <TS_ChemName>
Fenipentol

> <TS_ChemName_Synonyms>


> <TS_CASRN>
583-03-9

> <CASRN_ChemName_Relationship>
primary

> <TS_Description>
single chemical compound

> <ChemNote>


> <STRUCTURE_Shown>
tested chemical

> <STRUCTURE_Formula>
C11H16O

> <STRUCTURE_MW>
164.2441

> <STRUCTURE_ChemType>
defined organic

> <STRUCTURE_DefinedOrganicForm>
parent

> <STRUCTURE_IUPAC>
1-phenylpentan-1-ol

> <STRUCTURE_SMILES>
OC(CCCC)c1ccccc1

> <STRUCTURE_SMILES_Desalt>
OC(CCCC)c1ccccc1

> <Substance_modify_yyyymmdd>
20110801

$$$$
