58306-30-2
ChemmineR-0915142007XD

 31 32  0  0  0  0  0  0  0  0  1 V2000
    9.2373   -3.9806    0.0000 C   0  0  0  0  0  0  0  0  0  0  0  0
    9.2234   -2.6630    0.0000 N   0  0  0  0  0  0  0  0  0  0  0  0
   10.4162   -4.6741    0.0000 N   0  0  0  0  0  0  0  0  0  0  0  0
    8.1138   -4.6602    0.0000 N   0  0  0  0  0  0  0  0  0  0  0  0
    5.8114   -4.6464    0.0000 C   0  0  0  0  0  0  0  0  0  0  0  0
    8.1416   -1.9972    0.0000 C   0  0  0  0  0  0  0  0  0  0  0  0
   11.5674   -3.9806    0.0000 C   0  0  0  0  0  0  0  0  0  0  0  0
    6.9626   -5.3121    0.0000 C   0  0  0  0  0  0  0  0  0  0  0  0
    5.8114   -3.3704    0.0000 N   0  0  0  0  0  0  0  0  0  0  0  0
    4.6325   -5.3121    0.0000 C   0  0  0  0  0  0  0  0  0  0  0  0
    4.6325   -6.6714    0.0000 C   0  0  0  0  0  0  0  0  0  0  0  0
    3.4952   -7.3232    0.0000 S   0  0  0  0  0  0  0  0  0  0  0  0
    6.9626   -2.6907    0.0000 O   0  0  0  0  0  0  0  0  0  0  0  0
   11.5674   -2.6630    0.0000 O   0  0  0  0  0  0  0  0  0  0  0  0
    6.9626   -6.6714    0.0000 C   0  0  0  0  0  0  0  0  0  0  0  0
   12.7325   -4.6602    0.0000 O   0  0  0  0  0  0  0  0  0  0  0  0
    8.1693   -0.6657    0.0000 O   0  0  0  0  0  0  0  0  0  0  0  0
    5.8253   -7.3232    0.0000 C   0  0  0  0  0  0  0  0  0  0  0  0
    2.3024   -6.6436    0.0000 C   0  0  0  0  0  0  0  0  0  0  0  0
   13.8698   -3.9668    0.0000 C   0  0  0  0  0  0  0  0  0  0  0  0
    7.0181    0.0000    0.0000 C   0  0  0  0  0  0  0  0  0  0  0  0
    2.3024   -5.3399    0.0000 C   0  0  0  0  0  0  0  0  0  0  0  0
    1.1789   -7.3094    0.0000 C   0  0  0  0  0  0  0  0  0  0  0  0
    1.1789   -4.6880    0.0000 C   0  0  0  0  0  0  0  0  0  0  0  0
    0.0000   -6.6436    0.0000 C   0  0  0  0  0  0  0  0  0  0  0  0
    0.0000   -5.3537    0.0000 C   0  0  0  0  0  0  0  0  0  0  0  0
    4.6602   -2.6907    0.0000 C   0  0  0  0  0  0  0  0  0  0  0  0
    3.5091   -3.3704    0.0000 C   0  0  0  0  0  0  0  0  0  0  0  0
    2.3579   -2.7046    0.0000 O   0  0  0  0  0  0  0  0  0  0  0  0
    1.2067   -3.3842    0.0000 C   0  0  0  0  0  0  0  0  0  0  0  0
    4.6602   -1.3731    0.0000 O   0  0  0  0  0  0  0  0  0  0  0  0
  1  2  1  0  0  0  0
  1  3  1  0  0  0  0
  1  4  2  0  0  0  0
  2  6  1  0  0  0  0
  3  7  1  0  0  0  0
  4  8  1  0  0  0  0
  5  8  2  0  0  0  0
  5  9  1  0  0  0  0
  5 10  1  0  0  0  0
  6 13  2  0  0  0  0
  6 17  1  0  0  0  0
  7 14  2  0  0  0  0
  7 16  1  0  0  0  0
  8 15  1  0  0  0  0
  9 27  1  0  0  0  0
 10 11  2  0  0  0  0
 11 18  1  0  0  0  0
 11 12  1  0  0  0  0
 12 19  1  0  0  0  0
 15 18  2  0  0  0  0
 16 20  1  0  0  0  0
 17 21  1  0  0  0  0
 19 22  2  0  0  0  0
 19 23  1  0  0  0  0
 22 24  1  0  0  0  0
 23 25  2  0  0  0  0
 24 26  2  0  0  0  0
 25 26  1  0  0  0  0
 27 28  1  0  0  0  0
 27 31  2  0  0  0  0
 28 29  1  0  0  0  0
 29 30  1  0  0  0  0
M  END
> <ID>
12061

> <Formula>
C20H22N4O6S

> <FW>
446.4769

> <DSSTox_CID>
26898

> <DSSTox_RID>
81999

> <DSSTox_GSID>
46898

> <DSSTox_FileID_Sort>
6680

> <TS_ChemName>
Febantel

> <TS_ChemName_Synonyms>


> <TS_CASRN>
58306-30-2

> <CASRN_ChemName_Relationship>
primary

> <TS_Description>
single chemical compound

> <ChemNote>
tautomers

> <STRUCTURE_Shown>
tested chemical

> <STRUCTURE_Formula>
C20H22N4O6S

> <STRUCTURE_MW>
446.4769

> <STRUCTURE_ChemType>
defined organic

> <STRUCTURE_DefinedOrganicForm>
parent

> <STRUCTURE_IUPAC>
dimethyl ({2-[(methoxyacetyl)amino]-4-(phenylsulfanyl)phenyl}carbonimidoyl)biscarbamate

> <STRUCTURE_SMILES>
O=C(OC)N/C(NC(=O)OC)=N\c2ccc(Sc1ccccc1)cc2NC(=O)COC

> <STRUCTURE_SMILES_Desalt>
O=C(OC)N/C(NC(=O)OC)=N\c2ccc(Sc1ccccc1)cc2NC(=O)COC

> <Substance_modify_yyyymmdd>
20110727

$$$$
