5836-10-2
ChemmineR-0915142007XD

 22 23  0  0  0  0  0  0  0  0  1 V2000
    3.4755   -5.3116    0.0000 C    0  0  0  0  0  0  0  0  0  0  0  0
    3.4755   -6.6606    0.0000 C    0  0  0  0  0  0  0  0  0  0  0  0
    2.3139   -7.3070    0.0000 C    0  0  0  0  0  0  0  0  0  0  0  0
    1.1616   -6.6606    0.0000 C    0  0  0  0  0  0  0  0  0  0  0  0
    1.1616   -5.3116    0.0000 C    0  0  0  0  0  0  0  0  0  0  0  0
    2.3139   -4.6465    0.0000 C    0  0  0  0  0  0  0  0  0  0  0  0
    5.2648   -3.4568    0.0000 C    0  0  0  0  0  0  0  0  0  0  0  0
    6.5669   -3.4568    0.0000 O    0  0  0  0  0  0  0  0  0  0  0  0
    4.5996   -2.3045    0.0000 O    0  0  0  0  0  0  0  0  0  0  0  0
    4.6559   -4.6465    0.0000 C    0  0  0  0  0  0  0  0  0  0  0  0
    0.0000   -7.3070    0.0000 Cl   0  0  0  0  0  0  0  0  0  0  0  0
    5.9112   -5.2835    0.0000 C    0  0  0  0  0  0  0  0  0  0  0  0
    5.9112   -6.6137    0.0000 C    0  0  0  0  0  0  0  0  0  0  0  0
    7.0540   -4.6371    0.0000 C    0  0  0  0  0  0  0  0  0  0  0  0
    7.0540   -7.2882    0.0000 C    0  0  0  0  0  0  0  0  0  0  0  0
    8.2063   -5.2835    0.0000 C    0  0  0  0  0  0  0  0  0  0  0  0
    8.2063   -6.6137    0.0000 C    0  0  0  0  0  0  0  0  0  0  0  0
    9.3679   -7.2882    0.0000 Cl   0  0  0  0  0  0  0  0  0  0  0  0
    3.9626   -3.6254    0.0000 O    0  0  0  0  0  0  0  0  0  0  0  0
    5.2648   -1.1616    0.0000 C    0  0  0  0  0  0  0  0  0  0  0  0
    4.5715    0.0000    0.0000 C    0  0  0  0  0  0  0  0  0  0  0  0
    6.5669   -1.1616    0.0000 C    0  0  0  0  0  0  0  0  0  0  0  0
  1  2  1  0  0  0  0
  1  6  2  0  0  0  0
  1 10  1  0  0  0  0
  2  3  2  0  0  0  0
  3  4  1  0  0  0  0
  4  5  2  0  0  0  0
  4 11  1  0  0  0  0
  5  6  1  0  0  0  0
  7  8  2  0  0  0  0
  7  9  1  0  0  0  0
  7 10  1  0  0  0  0
  9 20  1  0  0  0  0
 10 12  1  0  0  0  0
 10 19  1  0  0  0  0
 12 13  2  0  0  0  0
 12 14  1  0  0  0  0
 13 15  1  0  0  0  0
 14 16  2  0  0  0  0
 15 17  2  0  0  0  0
 16 17  1  0  0  0  0
 17 18  1  0  0  0  0
 20 21  1  0  0  0  0
 20 22  1  0  0  0  0
M  END
> <ID>
8730

> <Formula>
C17H16Cl2O3

> <FW>
339.2131

> <DSSTox_CID>
21778

> <DSSTox_RID>
79841

> <DSSTox_GSID>
41778

> <DSSTox_FileID_Sort>
4523

> <TS_ChemName>
Chloropropylate

> <TS_ChemName_Synonyms>


> <TS_CASRN>
5836-10-2

> <CASRN_ChemName_Relationship>
primary

> <TS_Description>
single chemical compound

> <ChemNote>


> <STRUCTURE_Shown>
tested chemical

> <STRUCTURE_Formula>
C17H16Cl2O3

> <STRUCTURE_MW>
339.2131

> <STRUCTURE_ChemType>
defined organic

> <STRUCTURE_DefinedOrganicForm>
parent

> <STRUCTURE_IUPAC>
propan-2-yl bis(4-chlorophenyl)(hydroxy)acetate

> <STRUCTURE_SMILES>
OC(c1ccc(Cl)cc1)(c2ccc(Cl)cc2)C(=O)OC(C)C

> <STRUCTURE_SMILES_Desalt>
OC(c1ccc(Cl)cc1)(c2ccc(Cl)cc2)C(=O)OC(C)C

> <Substance_modify_yyyymmdd>
20080825

$$$$
