5836-29-3
ChemmineR-0915142007XD

 22 25  0  0  0  0  0  0  0  0  1 V2000
    5.8196   -2.6487    0.0000 C   0  0  0  0  0  0  0  0  0  0  0  0
    4.6445   -1.9865    0.0000 C   0  0  0  0  0  0  0  0  0  0  0  0
    6.9667   -1.9865    0.0000 C   0  0  0  0  0  0  0  0  0  0  0  0
    5.8196   -3.9264    0.0000 C   0  0  0  0  0  0  0  0  0  0  0  0
    3.4974   -2.6487    0.0000 C   0  0  0  0  0  0  0  0  0  0  0  0
    4.6445   -0.6622    0.0000 C   0  0  0  0  0  0  0  0  0  0  0  0
    8.1698   -2.6580    0.0000 C   0  0  0  0  0  0  0  0  0  0  0  0
    6.9667   -0.7088    0.0000 C   0  0  0  0  0  0  0  0  0  0  0  0
    7.0227   -4.6165    0.0000 C   0  0  0  0  0  0  0  0  0  0  0  0
    2.3222   -1.9865    0.0000 C   0  0  0  0  0  0  0  0  0  0  0  0
    3.4974   -3.9637    0.0000 O   0  0  0  0  0  0  0  0  0  0  0  0
    3.4787    0.0000    0.0000 O   0  0  0  0  0  0  0  0  0  0  0  0
    5.8196    0.0000    0.0000 O   0  0  0  0  0  0  0  0  0  0  0  0
    8.1698   -3.9637    0.0000 C   0  0  0  0  0  0  0  0  0  0  0  0
    9.3263   -2.0238    0.0000 C   0  0  0  0  0  0  0  0  0  0  0  0
    8.1419   -0.0466    0.0000 C   0  0  0  0  0  0  0  0  0  0  0  0
    2.3222   -0.6622    0.0000 C   0  0  0  0  0  0  0  0  0  0  0  0
    1.1844   -2.6487    0.0000 C   0  0  0  0  0  0  0  0  0  0  0  0
    9.3263   -0.7088    0.0000 C   0  0  0  0  0  0  0  0  0  0  0  0
    1.1658   -0.0187    0.0000 C   0  0  0  0  0  0  0  0  0  0  0  0
    0.0187   -1.9865    0.0000 C   0  0  0  0  0  0  0  0  0  0  0  0
    0.0000   -0.6715    0.0000 C   0  0  0  0  0  0  0  0  0  0  0  0
  1  2  1  0  0  0  0
  1  3  1  0  0  0  0
  1  4  1  0  0  0  0
  2  5  2  0  0  0  0
  2  6  1  0  0  0  0
  3  7  2  0  0  0  0
  3  8  1  0  0  0  0
  4  9  1  0  0  0  0
  5 10  1  0  0  0  0
  5 11  1  0  0  0  0
  6 12  1  0  0  0  0
  6 13  2  0  0  0  0
  7 14  1  0  0  0  0
  7 15  1  0  0  0  0
  8 16  2  0  0  0  0
  9 14  1  0  0  0  0
 10 17  2  0  0  0  0
 10 18  1  0  0  0  0
 12 17  1  0  0  0  0
 15 19  2  0  0  0  0
 16 19  1  0  0  0  0
 17 20  1  0  0  0  0
 18 21  2  0  0  0  0
 20 22  2  0  0  0  0
 21 22  1  0  0  0  0
M  END
> <ID>
8750

> <Formula>
C19H16O3

> <FW>
292.3285

> <DSSTox_CID>
21799

> <DSSTox_RID>
79847

> <DSSTox_GSID>
41799

> <DSSTox_FileID_Sort>
4529

> <TS_ChemName>
Coumatetralyl

> <TS_ChemName_Synonyms>


> <TS_CASRN>
5836-29-3

> <CASRN_ChemName_Relationship>
primary

> <TS_Description>
single chemical compound

> <ChemNote>
tautomers

> <STRUCTURE_Shown>
tested chemical

> <STRUCTURE_Formula>
C19H16O3

> <STRUCTURE_MW>
292.3285

> <STRUCTURE_ChemType>
defined organic

> <STRUCTURE_DefinedOrganicForm>
parent

> <STRUCTURE_IUPAC>
4-hydroxy-3-(1,2,3,4-tetrahydronaphthalen-1-yl)-2H-chromen-2-one

> <STRUCTURE_SMILES>
OC=1c4ccccc4OC(=O)C=1C3CCCc2ccccc23

> <STRUCTURE_SMILES_Desalt>
OC=1c4ccccc4OC(=O)C=1C3CCCc2ccccc23

> <Substance_modify_yyyymmdd>
20080825

$$$$
