584-79-2
ChemmineR-0915142007XD

 22 23  0  0  0  0  0  0  0  0  1 V2000
    4.1224   -1.0372    0.0000 C   0  0  0  0  0  0  0  0  0  0  0  0
    3.4397   -2.2056    0.0000 C   0  0  0  0  0  0  0  0  0  0  0  0
    4.8182   -2.2056    0.0000 C   0  0  0  0  0  0  0  0  0  0  0  0
    5.9211   -2.8227    0.0000 C   0  0  0  0  0  0  0  0  0  0  0  0
   10.1485   -3.8599    0.0000 C   0  0  0  0  0  0  0  0  0  0  0  0
    8.8356   -3.8599    0.0000 C   0  0  0  0  0  0  0  0  0  0  0  0
    8.4024   -2.5732    0.0000 C   0  0  0  0  0  0  0  0  0  0  0  0
   10.5161   -2.5470    0.0000 C   0  0  0  0  0  0  0  0  0  0  0  0
    7.0895   -2.1531    0.0000 O   0  0  0  0  0  0  0  0  0  0  0  0
    2.2975   -2.8489    0.0000 C   0  0  0  0  0  0  0  0  0  0  0  0
    9.4790   -1.7855    0.0000 C   0  0  0  0  0  0  0  0  0  0  0  0
    5.9211   -4.2143    0.0000 O   0  0  0  0  0  0  0  0  0  0  0  0
   11.8159   -2.1400    0.0000 O   0  0  0  0  0  0  0  0  0  0  0  0
    1.1553   -2.1925    0.0000 C   0  0  0  0  0  0  0  0  0  0  0  0
    3.5185   -0.0131    0.0000 C   0  0  0  0  0  0  0  0  0  0  0  0
    4.7132    0.0000    0.0000 C   0  0  0  0  0  0  0  0  0  0  0  0
   12.3673   -4.9364    0.0000 C   0  0  0  0  0  0  0  0  0  0  0  0
   13.1287   -5.9998    0.0000 C   0  0  0  0  0  0  0  0  0  0  0  0
   10.9625   -4.9364    0.0000 C   0  0  0  0  0  0  0  0  0  0  0  0
    7.9954   -4.9627    0.0000 C   0  0  0  0  0  0  0  0  0  0  0  0
    1.1553   -0.8796    0.0000 C   0  0  0  0  0  0  0  0  0  0  0  0
    0.0000   -2.8489    0.0000 C   0  0  0  0  0  0  0  0  0  0  0  0
  1  2  1  0  0  0  0
  1  3  1  0  0  0  0
  1 15  1  0  0  0  0
  1 16  1  0  0  0  0
  2 10  1  0  0  0  0
  2  3  1  0  0  0  0
  3  4  1  0  0  0  0
  4  9  1  0  0  0  0
  4 12  2  0  0  0  0
  5  6  2  0  0  0  0
  5 19  1  0  0  0  0
  5  8  1  0  0  0  0
  6  7  1  0  0  0  0
  6 20  1  0  0  0  0
  7  9  1  0  0  0  0
  7 11  1  0  0  0  0
  8 11  1  0  0  0  0
  8 13  2  0  0  0  0
 10 14  2  0  0  0  0
 14 21  1  0  0  0  0
 14 22  1  0  0  0  0
 17 19  1  0  0  0  0
 17 18  2  0  0  0  0
M  END
> <ID>
7000

> <Formula>
C19H26O3

> <FW>
302.4079

> <DSSTox_CID>
15180

> <DSSTox_RID>
79245

> <DSSTox_GSID>
35180

> <DSSTox_FileID_Sort>
3927

> <TS_ChemName>
Allethrin

> <TS_ChemName_Synonyms>
d-cis,trans-Allethrin; d-Allethrin; Bioallethrin

> <TS_CASRN>
584-79-2

> <CASRN_ChemName_Relationship>
primary

> <TS_Description>
single chemical compound

> <ChemNote>
mixture of stereoisomers (1RS,3RS;1RS,3SR); structure shown without stereochem; tautomers

> <STRUCTURE_Shown>
tested chemical

> <STRUCTURE_Formula>
C19H26O3

> <STRUCTURE_MW>
302.4079

> <STRUCTURE_ChemType>
defined organic

> <STRUCTURE_DefinedOrganicForm>
parent

> <STRUCTURE_IUPAC>
2-methyl-4-oxo-3-(prop-2-en-1-yl)cyclopent-2-en-1-yl 2,2-dimethyl-3-(2-methylprop-1-en-1-yl)cyclopropanecarboxylate

> <STRUCTURE_SMILES>
O=C2CC(OC(=O)C1C(/C=C(\C)C)C1(C)C)C(C)=C2CC=C

> <STRUCTURE_SMILES_Desalt>
O=C2CC(OC(=O)C1C(/C=C(\C)C)C1(C)C)C(C)=C2CC=C

> <Substance_modify_yyyymmdd>
20080429

$$$$
