584-13-4
ChemmineR-0915142007XD

  6  6  0  0  0  0  0  0  0  0  1 V2000
    2.3451    0.0000    0.0000 N   0  0  0  0  0  0  0  0  0  0  0  0
    3.1102   -1.0668    0.0000 N   0  0  0  0  0  0  0  0  0  0  0  0
    2.3451   -2.1678    0.0000 C   0  0  0  0  0  0  0  0  0  0  0  0
    1.0699   -1.7386    0.0000 N   0  0  0  0  0  0  0  0  0  0  0  0
    1.0699   -0.4137    0.0000 C   0  0  0  0  0  0  0  0  0  0  0  0
    0.0000   -2.5037    0.0000 N   0  0  0  0  0  0  0  0  0  0  0  0
  1  2  1  0  0  0  0
  1  5  2  0  0  0  0
  2  3  2  0  0  0  0
  3  4  1  0  0  0  0
  4  5  1  0  0  0  0
  4  6  1  0  0  0  0
M  END
> <ID>
6595

> <Formula>
C2H4N4

> <FW>
84.08

> <DSSTox_CID>
13058

> <DSSTox_RID>
79048

> <DSSTox_GSID>
33058

> <DSSTox_FileID_Sort>
3730

> <TS_ChemName>
4-Amino-1,2,4-triazole

> <TS_ChemName_Synonyms>


> <TS_CASRN>
584-13-4

> <CASRN_ChemName_Relationship>
primary

> <TS_Description>
single chemical compound

> <ChemNote>


> <STRUCTURE_Shown>
tested chemical

> <STRUCTURE_Formula>
C2H4N4

> <STRUCTURE_MW>
84.08

> <STRUCTURE_ChemType>
defined organic

> <STRUCTURE_DefinedOrganicForm>
parent

> <STRUCTURE_IUPAC>
4H-1,2,4-triazol-4-amine

> <STRUCTURE_SMILES>
Nn1cnnc1

> <STRUCTURE_SMILES_Desalt>
Nn1cnnc1

> <Substance_modify_yyyymmdd>
20080429

$$$$
