58409-70-4
ChemmineR-0915142007XD

 11  9  0  0  0  0  0  0  0  0  2 V2000
    5.8001   -1.2992    0.0000 O    0  5  0  0  0  0  0  0  0  0  0  0
    4.2167   -0.6902    0.0000 O    0  5  0  0  0  0  0  0  0  0  0  0
    5.3187   -3.1262    0.0000 O    0  0  0  0  0  0  0  0  0  0  0  0
    4.6285   -1.9546    0.0000 P    0  0  0  0  0  0  0  0  0  0  0  0
    2.3084   -1.9372    0.0000 C    0  0  0  0  0  0  0  0  0  0  0  0
    3.4626   -2.5810    0.0000 O    0  0  0  0  0  0  0  0  0  0  0  0
    1.0440    0.0000    0.0000 O    0  0  0  0  0  0  0  0  0  0  0  0
    0.0000   -2.0532    0.0000 O    0  0  0  0  0  0  0  0  0  0  0  0
    1.1716   -2.6622    0.0000 C    0  0  0  0  0  0  0  0  0  0  0  0
    2.1924   -0.6264    0.0000 C    0  0  0  0  0  0  0  0  0  0  0  0
    3.2016   -4.2457    0.0000 Ca   0  2  0  0  0  0  0  0  0  0  0  0
  1  4  1  0  0  0  0
  2  4  1  0  0  0  0
  3  4  2  0  0  0  0
  4  6  1  0  0  0  0
  5  6  1  0  0  0  0
  5  9  1  0  0  0  0
  5 10  1  0  0  0  0
  7 10  1  0  0  0  0
  8  9  1  0  0  0  0
M  END
> <ID>
13950

> <Formula>
C3H7CaO6P

> <FW>
210.1358 (170.0589+40.0769)

> <DSSTox_CID>
28888

> <DSSTox_RID>
83156

> <DSSTox_GSID>
48962

> <DSSTox_FileID_Sort>
7833

> <TS_ChemName>
Glycerol phosphate calcium salt

> <TS_ChemName_Synonyms>


> <TS_CASRN>
58409-70-4

> <CASRN_ChemName_Relationship>
primary

> <TS_Description>
single chemical compound

> <ChemNote>


> <STRUCTURE_Shown>
tested chemical

> <STRUCTURE_Formula>
C3H7CaO6P

> <STRUCTURE_MW>
210.1358

> <STRUCTURE_ChemType>
defined organic

> <STRUCTURE_DefinedOrganicForm>
salt

> <STRUCTURE_IUPAC>
calcium 1,3-dihydroxypropan-2-yl phosphate

> <STRUCTURE_SMILES>
[Ca+2].[O-]P([O-])(=O)OC(CO)CO

> <STRUCTURE_SMILES_Desalt>
O=P(O)(O)OC(CO)CO

> <Substance_modify_yyyymmdd>
20111204

$$$$
