5843-53-8
ChemmineR-0915142007XD

 19 19  0  0  0  0  0  0  0  0  1 V2000
    8.0713   -2.6283    0.0000 C    0  0  0  0  0  0  0  0  0  0  0  0
    6.8916   -1.9764    0.0000 C    0  0  0  0  0  0  0  0  0  0  0  0
    8.0713   -3.9632    0.0000 C    0  0  0  0  0  0  0  0  0  0  0  0
    5.7327   -2.6697    0.0000 N    0  0  0  0  0  0  0  0  0  0  0  0
    6.9123   -4.6255    0.0000 Cl   0  0  0  0  0  0  0  0  0  0  0  0
    3.4562   -2.6697    0.0000 C    0  0  0  0  0  0  0  0  0  0  0  0
    2.2869   -1.9868    0.0000 C    0  0  0  0  0  0  0  0  0  0  0  0
    4.5841   -1.9868    0.0000 C    0  0  0  0  0  0  0  0  0  0  0  0
    9.2199   -1.9764    0.0000 C    0  0  0  0  0  0  0  0  0  0  0  0
    9.1888   -4.6255    0.0000 C    0  0  0  0  0  0  0  0  0  0  0  0
    2.2869   -0.6519    0.0000 C    0  0  0  0  0  0  0  0  0  0  0  0
    1.1590   -2.6697    0.0000 C    0  0  0  0  0  0  0  0  0  0  0  0
    4.5841   -0.6519    0.0000 C    0  0  0  0  0  0  0  0  0  0  0  0
   10.3478   -2.6283    0.0000 C    0  0  0  0  0  0  0  0  0  0  0  0
   10.3478   -3.9632    0.0000 C    0  0  0  0  0  0  0  0  0  0  0  0
    0.0000   -1.9868    0.0000 C    0  0  0  0  0  0  0  0  0  0  0  0
    1.1590    0.0000    0.0000 C    0  0  0  0  0  0  0  0  0  0  0  0
    0.0000   -0.6519    0.0000 C    0  0  0  0  0  0  0  0  0  0  0  0
    2.3282   -3.9322    0.0000 Cl   0  0  0  0  0  0  0  0  0  0  0  0
  1  2  1  0  0  0  0
  1  3  1  0  0  0  0
  1  9  2  0  0  0  0
  2  4  1  0  0  0  0
  3  5  1  0  0  0  0
  3 10  2  0  0  0  0
  4  8  1  0  0  0  0
  6  8  1  0  0  0  0
  6  7  1  0  0  0  0
  7 11  1  0  0  0  0
  7 12  2  0  0  0  0
  8 13  1  0  0  0  0
  9 14  1  0  0  0  0
 10 15  1  0  0  0  0
 11 17  2  0  0  0  0
 12 16  1  0  0  0  0
 14 15  2  0  0  0  0
 16 18  2  0  0  0  0
 17 18  1  0  0  0  0
M  END
> <ID>
11445

> <Formula>
C16H19Cl2N

> <FW>
296.2348 (259.7738+36.4609)

> <DSSTox_CID>
26145

> <DSSTox_RID>
81377

> <DSSTox_GSID>
46145

> <DSSTox_FileID_Sort>
6058

> <TS_ChemName>
Clobenzorex hydrochloride

> <TS_ChemName_Synonyms>


> <TS_CASRN>
5843-53-8

> <CASRN_ChemName_Relationship>
primary

> <TS_Description>
single chemical compound

> <ChemNote>
parent [13364-32-4]

> <STRUCTURE_Shown>
tested chemical

> <STRUCTURE_Formula>
C16H19Cl2N

> <STRUCTURE_MW>
296.2348

> <STRUCTURE_ChemType>
defined organic

> <STRUCTURE_DefinedOrganicForm>
complex

> <STRUCTURE_IUPAC>
N-(2-chlorobenzyl)-1-phenylpropan-2-amine hydrochloride (1:1)

> <STRUCTURE_SMILES>
Cl.Clc2ccccc2CNC(C)Cc1ccccc1

> <STRUCTURE_SMILES_Desalt>
Clc2ccccc2CNC(C)Cc1ccccc1

> <Substance_modify_yyyymmdd>
20110818

$$$$
