58430-94-7
ChemmineR-0915142007XD

 13 12  0  0  0  0  0  0  0  0  1 V2000
    3.4758   -1.3184    0.0000 C   0  0  0  0  0  0  0  0  0  0  0  0
    4.6098   -1.9914    0.0000 C   0  0  0  0  0  0  0  0  0  0  0  0
    5.7715   -1.3184    0.0000 C   0  0  0  0  0  0  0  0  0  0  0  0
    6.9239   -1.9914    0.0000 C   0  0  0  0  0  0  0  0  0  0  0  0
    8.0856   -1.3184    0.0000 C   0  0  0  0  0  0  0  0  0  0  0  0
    9.2196   -1.9914    0.0000 C   0  0  0  0  0  0  0  0  0  0  0  0
    2.2957   -1.9914    0.0000 O   0  0  0  0  0  0  0  0  0  0  0  0
    5.7715    0.0000    0.0000 C   0  0  0  0  0  0  0  0  0  0  0  0
    8.0856    0.0000    0.0000 C   0  0  0  0  0  0  0  0  0  0  0  0
    8.0856   -2.6460    0.0000 C   0  0  0  0  0  0  0  0  0  0  0  0
    1.1617   -1.3184    0.0000 C   0  0  0  0  0  0  0  0  0  0  0  0
    0.0000   -1.9914    0.0000 O   0  0  0  0  0  0  0  0  0  0  0  0
    1.1340    0.0000    0.0000 C   0  0  0  0  0  0  0  0  0  0  0  0
  1  2  1  0  0  0  0
  1  7  1  0  0  0  0
  2  3  1  0  0  0  0
  3  4  1  0  0  0  0
  3  8  1  0  0  0  0
  4  5  1  0  0  0  0
  5  6  1  0  0  0  0
  5  9  1  0  0  0  0
  5 10  1  0  0  0  0
  7 11  1  0  0  0  0
 11 12  2  0  0  0  0
 11 13  1  0  0  0  0
M  END
> <ID>
8241

> <Formula>
C11H22O2

> <FW>
186.2912

> <DSSTox_CID>
21270

> <DSSTox_RID>
79673

> <DSSTox_GSID>
41270

> <DSSTox_FileID_Sort>
4355

> <TS_ChemName>
3,5,5-Trimethylhexyl acetate

> <TS_ChemName_Synonyms>
1-Hexanol, 3,5,5-trimethyl-, acetate

> <TS_CASRN>
58430-94-7

> <CASRN_ChemName_Relationship>
primary

> <TS_Description>
single chemical compound

> <ChemNote>


> <STRUCTURE_Shown>
tested chemical

> <STRUCTURE_Formula>
C11H22O2

> <STRUCTURE_MW>
186.2912

> <STRUCTURE_ChemType>
defined organic

> <STRUCTURE_DefinedOrganicForm>
parent

> <STRUCTURE_IUPAC>
3,5,5-trimethylhexyl acetate

> <STRUCTURE_SMILES>
O=C(C)OCCC(C)CC(C)(C)C

> <STRUCTURE_SMILES_Desalt>
O=C(C)OCCC(C)CC(C)(C)C

> <Substance_modify_yyyymmdd>
20080825

$$$$
