58473-74-8
ChemmineR-0915142007XD

 14 14  0  0  0  0  0  0  0  0  1 V2000
    6.9221   -1.3200    0.0000 C    0  0  0  0  0  0  0  0  0  0  0  0
    5.7788   -1.9956    0.0000 C    0  0  0  0  0  0  0  0  0  0  0  0
    4.6148   -1.3512    0.0000 C    0  0  0  0  0  0  0  0  0  0  0  0
    6.9221    0.0000    0.0000 O    0  0  0  0  0  0  0  0  0  0  0  0
    8.0758   -1.9956    0.0000 N    0  0  0  0  0  0  0  0  0  0  0  0
    3.4715   -2.0268    0.0000 C    0  0  0  0  0  0  0  0  0  0  0  0
    2.3178   -1.3720    0.0000 C    0  0  0  0  0  0  0  0  0  0  0  0
    1.1537   -2.0475    0.0000 C    0  0  0  0  0  0  0  0  0  0  0  0
    0.0000   -1.3824    0.0000 Br   0  0  0  0  0  0  0  0  0  0  0  0
    2.3178   -4.0223    0.0000 C    0  0  0  0  0  0  0  0  0  0  0  0
    3.4715   -3.3467    0.0000 C    0  0  0  0  0  0  0  0  0  0  0  0
    9.2399   -1.3200    0.0000 C    0  0  0  0  0  0  0  0  0  0  0  0
    1.1745   -3.3779    0.0000 C    0  0  0  0  0  0  0  0  0  0  0  0
   10.3936   -1.9748    0.0000 C    0  0  0  0  0  0  0  0  0  0  0  0
  1  2  1  0  0  0  0
  1  4  2  0  0  0  0
  1  5  1  0  0  0  0
  2  3  2  0  0  0  0
  3  6  1  0  0  0  0
  5 12  1  0  0  0  0
  6  7  1  0  0  0  0
  6 11  2  0  0  0  0
  7  8  2  0  0  0  0
  8  9  1  0  0  0  0
  8 13  1  0  0  0  0
 10 11  1  0  0  0  0
 10 13  2  0  0  0  0
 12 14  1  0  0  0  0
M  END
> <ID>
11661

> <Formula>
C11H12BrNO

> <FW>
254.1231

> <DSSTox_CID>
26417

> <DSSTox_RID>
81595

> <DSSTox_GSID>
46417

> <DSSTox_FileID_Sort>
6276

> <TS_ChemName>
Cinromide

> <TS_ChemName_Synonyms>


> <TS_CASRN>
58473-74-8

> <CASRN_ChemName_Relationship>
primary

> <TS_Description>
single chemical compound

> <ChemNote>
stereochem

> <STRUCTURE_Shown>
tested chemical

> <STRUCTURE_Formula>
C11H12BrNO

> <STRUCTURE_MW>
254.1231

> <STRUCTURE_ChemType>
defined organic

> <STRUCTURE_DefinedOrganicForm>
parent

> <STRUCTURE_IUPAC>
(2E)-3-(3-bromophenyl)-N-ethylprop-2-enamide

> <STRUCTURE_SMILES>
Brc1cc(/C=C/C(=O)NCC)ccc1

> <STRUCTURE_SMILES_Desalt>
Brc1cc(/C=C/C(=O)NCC)ccc1

> <Substance_modify_yyyymmdd>
20110813

$$$$
