58493-49-5
ChemmineR-0915142007XD

 30 30  0  0  0  0  0  0  0  0  1 V2000
    3.4688   -2.0119    0.0000 C   0  0  0  0  0  0  0  0  0  0  0  0
    2.3241   -2.6536    0.0000 C   0  0  0  0  0  0  0  0  0  0  0  0
    3.4688   -0.6764    0.0000 C   0  0  0  0  0  0  0  0  0  0  0  0
    4.6309   -2.6536    0.0000 C   0  0  0  0  0  0  0  0  0  0  0  0
    1.1447   -2.0119    0.0000 C   0  0  0  0  0  0  0  0  0  0  0  0
    2.3241    0.0000    0.0000 C   0  0  0  0  0  0  0  0  0  0  0  0
    5.7756   -2.0119    0.0000 N   0  0  0  0  0  0  0  0  0  0  0  0
    1.1447   -0.6764    0.0000 C   0  0  0  0  0  0  0  0  0  0  0  0
    0.0000   -2.6536    0.0000 O   0  0  0  0  0  0  0  0  0  0  0  0
    6.9376   -2.6536    0.0000 C   0  0  0  0  0  0  0  0  0  0  0  0
    0.0000    0.0000    0.0000 O   0  0  0  0  0  0  0  0  0  0  0  0
    0.0000   -3.9891    0.0000 C   0  0  0  0  0  0  0  0  0  0  0  0
    8.0823   -2.0119    0.0000 C   0  0  0  0  0  0  0  0  0  0  0  0
    6.9376   -3.9891    0.0000 O   0  0  0  0  0  0  0  0  0  0  0  0
    9.2617   -2.6536    0.0000 C   0  0  0  0  0  0  0  0  0  0  0  0
   10.4064   -2.0119    0.0000 C   0  0  0  0  0  0  0  0  0  0  0  0
   11.5685   -2.6536    0.0000 C   0  0  0  0  0  0  0  0  0  0  0  0
   12.7132   -2.0119    0.0000 C   0  0  0  0  0  0  0  0  0  0  0  0
   13.8752   -2.6536    0.0000 C   0  0  0  0  0  0  0  0  0  0  0  0
   15.0199   -2.0119    0.0000 C   0  0  0  0  0  0  0  0  0  0  0  0
   16.1993   -2.6536    0.0000 C   0  0  0  0  0  0  0  0  0  0  0  0
   17.3440   -2.0119    0.0000 C   0  0  0  0  0  0  0  0  0  0  0  0
   17.3440   -0.6764    0.0000 C   0  0  0  0  0  0  0  0  0  0  0  0
   16.1993    0.0000    0.0000 C   0  0  0  0  0  0  0  0  0  0  0  0
   15.0199   -0.6764    0.0000 C   0  0  0  0  0  0  0  0  0  0  0  0
   13.8752    0.0000    0.0000 C   0  0  0  0  0  0  0  0  0  0  0  0
   12.7132   -0.6764    0.0000 C   0  0  0  0  0  0  0  0  0  0  0  0
   11.5685    0.0000    0.0000 C   0  0  0  0  0  0  0  0  0  0  0  0
   10.4064   -0.6764    0.0000 C   0  0  0  0  0  0  0  0  0  0  0  0
    9.2617    0.0000    0.0000 C   0  0  0  0  0  0  0  0  0  0  0  0
  1  2  2  0  0  0  0
  1  3  1  0  0  0  0
  1  4  1  0  0  0  0
  2  5  1  0  0  0  0
  3  6  2  0  0  0  0
  4  7  1  0  0  0  0
  5  8  2  0  0  0  0
  5  9  1  0  0  0  0
  6  8  1  0  0  0  0
  7 10  1  0  0  0  0
  8 11  1  0  0  0  0
  9 12  1  0  0  0  0
 10 13  1  0  0  0  0
 10 14  2  0  0  0  0
 13 15  1  0  0  0  0
 15 16  1  0  0  0  0
 16 17  1  0  0  0  0
 17 18  1  0  0  0  0
 18 19  1  0  0  0  0
 19 20  1  0  0  0  0
 20 21  1  0  0  0  0
 21 22  2  0  0  0  0
 22 23  1  0  0  0  0
 23 24  1  0  0  0  0
 24 25  1  0  0  0  0
 25 26  1  0  0  0  0
 26 27  1  0  0  0  0
 27 28  1  0  0  0  0
 28 29  1  0  0  0  0
 29 30  1  0  0  0  0
M  END
> <ID>
11112

> <Formula>
C26H43NO3

> <FW>
417.6245

> <DSSTox_CID>
25669

> <DSSTox_RID>
81044

> <DSSTox_GSID>
45669

> <DSSTox_FileID_Sort>
5725

> <TS_ChemName>
Olvanil

> <TS_ChemName_Synonyms>


> <TS_CASRN>
58493-49-5

> <CASRN_ChemName_Relationship>
primary

> <TS_Description>
single chemical compound

> <ChemNote>


> <STRUCTURE_Shown>
tested chemical

> <STRUCTURE_Formula>
C26H43NO3

> <STRUCTURE_MW>
417.6245

> <STRUCTURE_ChemType>
defined organic

> <STRUCTURE_DefinedOrganicForm>
parent

> <STRUCTURE_IUPAC>
(9Z)-N-(4-hydroxy-3-methoxybenzyl)octadec-9-enamide

> <STRUCTURE_SMILES>
Oc1ccc(cc1OC)CNC(=O)CCCCCCC/C=C\CCCCCCCC

> <STRUCTURE_SMILES_Desalt>
Oc1ccc(cc1OC)CNC(=O)CCCCCCC/C=C\CCCCCCCC

> <Substance_modify_yyyymmdd>
20100107

$$$$
