585-34-2
ChemmineR-0915142007XD

 11 11  0  0  0  0  0  0  0  0  1 V2000
    1.1241   -1.3319    0.0000 C   0  0  0  0  0  0  0  0  0  0  0  0
    1.1241    0.0000    0.0000 O   0  0  0  0  0  0  0  0  0  0  0  0
    2.2962   -2.0085    0.0000 C   0  0  0  0  0  0  0  0  0  0  0  0
    0.0000   -2.0085    0.0000 C   0  0  0  0  0  0  0  0  0  0  0  0
    0.0000   -3.3404    0.0000 C   0  0  0  0  0  0  0  0  0  0  0  0
    2.2962   -3.3404    0.0000 C   0  0  0  0  0  0  0  0  0  0  0  0
    1.1241   -3.9957    0.0000 C   0  0  0  0  0  0  0  0  0  0  0  0
    3.4363   -3.9957    0.0000 C   0  0  0  0  0  0  0  0  0  0  0  0
    4.5871   -3.3031    0.0000 C   0  0  0  0  0  0  0  0  0  0  0  0
    3.4363   -5.3276    0.0000 C   0  0  0  0  0  0  0  0  0  0  0  0
    4.5871   -4.6723    0.0000 C   0  0  0  0  0  0  0  0  0  0  0  0
  1  2  1  0  0  0  0
  1  3  2  0  0  0  0
  1  4  1  0  0  0  0
  3  6  1  0  0  0  0
  4  5  2  0  0  0  0
  5  7  1  0  0  0  0
  6  7  2  0  0  0  0
  6  8  1  0  0  0  0
  8  9  1  0  0  0  0
  8 10  1  0  0  0  0
  8 11  1  0  0  0  0
M  END
> <ID>
10473

> <Formula>
C10H14O

> <FW>
150.2176

> <DSSTox_CID>
24825

> <DSSTox_RID>
80506

> <DSSTox_GSID>
44825

> <DSSTox_FileID_Sort>
5188

> <TS_ChemName>
3-tert-Butylphenol

> <TS_ChemName_Synonyms>
3-tert-Butylphenol (Phenol, 3-(1,1-dimethylethyl)-)

> <TS_CASRN>
585-34-2

> <CASRN_ChemName_Relationship>
primary

> <TS_Description>
single chemical compound

> <ChemNote>


> <STRUCTURE_Shown>
tested chemical

> <STRUCTURE_Formula>
C10H14O

> <STRUCTURE_MW>
150.2176

> <STRUCTURE_ChemType>
defined organic

> <STRUCTURE_DefinedOrganicForm>
parent

> <STRUCTURE_IUPAC>
3-tert-butylphenol

> <STRUCTURE_SMILES>
CC(C)(C)c1cc(O)ccc1

> <STRUCTURE_SMILES_Desalt>
CC(C)(C)c1cc(O)ccc1

> <Substance_modify_yyyymmdd>
20091116

$$$$
