585-86-4
ChemmineR-0915142007XD

 23 23  0  0  1  0  0  0  0  0  1 V2000
    3.4513   -4.6689    0.0000 O   0  0  0  0  0  0  0  0  0  0  0  0
    3.4513   -5.9832    0.0000 C   0  0  0  0  0  0  0  0  0  0  0  0
    2.3062   -3.9996    0.0000 C   0  0  0  0  0  0  0  0  0  0  0  0
    2.3062   -6.6606    0.0000 C   0  0  0  0  0  0  0  0  0  0  0  0
    1.1612   -4.6689    0.0000 C   0  0  0  0  0  0  0  0  0  0  0  0
    1.1612   -5.9832    0.0000 C   0  0  0  0  0  0  0  0  0  0  0  0
    2.3062   -2.6691    0.0000 O   0  0  0  0  0  0  0  0  0  0  0  0
    0.0000   -3.9996    0.0000 O   0  0  0  0  0  0  0  0  0  0  0  0
    0.0000   -6.6606    0.0000 O   0  0  0  0  0  0  0  0  0  0  0  0
    2.3062   -7.9911    0.0000 O   0  0  0  0  0  0  0  0  0  0  0  0
    4.6124   -6.6606    0.0000 C   0  0  0  0  0  0  0  0  0  0  0  0
    5.7575   -5.9994    0.0000 O   0  0  0  0  0  0  0  0  0  0  0  0
    3.4513   -0.6773    0.0000 C   0  0  0  0  0  0  0  0  0  0  0  0
    3.4513   -2.0079    0.0000 C   0  0  0  0  0  0  0  0  0  0  0  0
    2.3062    0.0000    0.0000 C   0  0  0  0  0  0  0  0  0  0  0  0
    1.1612   -0.6773    0.0000 O   0  0  0  0  0  0  0  0  0  0  0  0
    5.7575   -0.6773    0.0000 O   0  0  0  0  0  0  0  0  0  0  0  0
    5.7575   -2.0079    0.0000 C   0  0  0  0  0  0  0  0  0  0  0  0
    4.6124    0.0000    0.0000 O   0  0  0  0  0  0  0  0  0  0  0  0
    4.6124   -2.6691    0.0000 C   0  0  0  0  0  0  0  0  0  0  0  0
    8.0637   -2.0079    0.0000 O   0  0  0  0  0  0  0  0  0  0  0  0
    6.9186   -2.6691    0.0000 C   0  0  0  0  0  0  0  0  0  0  0  0
    4.6124   -3.9996    0.0000 O   0  0  0  0  0  0  0  0  0  0  0  0
  1  2  1  0  0  0  0
  1  3  1  0  0  0  0
  2  4  1  0  0  0  0
  2 11  1  6  0  0  0
  3  5  1  0  0  0  0
  3  7  1  6  0  0  0
  4  6  1  0  0  0  0
  4 10  1  6  0  0  0
  5  6  1  0  0  0  0
  5  8  1  1  0  0  0
  6  9  1  6  0  0  0
 14  7  1  6  0  0  0
 11 12  1  0  0  0  0
 13 15  1  0  0  0  0
 13 19  1  1  0  0  0
 13 14  1  0  0  0  0
 14 20  1  0  0  0  0
 15 16  1  0  0  0  0
 18 17  1  1  0  0  0
 18 20  1  0  0  0  0
 18 22  1  0  0  0  0
 20 23  1  1  0  0  0
 21 22  1  0  0  0  0
M  END
> <ID>
9935

> <Formula>
C12H24O11

> <FW>
344.3124

> <DSSTox_CID>
24247

> <DSSTox_RID>
80133

> <DSSTox_GSID>
44247

> <DSSTox_FileID_Sort>
4815

> <TS_ChemName>
Lactitol

> <TS_ChemName_Synonyms>


> <TS_CASRN>
585-86-4

> <CASRN_ChemName_Relationship>
primary

> <TS_Description>
single chemical compound

> <ChemNote>
stereochem

> <STRUCTURE_Shown>
tested chemical

> <STRUCTURE_Formula>
C12H24O11

> <STRUCTURE_MW>
344.3124

> <STRUCTURE_ChemType>
defined organic

> <STRUCTURE_DefinedOrganicForm>
parent

> <STRUCTURE_IUPAC>
4-O-beta-D-galactopyranosyl-D-glucitol

> <STRUCTURE_SMILES>
OC[C@H](O)[C@@H](O)[C@H](O[C@@H]1O[C@H](CO)[C@H](O)[C@H](O)[C@H]1O)[C@H](O)CO

> <STRUCTURE_SMILES_Desalt>
OC[C@H](O)[C@@H](O)[C@H](O[C@@H]1O[C@H](CO)[C@H](O)[C@H](O)[C@H]1O)[C@H](O)CO

> <Substance_modify_yyyymmdd>
20090302

$$$$
