5850-86-2
ChemmineR-0915142007XD

 25 26  0  0  0  0  0  0  0  0  2 V2000
    2.3030   -9.3021    0.0000 C    0  0  0  0  0  0  0  0  0  0  0  0
    2.3030  -10.6342    0.0000 C    0  0  0  0  0  0  0  0  0  0  0  0
    1.1515   -8.6361    0.0000 C    0  0  0  0  0  0  0  0  0  0  0  0
    1.1515  -11.2890    0.0000 C    0  0  0  0  0  0  0  0  0  0  0  0
    0.0000   -9.3021    0.0000 C    0  0  0  0  0  0  0  0  0  0  0  0
    0.0000  -10.6342    0.0000 C    0  0  0  0  0  0  0  0  0  0  0  0
    3.4544   -8.6361    0.0000 C    0  0  0  0  0  0  0  0  0  0  0  0
    4.6172   -9.3021    0.0000 C    0  0  0  0  0  0  0  0  0  0  0  0
    3.4544  -11.2890    0.0000 C    0  0  0  0  0  0  0  0  0  0  0  0
    4.6172  -10.6342    0.0000 C    0  0  0  0  0  0  0  0  0  0  0  0
    5.7687   -8.6361    0.0000 O    0  0  0  0  0  0  0  0  0  0  0  0
    3.4544   -7.3040    0.0000 N    0  0  0  0  0  0  0  0  0  0  0  0
    4.6172   -6.6492    0.0000 N    0  0  0  0  0  0  0  0  0  0  0  0
    4.6172   -5.3171    0.0000 C    0  0  0  0  0  0  0  0  0  0  0  0
    3.4544   -4.6398    0.0000 C    0  0  0  0  0  0  0  0  0  0  0  0
    5.7687   -4.6398    0.0000 C    0  0  0  0  0  0  0  0  0  0  0  0
    3.4544   -3.3190    0.0000 C    0  0  0  0  0  0  0  0  0  0  0  0
    5.7687   -3.3190    0.0000 C    0  0  0  0  0  0  0  0  0  0  0  0
    4.6172   -2.6529    0.0000 C    0  0  0  0  0  0  0  0  0  0  0  0
    6.8976   -5.3171    0.0000 C    0  0  0  0  0  0  0  0  0  0  0  0
    4.6172   -1.3321    0.0000 S    0  0  0  0  0  0  0  0  0  0  0  0
    5.9380   -1.3321    0.0000 O    0  0  0  0  0  0  0  0  0  0  0  0
    3.2851   -1.3321    0.0000 O    0  0  0  0  0  0  0  0  0  0  0  0
    4.6172    0.0000    0.0000 O    0  5  0  0  0  0  0  0  0  0  0  0
    5.8138    0.0000    0.0000 Na   0  3  0  0  0  0  0  0  0  0  0  0
  1  3  2  0  0  0  0
  1  7  1  0  0  0  0
  1  2  1  0  0  0  0
  2  4  2  0  0  0  0
  2  9  1  0  0  0  0
  3  5  1  0  0  0  0
  4  6  1  0  0  0  0
  5  6  2  0  0  0  0
  7  8  2  0  0  0  0
  7 12  1  0  0  0  0
  8 10  1  0  0  0  0
  8 11  1  0  0  0  0
  9 10  2  0  0  0  0
 12 13  2  0  0  0  0
 13 14  1  0  0  0  0
 14 15  1  0  0  0  0
 14 16  2  0  0  0  0
 15 17  2  0  0  0  0
 16 18  1  0  0  0  0
 16 20  1  0  0  0  0
 17 19  1  0  0  0  0
 18 19  2  0  0  0  0
 19 21  1  0  0  0  0
 21 22  2  0  0  0  0
 21 23  2  0  0  0  0
 21 24  1  0  0  0  0
M  END
> <ID>
8665

> <Formula>
C17H13N2NaO4S

> <FW>
364.3509 (341.3617+22.9892)

> <DSSTox_CID>
21709

> <DSSTox_RID>
79828

> <DSSTox_GSID>
41709

> <DSSTox_FileID_Sort>
4510

> <TS_ChemName>
C.I. Acid orange 8, monosodium salt

> <TS_ChemName_Synonyms>


> <TS_CASRN>
5850-86-2

> <CASRN_ChemName_Relationship>
primary

> <TS_Description>
single chemical compound

> <ChemNote>
C.I. 15575; parent [18524-46-4]

> <STRUCTURE_Shown>
tested chemical

> <STRUCTURE_Formula>
C17H13N2NaO4S

> <STRUCTURE_MW>
364.3509

> <STRUCTURE_ChemType>
defined organic

> <STRUCTURE_DefinedOrganicForm>
salt

> <STRUCTURE_IUPAC>
sodium 4-[(E)-(2-hydroxynaphthalen-1-yl)diazenyl]-3-methylbenzenesulfonate

> <STRUCTURE_SMILES>
[Na+].O=S([O-])(=O)c3cc(C)c(/N=N/c1c2ccccc2ccc1O)cc3

> <STRUCTURE_SMILES_Desalt>
OS(=O)(=O)c3cc(C)c(/N=N/c1c2ccccc2ccc1O)cc3

> <Substance_modify_yyyymmdd>
20080825

$$$$
