58546-54-6
ChemmineR-0915142007XD

 30 33  0  0  1  0  0  0  0  0  1 V2000
    0.0000   -3.7430    0.0000 C   0  0  0  0  0  0  0  0  0  0  0  0
    0.6454   -2.5722    0.0000 O   0  0  0  0  0  0  0  0  0  0  0  0
    0.9127   -4.7018    0.0000 O   0  0  0  0  0  0  0  0  0  0  0  0
    2.1204   -4.1395    0.0000 C   0  0  0  0  0  0  0  0  0  0  0  0
    1.9453   -2.8119    0.0000 C   0  0  0  0  0  0  0  0  0  0  0  0
    3.0055   -2.0098    0.0000 C   0  0  0  0  0  0  0  0  0  0  0  0
    3.3374   -4.6373    0.0000 C   0  0  0  0  0  0  0  0  0  0  0  0
    4.3976   -3.8352    0.0000 C   0  0  0  0  0  0  0  0  0  0  0  0
    4.2224   -2.5261    0.0000 C   0  0  0  0  0  0  0  0  0  0  0  0
    5.0245   -1.4659    0.0000 C   0  0  0  0  0  0  0  0  0  0  0  0
    6.3429   -1.2999    0.0000 C   0  0  0  0  0  0  0  0  0  0  0  0
    7.4031   -2.1020    0.0000 C   0  0  0  0  0  0  0  0  0  0  0  0
    7.5783   -3.4204    0.0000 C   0  0  0  0  0  0  0  0  0  0  0  0
    5.4486   -4.6558    0.0000 C   0  0  0  0  0  0  0  0  0  0  0  0
    6.7578   -4.4621    0.0000 C   0  0  0  0  0  0  0  0  0  0  0  0
    7.5783   -5.5224    0.0000 C   0  0  0  0  0  0  0  0  0  0  0  0
    7.0712   -6.7578    0.0000 C   0  0  0  0  0  0  0  0  0  0  0  0
    5.7529   -6.9237    0.0000 C   0  0  0  0  0  0  0  0  0  0  0  0
    4.9508   -5.8635    0.0000 C   0  0  0  0  0  0  0  0  0  0  0  0
    7.8733   -7.8088    0.0000 O   0  0  0  0  0  0  0  0  0  0  0  0
    9.1917   -7.6336    0.0000 C   0  0  0  0  0  0  0  0  0  0  0  0
    5.2366   -8.1591    0.0000 O   0  0  0  0  0  0  0  0  0  0  0  0
    6.0571   -9.2193    0.0000 C   0  0  0  0  0  0  0  0  0  0  0  0
    3.6324   -6.0386    0.0000 O   0  0  0  0  0  0  0  0  0  0  0  0
    2.8395   -5.8819    0.0000 O   0  0  0  0  0  0  0  0  0  0  0  0
    1.5304   -6.0571    0.0000 C   0  0  0  0  0  0  0  0  0  0  0  0
    3.1161   -7.2740    0.0000 C   0  0  0  0  0  0  0  0  0  0  0  0
    8.7215   -1.9268    0.0000 C   0  0  0  0  0  0  0  0  0  0  0  0
    8.2236   -1.0418    0.0000 O   0  0  0  0  0  0  0  0  0  0  0  0
    6.6932    0.0000    0.0000 C   0  0  0  0  0  0  0  0  0  0  0  0
  1  2  1  0  0  0  0
  1  3  1  0  0  0  0
  2  5  1  0  0  0  0
  3  4  1  0  0  0  0
  4  7  2  0  0  0  0
  4  5  1  0  0  0  0
  5  6  2  0  0  0  0
  6  9  1  0  0  0  0
  7  8  1  0  0  0  0
  7 25  1  0  0  0  0
  8 14  1  0  0  0  0
  8  9  2  0  0  0  0
  9 10  1  0  0  0  0
 10 11  1  0  0  0  0
 11 12  1  0  0  0  0
 11 30  1  1  0  0  0
 12 28  1  1  0  0  0
 12 13  1  0  0  0  0
 12 29  1  6  0  0  0
 13 15  1  0  0  0  0
 14 15  1  0  0  0  0
 14 19  2  0  0  0  0
 15 16  2  0  0  0  0
 16 17  1  0  0  0  0
 17 18  2  0  0  0  0
 17 20  1  0  0  0  0
 18 19  1  0  0  0  0
 18 22  1  0  0  0  0
 19 24  1  0  0  0  0
 20 21  1  0  0  0  0
 22 23  1  0  0  0  0
 24 27  1  0  0  0  0
 25 26  1  0  0  0  0
M  END
> <ID>
13939

> <Formula>
C23H28O7

> <FW>
416.4642

> <DSSTox_CID>
28876

> <DSSTox_RID>
83145

> <DSSTox_GSID>
48950

> <DSSTox_FileID_Sort>
7822

> <TS_ChemName>
Gomisin A

> <TS_ChemName_Synonyms>


> <TS_CASRN>
58546-54-6

> <CASRN_ChemName_Relationship>
primary

> <TS_Description>
single chemical compound

> <ChemNote>


> <STRUCTURE_Shown>
tested chemical

> <STRUCTURE_Formula>
C23H28O7

> <STRUCTURE_MW>
416.4642

> <STRUCTURE_ChemType>
defined organic

> <STRUCTURE_DefinedOrganicForm>
parent

> <STRUCTURE_IUPAC>
(6R,7R)-1,2,3,13-tetramethoxy-6,7-dimethyl-5,6,7,8-tetrahydrobenzo[3',4']cycloocta[1',2':4,5]benzo[1,2-d][1,3]dioxol-6-ol

> <STRUCTURE_SMILES>
C[C@@H]1Cc3cc4OCOc4c(OC)c3c2c(OC)c(OC)c(OC)cc2C[C@@]1(C)O

> <STRUCTURE_SMILES_Desalt>
C[C@@H]1Cc3cc4OCOc4c(OC)c3c2c(OC)c(OC)c(OC)cc2C[C@@]1(C)O

> <Substance_modify_yyyymmdd>
20111204

$$$$
