58543-16-1
ChemmineR-0915142007XD

 71 78  0  0  1  0  0  0  0  0  1 V2000
   18.0311   -5.7638    0.0000 O   0  0  0  0  0  0  0  0  0  0  0  0
   19.0751   -4.9156    0.0000 C   0  0  0  0  0  0  0  0  0  0  0  0
   20.3148   -5.3941    0.0000 C   0  0  0  0  0  0  0  0  0  0  0  0
   21.3589   -4.5676    0.0000 O   0  0  0  0  0  0  0  0  0  0  0  0
   20.5106   -6.7209    0.0000 C   0  0  0  0  0  0  0  0  0  0  0  0
   19.4883   -7.5474    0.0000 C   0  0  0  0  0  0  0  0  0  0  0  0
   19.6623   -8.8524    0.0000 O   0  0  0  0  0  0  0  0  0  0  0  0
   18.2268   -7.0689    0.0000 C   0  0  0  0  0  0  0  0  0  0  0  0
   17.1828   -7.8736    0.0000 O   0  0  0  0  0  0  0  0  0  0  0  0
   15.9648   -7.3951    0.0000 C   0  0  0  0  0  0  0  0  0  0  0  0
   14.9208   -8.2434    0.0000 C   0  0  0  0  0  0  0  0  0  0  0  0
   13.6810   -7.7649    0.0000 C   0  0  0  0  0  0  0  0  0  0  0  0
   13.4852   -6.4381    0.0000 O   0  0  0  0  0  0  0  0  0  0  0  0
   14.5293   -5.6116    0.0000 C   0  0  0  0  0  0  0  0  0  0  0  0
   15.7690   -6.0901    0.0000 C   0  0  0  0  0  0  0  0  0  0  0  0
   16.8130   -5.2636    0.0000 O   0  0  0  0  0  0  0  0  0  0  0  0
   16.5955   -3.9368    0.0000 C   0  0  0  0  0  0  0  0  0  0  0  0
   15.3558   -3.4583    0.0000 C   0  0  0  0  0  0  0  0  0  0  0  0
   15.1818   -2.1533    0.0000 C   0  0  0  0  0  0  0  0  0  0  0  0
   13.9202   -1.6530    0.0000 O   0  0  0  0  0  0  0  0  0  0  0  0
   16.2040   -1.3268    0.0000 C   0  0  0  0  0  0  0  0  0  0  0  0
   17.4438   -1.8053    0.0000 C   0  0  0  0  0  0  0  0  0  0  0  0
   17.6396   -3.1103    0.0000 O   0  0  0  0  0  0  0  0  0  0  0  0
   18.4878   -0.9788    0.0000 C   0  0  0  0  0  0  0  0  0  0  0  0
   19.7276   -1.4573    0.0000 O   0  0  0  0  0  0  0  0  0  0  0  0
   16.0083    0.0000    0.0000 O   0  0  0  0  0  0  0  0  0  0  0  0
   14.8555   -3.8933    0.0000 O   0  0  0  0  0  0  0  0  0  0  0  0
   14.3335   -4.3066    0.0000 O   0  0  0  0  0  0  0  0  0  0  0  0
   13.0937   -3.8063    0.0000 C   0  0  0  0  0  0  0  0  0  0  0  0
   13.2895   -5.1113    0.0000 H   0  0  0  0  0  0  0  0  0  0  0  0
   11.7887   -4.1108    0.0000 C   0  0  0  0  0  0  0  0  0  0  0  0
   10.7447   -3.2843    0.0000 C   0  0  0  0  0  0  0  0  0  0  0  0
   10.7664   -4.3936    0.0000 H   0  0  0  0  0  0  0  0  0  0  0  0
   10.7447   -1.9358    0.0000 C   0  0  0  0  0  0  0  0  0  0  0  0
   12.0280   -3.1103    0.0000 C   0  0  0  0  0  0  0  0  0  0  0  0
   13.6592   -2.6100    0.0000 C   0  0  0  0  0  0  0  0  0  0  0  0
   14.9860   -2.6100    0.0000 H   0  0  0  0  0  0  0  0  0  0  0  0
   13.0937   -1.4138    0.0000 C   0  0  0  0  0  0  0  0  0  0  0  0
   11.7887   -1.1093    0.0000 C   0  0  0  0  0  0  0  0  0  0  0  0
   13.9202   -0.3698    0.0000 C   0  0  0  0  0  0  0  0  0  0  0  0
    9.6137   -1.2833    0.0000 C   0  0  0  0  0  0  0  0  0  0  0  0
    8.4609   -1.9358    0.0000 C   0  0  0  0  0  0  0  0  0  0  0  0
    8.4609   -3.2843    0.0000 C   0  0  0  0  0  0  0  0  0  0  0  0
    8.4609   -4.6546    0.0000 H   0  0  0  0  0  0  0  0  0  0  0  0
    9.6137   -3.9368    0.0000 C   0  0  0  0  0  0  0  0  0  0  0  0
    9.6137   -5.2853    0.0000 C   0  0  0  0  0  0  0  0  0  0  0  0
    8.4609   -5.9379    0.0000 C   0  0  0  0  0  0  0  0  0  0  0  0
    7.3081   -5.2853    0.0000 C   0  0  0  0  0  0  0  0  0  0  0  0
    7.3081   -3.9368    0.0000 C   0  0  0  0  0  0  0  0  0  0  0  0
    7.3734   -2.4795    0.0000 C   0  0  0  0  0  0  0  0  0  0  0  0
    5.9596   -3.9368    0.0000 C   0  0  0  0  0  0  0  0  0  0  0  0
    5.3071   -2.7840    0.0000 O   0  0  0  0  0  0  0  0  0  0  0  0
    5.3071   -5.0896    0.0000 O   0  0  0  0  0  0  0  0  0  0  0  0
    3.9803   -5.0896    0.0000 C   0  0  0  0  0  0  0  0  0  0  0  0
    3.3061   -6.2424    0.0000 O   0  0  0  0  0  0  0  0  0  0  0  0
    1.9793   -6.2424    0.0000 C   0  0  0  0  0  0  0  0  0  0  0  0
    1.3268   -5.0896    0.0000 C   0  0  0  0  0  0  0  0  0  0  0  0
    1.9793   -3.9368    0.0000 C   0  0  0  0  0  0  0  0  0  0  0  0
    3.3061   -3.9368    0.0000 C   0  0  0  0  0  0  0  0  0  0  0  0
    3.9803   -2.7840    0.0000 O   0  0  0  0  0  0  0  0  0  0  0  0
    1.3268   -2.7840    0.0000 O   0  0  0  0  0  0  0  0  0  0  0  0
    0.0000   -5.0896    0.0000 O   0  0  0  0  0  0  0  0  0  0  0  0
    1.3268   -7.3951    0.0000 C   0  0  0  0  0  0  0  0  0  0  0  0
    1.9793   -8.5479    0.0000 O   0  0  0  0  0  0  0  0  0  0  0  0
    9.6137   -2.6100    0.0000 C   0  0  0  0  0  0  0  0  0  0  0  0
   12.6370   -8.5696    0.0000 C   0  0  0  0  0  0  0  0  0  0  0  0
   11.4189   -8.0911    0.0000 O   0  0  0  0  0  0  0  0  0  0  0  0
   15.1165   -9.5484    0.0000 O   0  0  0  0  0  0  0  0  0  0  0  0
   21.7504   -7.2211    0.0000 O   0  0  0  0  0  0  0  0  0  0  0  0
   18.8793   -3.6106    0.0000 C   0  0  0  0  0  0  0  0  0  0  0  0
   19.9233   -2.7840    0.0000 O   0  0  0  0  0  0  0  0  0  0  0  0
  1  2  1  0  0  0  0
  1  8  1  0  0  0  0
  2  3  1  0  0  0  0
  2 70  1  6  0  0  0
  3  4  1  1  0  0  0
  3  5  1  0  0  0  0
  5  6  1  0  0  0  0
  5 69  1  6  0  0  0
  6  7  1  1  0  0  0
  6  8  1  0  0  0  0
  8  9  1  6  0  0  0
 10  9  1  1  0  0  0
 10 11  1  0  0  0  0
 10 15  1  0  0  0  0
 11 12  1  0  0  0  0
 11 68  1  6  0  0  0
 12 13  1  0  0  0  0
 12 66  1  1  0  0  0
 13 14  1  0  0  0  0
 14 15  1  0  0  0  0
 14 28  1  1  0  0  0
 15 16  1  6  0  0  0
 16 17  1  1  0  0  0
 17 18  1  0  0  0  0
 17 23  1  0  0  0  0
 18 19  1  0  0  0  0
 18 27  1  6  0  0  0
 19 20  1  1  0  0  0
 19 21  1  0  0  0  0
 21 22  1  0  0  0  0
 21 26  1  6  0  0  0
 22 23  1  0  0  0  0
 22 24  1  1  0  0  0
 24 25  1  0  0  0  0
 28 29  1  0  0  0  0
 29 30  1  1  0  0  0
 29 31  1  0  0  0  0
 29 36  1  0  0  0  0
 31 32  1  0  0  0  0
 32 33  1  6  0  0  0
 32 34  1  0  0  0  0
 32 45  1  0  0  0  0
 34 35  1  6  0  0  0
 34 39  1  0  0  0  0
 34 41  1  0  0  0  0
 36 35  1  1  0  0  0
 36 37  1  0  0  0  0
 36 38  1  0  0  0  0
 38 39  1  0  0  0  0
 38 40  2  0  0  0  0
 41 42  1  0  0  0  0
 42 43  1  0  0  0  0
 43 44  1  6  0  0  0
 43 45  1  0  0  0  0
 43 49  1  0  0  0  0
 45 46  1  0  0  0  0
 45 65  1  6  0  0  0
 46 47  1  0  0  0  0
 47 48  1  0  0  0  0
 48 49  1  0  0  0  0
 49 50  1  6  0  0  0
 49 51  1  0  0  0  0
 51 52  2  0  0  0  0
 51 53  1  0  0  0  0
 54 53  1  6  0  0  0
 54 55  1  0  0  0  0
 54 59  1  0  0  0  0
 55 56  1  0  0  0  0
 56 57  1  0  0  0  0
 56 63  1  6  0  0  0
 57 58  1  0  0  0  0
 57 62  1  1  0  0  0
 58 59  1  0  0  0  0
 58 61  1  6  0  0  0
 59 60  1  1  0  0  0
 63 64  1  0  0  0  0
 66 67  1  0  0  0  0
 70 71  1  0  0  0  0
M  END
> <ID>
12973

> <Formula>
C44H70O23

> <FW>
967.0128

> <DSSTox_CID>
27874

> <DSSTox_RID>
82627

> <DSSTox_GSID>
47898

> <DSSTox_FileID_Sort>
7304

> <TS_ChemName>
Rebaudioside A

> <TS_ChemName_Synonyms>


> <TS_CASRN>
58543-16-1

> <CASRN_ChemName_Relationship>
primary

> <TS_Description>
single chemical compound

> <ChemNote>
stereochem

> <STRUCTURE_Shown>
tested chemical

> <STRUCTURE_Formula>
C44H70O23

> <STRUCTURE_MW>
967.0128

> <STRUCTURE_ChemType>
defined organic

> <STRUCTURE_DefinedOrganicForm>
parent

> <STRUCTURE_IUPAC>
1-O-[(5beta,9beta,12beta,13alpha)-12-{[beta-D-glucopyranosyl-(1->2)-[beta-D-glucopyranosyl-(1->3)]-beta-D-glucopyranosyl]oxy}-19-oxokaur-16-en-19-yl]-beta-D-glucopyranose

> <STRUCTURE_SMILES>
O[C@@H]8[C@@H](O)[C@H](O)[C@@H](CO)O[C@H]8OC(=O)[C@]7(C)CCC[C@@]5(C)[C@@H]7CC[C@]16CC(=C)[C@@H](C1)[C@H](O[C@@H]4O[C@H](CO)[C@@H](O)[C@H](O[C@@H]2O[C@H](CO)[C@@H](O)[C@H](O)[C@H]2O)[C@H]4OC3O[C@H](CO)[C@@H](O)[C@H](O)[C@H]3O)C[C@@H]56

> <STRUCTURE_SMILES_Desalt>
O[C@@H]8[C@@H](O)[C@H](O)[C@@H](CO)O[C@H]8OC(=O)[C@]7(C)CCC[C@@]5(C)[C@@H]7CC[C@]16CC(=C)[C@@H](C1)[C@H](O[C@@H]4O[C@H](CO)[C@@H](O)[C@H](O[C@@H]2O[C@H](CO)[C@@H](O)[C@H](O)[C@H]2O)[C@H]4OC3O[C@H](CO)[C@@H](O)[C@H](O)[C@H]3O)C[C@@H]56

> <Substance_modify_yyyymmdd>
20110419

$$$$
