5856-63-3
ChemmineR-0915142007XD

  6  5  0  0  1  0  0  0  0  0  1 V2000
    1.1683    0.0000    0.0000 C   0  0  0  0  0  0  0  0  0  0  0  0
    2.3228   -0.6604    0.0000 C   0  0  0  0  0  0  0  0  0  0  0  0
    3.4773    0.0000    0.0000 C   0  0  0  0  0  0  0  0  0  0  0  0
    4.6179   -0.6604    0.0000 C   0  0  0  0  0  0  0  0  0  0  0  0
    0.0000   -0.6604    0.0000 O   0  0  0  0  0  0  0  0  0  0  0  0
    2.3228   -1.9903    0.0000 N   0  0  0  0  0  0  0  0  0  0  0  0
  1  2  1  0  0  0  0
  1  5  1  0  0  0  0
  2  3  1  0  0  0  0
  2  6  1  1  0  0  0
  3  4  1  0  0  0  0
M  END
> <ID>
5913

> <Formula>
C4H11NO

> <FW>
89.1362

> <DSSTox_CID>
9275

> <DSSTox_RID>
78742

> <DSSTox_GSID>
29275

> <DSSTox_FileID_Sort>
3424

> <TS_ChemName>
(2R)-2-Aminobutan-1-ol

> <TS_ChemName_Synonyms>


> <TS_CASRN>
5856-63-3

> <CASRN_ChemName_Relationship>
primary

> <TS_Description>
single chemical compound

> <ChemNote>
stereochem

> <STRUCTURE_Shown>
tested chemical

> <STRUCTURE_Formula>
C4H11NO

> <STRUCTURE_MW>
89.1362

> <STRUCTURE_ChemType>
defined organic

> <STRUCTURE_DefinedOrganicForm>
parent

> <STRUCTURE_IUPAC>
(2R)-2-aminobutan-1-ol

> <STRUCTURE_SMILES>
CC[C@@H](N)CO

> <STRUCTURE_SMILES_Desalt>
CC[C@@H](N)CO

> <Substance_modify_yyyymmdd>
20080429

$$$$
