58594-72-2
ChemmineR-0915142007XD

 24 24  0  0  0  0  0  0  0  0  1 V2000
    5.8528   -2.0185    0.0000 C    0  0  0  0  0  0  0  0  0  0  0  0
    5.8528   -0.6664    0.0000 C    0  0  0  0  0  0  0  0  0  0  0  0
    3.5156   -4.7228    0.0000 N    0  0  0  0  0  0  0  0  0  0  0  0
    2.0475   -6.3454    0.0000 N    0  0  0  0  0  0  0  0  0  0  0  0
    4.6842   -2.7043    0.0000 C    0  0  0  0  0  0  0  0  0  0  0  0
    3.3610   -6.0653    0.0000 C    0  0  0  0  0  0  0  0  0  0  0  0
    7.0215    0.0000    0.0000 C    0  0  0  0  0  0  0  0  0  0  0  0
    7.0215   -2.7043    0.0000 C    0  0  0  0  0  0  0  0  0  0  0  0
    4.6842   -4.0564    0.0000 C    0  0  0  0  0  0  0  0  0  0  0  0
    1.3811   -5.1768    0.0000 C    0  0  0  0  0  0  0  0  0  0  0  0
    2.2793   -4.1820    0.0000 C    0  0  0  0  0  0  0  0  0  0  0  0
    8.1901   -0.6664    0.0000 C    0  0  0  0  0  0  0  0  0  0  0  0
    1.1686   -2.0185    0.0000 C    0  0  0  0  0  0  0  0  0  0  0  0
    4.6842    0.0000    0.0000 Cl   0  0  0  0  0  0  0  0  0  0  0  0
    0.0000   -2.7043    0.0000 C    0  0  0  0  0  0  0  0  0  0  0  0
    8.1901   -2.0185    0.0000 C    0  0  0  0  0  0  0  0  0  0  0  0
    3.5156   -2.0185    0.0000 O    0  0  0  0  0  0  0  0  0  0  0  0
    9.3684    0.0000    0.0000 Cl   0  0  0  0  0  0  0  0  0  0  0  0
    2.3373   -2.7043    0.0000 C    0  0  0  0  0  0  0  0  0  0  0  0
    8.4412   -4.9450    0.0000 S    0  0  0  0  0  0  0  0  0  0  0  0
    8.4412   -3.7087    0.0000 O    0  0  0  0  0  0  0  0  0  0  0  0
    9.6581   -4.9450    0.0000 O    0  0  0  0  0  0  0  0  0  0  0  0
    7.2050   -4.9450    0.0000 O    0  0  0  0  0  0  0  0  0  0  0  0
    8.4412   -6.1619    0.0000 O    0  0  0  0  0  0  0  0  0  0  0  0
  1  2  2  0  0  0  0
  1  5  1  0  0  0  0
  1  8  1  0  0  0  0
  2  7  1  0  0  0  0
  2 14  1  0  0  0  0
  3  9  1  0  0  0  0
  3  6  1  0  0  0  0
  3 11  1  0  0  0  0
  4  6  2  0  0  0  0
  4 10  1  0  0  0  0
  5  9  1  0  0  0  0
  5 17  1  0  0  0  0
  7 12  2  0  0  0  0
  8 16  2  0  0  0  0
 10 11  2  0  0  0  0
 12 16  1  0  0  0  0
 12 18  1  0  0  0  0
 13 19  1  0  0  0  0
 13 15  2  0  0  0  0
 17 19  1  0  0  0  0
 20 21  2  0  0  0  0
 20 22  1  0  0  0  0
 20 23  2  0  0  0  0
 20 24  1  0  0  0  0
M  END
> <ID>
6859

> <Formula>
C14H16Cl2N2O5S

> <FW>
395.2582 (297.1798+98.0785)

> <DSSTox_CID>
14662

> <DSSTox_RID>
79184

> <DSSTox_GSID>
34662

> <DSSTox_FileID_Sort>
3866

> <TS_ChemName>
Imazalil sulfate

> <TS_ChemName_Synonyms>


> <TS_CASRN>
58594-72-2

> <CASRN_ChemName_Relationship>
primary

> <TS_Description>
single chemical compound

> <ChemNote>
parent [35554-44-0]

> <STRUCTURE_Shown>
tested chemical

> <STRUCTURE_Formula>
C14H16Cl2N2O5S

> <STRUCTURE_MW>
395.2582

> <STRUCTURE_ChemType>
defined organic

> <STRUCTURE_DefinedOrganicForm>
complex

> <STRUCTURE_IUPAC>
1-[2-(2,4-dichlorophenyl)-2-(prop-2-en-1-yloxy)ethyl]-1H-imidazole sulfate (1:1)

> <STRUCTURE_SMILES>
O=S(=O)(O)O.Clc2ccc(C(OCC=C)Cn1ccnc1)c(Cl)c2

> <STRUCTURE_SMILES_Desalt>
Clc2ccc(C(OCC=C)Cn1ccnc1)c(Cl)c2

> <Substance_modify_yyyymmdd>
20080429

$$$$
