5868-05-3
ChemmineR-0915142007XD

 41 44  0  0  0  0  0  0  0  0  1 V2000
    5.4951   -4.1247    0.0000 C   0  0  0  0  0  0  0  0  0  0  0  0
    6.6484   -3.4599    0.0000 C   0  0  0  0  0  0  0  0  0  0  0  0
    7.8017   -2.7950    0.0000 C   0  0  0  0  0  0  0  0  0  0  0  0
    8.9550   -3.4599    0.0000 O   0  0  0  0  0  0  0  0  0  0  0  0
   10.1083   -2.7950    0.0000 C   0  0  0  0  0  0  0  0  0  0  0  0
   10.1083   -1.4654    0.0000 O   0  0  0  0  0  0  0  0  0  0  0  0
   11.2616   -3.4599    0.0000 C   0  0  0  0  0  0  0  0  0  0  0  0
   12.4149   -2.7950    0.0000 C   0  0  0  0  0  0  0  0  0  0  0  0
   13.5682   -3.4599    0.0000 C   0  0  0  0  0  0  0  0  0  0  0  0
   13.5682   -4.7896    0.0000 C   0  0  0  0  0  0  0  0  0  0  0  0
   12.4149   -5.4544    0.0000 N   0  0  0  0  0  0  0  0  0  0  0  0
   11.2616   -4.7896    0.0000 C   0  0  0  0  0  0  0  0  0  0  0  0
    7.3133   -4.6132    0.0000 C   0  0  0  0  0  0  0  0  0  0  0  0
    6.6484   -5.7665    0.0000 O   0  0  0  0  0  0  0  0  0  0  0  0
    7.3133   -6.9198    0.0000 C   0  0  0  0  0  0  0  0  0  0  0  0
    6.6484   -8.0595    0.0000 O   0  0  0  0  0  0  0  0  0  0  0  0
    8.6429   -6.9198    0.0000 C   0  0  0  0  0  0  0  0  0  0  0  0
    9.3214   -5.7665    0.0000 C   0  0  0  0  0  0  0  0  0  0  0  0
   10.6510   -5.7665    0.0000 C   0  0  0  0  0  0  0  0  0  0  0  0
   11.3159   -6.9198    0.0000 C   0  0  0  0  0  0  0  0  0  0  0  0
   10.6510   -8.0595    0.0000 N   0  0  0  0  0  0  0  0  0  0  0  0
    9.3214   -8.0595    0.0000 C   0  0  0  0  0  0  0  0  0  0  0  0
    5.9836   -2.3066    0.0000 C   0  0  0  0  0  0  0  0  0  0  0  0
    4.6539   -2.3066    0.0000 O   0  0  0  0  0  0  0  0  0  0  0  0
    3.9890   -1.1533    0.0000 C   0  0  0  0  0  0  0  0  0  0  0  0
    4.6539    0.0000    0.0000 O   0  0  0  0  0  0  0  0  0  0  0  0
    2.6594   -1.1533    0.0000 C   0  0  0  0  0  0  0  0  0  0  0  0
    1.9945   -2.3066    0.0000 C   0  0  0  0  0  0  0  0  0  0  0  0
    0.6648   -2.3066    0.0000 C   0  0  0  0  0  0  0  0  0  0  0  0
    0.0000   -1.1533    0.0000 C   0  0  0  0  0  0  0  0  0  0  0  0
    0.6648    0.0000    0.0000 N   0  0  0  0  0  0  0  0  0  0  0  0
    1.9945    0.0000    0.0000 C   0  0  0  0  0  0  0  0  0  0  0  0
    4.3554   -3.4599    0.0000 O   0  0  0  0  0  0  0  0  0  0  0  0
    3.2021   -4.1247    0.0000 C   0  0  0  0  0  0  0  0  0  0  0  0
    2.0488   -3.4599    0.0000 O   0  0  0  0  0  0  0  0  0  0  0  0
    3.2021   -5.4544    0.0000 C   0  0  0  0  0  0  0  0  0  0  0  0
    4.3554   -6.1193    0.0000 C   0  0  0  0  0  0  0  0  0  0  0  0
    4.3554   -7.4489    0.0000 C   0  0  0  0  0  0  0  0  0  0  0  0
    3.2021   -8.1138    0.0000 C   0  0  0  0  0  0  0  0  0  0  0  0
    2.0488   -7.4489    0.0000 N   0  0  0  0  0  0  0  0  0  0  0  0
    2.0488   -6.1193    0.0000 C   0  0  0  0  0  0  0  0  0  0  0  0
  1  2  1  0  0  0  0
  1 33  1  0  0  0  0
  2  3  1  0  0  0  0
  2 13  1  0  0  0  0
  2 23  1  0  0  0  0
  3  4  1  0  0  0  0
  4  5  1  0  0  0  0
  5  6  2  0  0  0  0
  5  7  1  0  0  0  0
  7  8  2  0  0  0  0
  7 12  1  0  0  0  0
  8  9  1  0  0  0  0
  9 10  2  0  0  0  0
 10 11  1  0  0  0  0
 11 12  2  0  0  0  0
 13 14  1  0  0  0  0
 14 15  1  0  0  0  0
 15 16  2  0  0  0  0
 15 17  1  0  0  0  0
 17 18  2  0  0  0  0
 17 22  1  0  0  0  0
 18 19  1  0  0  0  0
 19 20  2  0  0  0  0
 20 21  1  0  0  0  0
 21 22  2  0  0  0  0
 23 24  1  0  0  0  0
 24 25  1  0  0  0  0
 25 26  2  0  0  0  0
 25 27  1  0  0  0  0
 27 28  2  0  0  0  0
 27 32  1  0  0  0  0
 28 29  1  0  0  0  0
 29 30  2  0  0  0  0
 30 31  1  0  0  0  0
 31 32  2  0  0  0  0
 33 34  1  0  0  0  0
 34 35  2  0  0  0  0
 34 36  1  0  0  0  0
 36 37  2  0  0  0  0
 36 41  1  0  0  0  0
 37 38  1  0  0  0  0
 38 39  2  0  0  0  0
 39 40  1  0  0  0  0
 40 41  2  0  0  0  0
M  END
> <ID>
3018

> <Formula>
C29H24N4O8

> <FW>
556.5229

> <DSSTox_CID>
3364

> <DSSTox_RID>
76993

> <DSSTox_GSID>
23364

> <DSSTox_FileID_Sort>
1677

> <TS_ChemName>
Niceritrol

> <TS_ChemName_Synonyms>


> <TS_CASRN>
5868-05-3

> <CASRN_ChemName_Relationship>
primary

> <TS_Description>
single chemical compound

> <ChemNote>


> <STRUCTURE_Shown>
tested chemical

> <STRUCTURE_Formula>
C29H24N4O8

> <STRUCTURE_MW>
556.5229

> <STRUCTURE_ChemType>
defined organic

> <STRUCTURE_DefinedOrganicForm>
parent

> <STRUCTURE_IUPAC>
3-[(pyridin-3-ylcarbonyl)oxy]-2,2-bis{[(pyridin-3-ylcarbonyl)oxy]methyl}propyl pyridine-3-carboxylate

> <STRUCTURE_SMILES>
O=C(OCC(COC(=O)c1cccnc1)(COC(=O)c2cccnc2)COC(=O)c3cccnc3)c4cccnc4

> <STRUCTURE_SMILES_Desalt>
O=C(OCC(COC(=O)c1cccnc1)(COC(=O)c2cccnc2)COC(=O)c3cccnc3)c4cccnc4

> <Substance_modify_yyyymmdd>
20080429

$$$$
