587-90-6
ChemmineR-0915142007XD

 22 23  0  0  0  0  0  0  0  0  2 V2000
    4.6045   -0.6893    0.0000 C   0  0  0  0  0  0  0  0  0  0  0  0
    5.7350    0.0000    0.0000 N   0  0  0  0  0  0  0  0  0  0  0  0
    4.6045   -2.0403    0.0000 C   0  0  0  0  0  0  0  0  0  0  0  0
    3.4465   -0.0276    0.0000 C   0  0  0  0  0  0  0  0  0  0  0  0
    6.8930   -0.6755    0.0000 C   0  0  0  0  0  0  0  0  0  0  0  0
    3.4465   -2.6883    0.0000 C   0  0  0  0  0  0  0  0  0  0  0  0
    2.2885   -0.6893    0.0000 C   0  0  0  0  0  0  0  0  0  0  0  0
    8.0510    0.0000    0.0000 N   0  0  0  0  0  0  0  0  0  0  0  0
    6.8930   -2.0128    0.0000 O   0  0  0  0  0  0  0  0  0  0  0  0
    2.2885   -2.0403    0.0000 C   0  0  0  0  0  0  0  0  0  0  0  0
    9.1953   -0.6755    0.0000 C   0  0  0  0  0  0  0  0  0  0  0  0
    1.1167   -2.6883    0.0000 N   0  3  0  0  0  0  0  0  0  0  0  0
    9.1953   -1.9990    0.0000 C   0  0  0  0  0  0  0  0  0  0  0  0
   10.3120    0.0000    0.0000 C   0  0  0  0  0  0  0  0  0  0  0  0
    1.1167   -4.0117    0.0000 O   0  0  0  0  0  0  0  0  0  0  0  0
    0.0000   -2.0403    0.0000 O   0  5  0  0  0  0  0  0  0  0  0  0
   10.3120   -2.6607    0.0000 C   0  0  0  0  0  0  0  0  0  0  0  0
   11.4838   -0.6479    0.0000 C   0  0  0  0  0  0  0  0  0  0  0  0
   11.4838   -1.9990    0.0000 C   0  0  0  0  0  0  0  0  0  0  0  0
   12.6418   -2.6607    0.0000 N   0  3  0  0  0  0  0  0  0  0  0  0
   12.6418   -3.9704    0.0000 O   0  0  0  0  0  0  0  0  0  0  0  0
   13.7860   -1.9714    0.0000 O   0  5  0  0  0  0  0  0  0  0  0  0
  1  2  1  0  0  0  0
  1  3  1  0  0  0  0
  1  4  2  0  0  0  0
  2  5  1  0  0  0  0
  3  6  2  0  0  0  0
  4  7  1  0  0  0  0
  5  8  1  0  0  0  0
  5  9  2  0  0  0  0
  6 10  1  0  0  0  0
  7 10  2  0  0  0  0
  8 11  1  0  0  0  0
 10 12  1  0  0  0  0
 11 13  2  0  0  0  0
 11 14  1  0  0  0  0
 12 15  2  0  0  0  0
 12 16  1  0  0  0  0
 13 17  1  0  0  0  0
 14 18  2  0  0  0  0
 17 19  2  0  0  0  0
 18 19  1  0  0  0  0
 19 20  1  0  0  0  0
 20 21  2  0  0  0  0
 20 22  1  0  0  0  0
M  END
> <ID>
9597

> <Formula>
C13H10N4O5

> <FW>
302.2423

> <DSSTox_CID>
23761

> <DSSTox_RID>
80070

> <DSSTox_GSID>
43761

> <DSSTox_FileID_Sort>
4752

> <TS_ChemName>
4,4'-Dinitrodiphenylurea

> <TS_ChemName_Synonyms>


> <TS_CASRN>
587-90-6

> <CASRN_ChemName_Relationship>
primary

> <TS_Description>
single chemical compound

> <ChemNote>


> <STRUCTURE_Shown>
tested chemical

> <STRUCTURE_Formula>
C13H10N4O5

> <STRUCTURE_MW>
302.2423

> <STRUCTURE_ChemType>
defined organic

> <STRUCTURE_DefinedOrganicForm>
parent

> <STRUCTURE_IUPAC>
1,3-bis(4-nitrophenyl)urea

> <STRUCTURE_SMILES>
O=C(Nc1ccc(cc1)[N+]([O-])=O)Nc2ccc(cc2)[N+]([O-])=O

> <STRUCTURE_SMILES_Desalt>
O=C(Nc1ccc(cc1)[N+]([O-])=O)Nc2ccc(cc2)[N+]([O-])=O

> <Substance_modify_yyyymmdd>
20081229

$$$$
