587-63-3
ChemmineR-0915142007XD

 17 18  0  0  0  0  0  0  0  0  1 V2000
    2.0111   -1.1492    0.0000 O   0  0  0  0  0  0  0  0  0  0  0  0
    2.6988   -2.3071    0.0000 C   0  0  0  0  0  0  0  0  0  0  0  0
    2.0111   -3.4475    0.0000 C   0  0  0  0  0  0  0  0  0  0  0  0
    0.7052   -3.4475    0.0000 C   0  0  0  0  0  0  0  0  0  0  0  0
    0.0000   -2.3071    0.0000 C   0  0  0  0  0  0  0  0  0  0  0  0
    0.7052   -1.1492    0.0000 C   0  0  0  0  0  0  0  0  0  0  0  0
    0.0609    0.0000    0.0000 O   0  0  0  0  0  0  0  0  0  0  0  0
    0.0609   -4.6054    0.0000 O   0  0  0  0  0  0  0  0  0  0  0  0
    0.7226   -5.7633    0.0000 C   0  0  0  0  0  0  0  0  0  0  0  0
    4.0308   -2.3071    0.0000 C   0  0  0  0  0  0  0  0  0  0  0  0
    4.7099   -1.1492    0.0000 C   0  0  0  0  0  0  0  0  0  0  0  0
    6.0419   -1.1492    0.0000 C   0  0  0  0  0  0  0  0  0  0  0  0
    6.6948   -2.2897    0.0000 C   0  0  0  0  0  0  0  0  0  0  0  0
    6.6948    0.0000    0.0000 C   0  0  0  0  0  0  0  0  0  0  0  0
    8.0355   -2.2897    0.0000 C   0  0  0  0  0  0  0  0  0  0  0  0
    8.0355    0.0000    0.0000 C   0  0  0  0  0  0  0  0  0  0  0  0
    8.7059   -1.1231    0.0000 C   0  0  0  0  0  0  0  0  0  0  0  0
  1  2  1  0  0  0  0
  1  6  1  0  0  0  0
  2  3  1  0  0  0  0
  2 10  1  0  0  0  0
  3  4  1  0  0  0  0
  4  5  2  0  0  0  0
  4  8  1  0  0  0  0
  5  6  1  0  0  0  0
  6  7  2  0  0  0  0
  8  9  1  0  0  0  0
 10 11  1  0  0  0  0
 11 12  1  0  0  0  0
 12 13  2  0  0  0  0
 12 14  1  0  0  0  0
 13 15  1  0  0  0  0
 14 16  2  0  0  0  0
 15 17  2  0  0  0  0
 16 17  1  0  0  0  0
M  END
> <ID>
6623

> <Formula>
C14H16O3

> <FW>
232.275

> <DSSTox_CID>
13433

> <DSSTox_RID>
79073

> <DSSTox_GSID>
33433

> <DSSTox_FileID_Sort>
3755

> <TS_ChemName>
Dihydrokavain

> <TS_ChemName_Synonyms>


> <TS_CASRN>
587-63-3

> <CASRN_ChemName_Relationship>
primary

> <TS_Description>
single chemical compound

> <ChemNote>


> <STRUCTURE_Shown>
tested chemical

> <STRUCTURE_Formula>
C14H16O3

> <STRUCTURE_MW>
232.275

> <STRUCTURE_ChemType>
defined organic

> <STRUCTURE_DefinedOrganicForm>
parent

> <STRUCTURE_IUPAC>
4-methoxy-6-(2-phenylethyl)-5,6-dihydro-2H-pyran-2-one

> <STRUCTURE_SMILES>
O=C2C=C(CC(CCc1ccccc1)O2)OC

> <STRUCTURE_SMILES_Desalt>
O=C2C=C(CC(CCc1ccccc1)O2)OC

> <Substance_modify_yyyymmdd>
20080429

$$$$
