587-85-9
ChemmineR-0915142007XD

 13 14  0  0  0  0  0  0  0  0  1 V2000
    3.4491    0.0000    0.0000 Hg   0  0  0  0  0  0  0  0  0  0  0  0
    2.2948   -0.6566    0.0000 C    0  0  0  0  0  0  0  0  0  0  0  0
    2.2948   -1.9907    0.0000 C    0  0  0  0  0  0  0  0  0  0  0  0
    1.1405    0.0000    0.0000 C    0  0  0  0  0  0  0  0  0  0  0  0
    0.0000   -0.6566    0.0000 C    0  0  0  0  0  0  0  0  0  0  0  0
    1.1405   -2.6612    0.0000 C    0  0  0  0  0  0  0  0  0  0  0  0
    0.0000   -1.9907    0.0000 C    0  0  0  0  0  0  0  0  0  0  0  0
    4.6035   -0.6566    0.0000 C    0  0  0  0  0  0  0  0  0  0  0  0
    5.7578    0.0000    0.0000 C    0  0  0  0  0  0  0  0  0  0  0  0
    4.6035   -1.9907    0.0000 C    0  0  0  0  0  0  0  0  0  0  0  0
    6.9121   -0.6566    0.0000 C    0  0  0  0  0  0  0  0  0  0  0  0
    5.7578   -2.6612    0.0000 C    0  0  0  0  0  0  0  0  0  0  0  0
    6.9121   -1.9907    0.0000 C    0  0  0  0  0  0  0  0  0  0  0  0
  1  2  1  0  0  0  0
  1  8  1  0  0  0  0
  2  3  1  0  0  0  0
  2  4  2  0  0  0  0
  3  6  2  0  0  0  0
  4  5  1  0  0  0  0
  5  7  2  0  0  0  0
  6  7  1  0  0  0  0
  8  9  1  0  0  0  0
  8 10  2  0  0  0  0
  9 11  2  0  0  0  0
 10 12  1  0  0  0  0
 11 13  1  0  0  0  0
 12 13  2  0  0  0  0
M  END
> <ID>
9061

> <Formula>
C12H10Hg

> <FW>
354.7978

> <DSSTox_CID>
22130

> <DSSTox_RID>
79932

> <DSSTox_GSID>
42130

> <DSSTox_FileID_Sort>
4614

> <TS_ChemName>
Diphenylmercury(II)

> <TS_ChemName_Synonyms>


> <TS_CASRN>
587-85-9

> <CASRN_ChemName_Relationship>
primary

> <TS_Description>
single chemical compound

> <ChemNote>


> <STRUCTURE_Shown>
tested chemical

> <STRUCTURE_Formula>
C12H10Hg

> <STRUCTURE_MW>
354.7978

> <STRUCTURE_ChemType>
organometallic

> <STRUCTURE_DefinedOrganicForm>


> <STRUCTURE_IUPAC>
diphenylmercury

> <STRUCTURE_SMILES>
c1ccccc1[Hg]c2ccccc2

> <STRUCTURE_SMILES_Desalt>
c1ccccc1[Hg]c2ccccc2

> <Substance_modify_yyyymmdd>
20080825

$$$$
