5870-29-1
ChemmineR-0915142007XD

 22 22  0  0  0  0  0  0  0  0  1 V2000
    3.4597   -3.9895    0.0000 C    0  0  0  0  0  0  0  0  0  0  0  0
    3.4597   -2.6181    0.0000 C    0  0  0  0  0  0  0  0  0  0  0  0
    2.3584   -4.7687    0.0000 C    0  0  0  0  0  0  0  0  0  0  0  0
    4.5090   -4.7687    0.0000 C    0  0  0  0  0  0  0  0  0  0  0  0
    4.6129   -3.3350    0.0000 O    0  0  0  0  0  0  0  0  0  0  0  0
    2.2753   -1.9636    0.0000 C    0  0  0  0  0  0  0  0  0  0  0  0
    4.6129   -1.9636    0.0000 C    0  0  0  0  0  0  0  0  0  0  0  0
    2.7636   -6.0466    0.0000 C    0  0  0  0  0  0  0  0  0  0  0  0
    4.1142   -6.0466    0.0000 C    0  0  0  0  0  0  0  0  0  0  0  0
    2.2753   -0.6649    0.0000 C    0  0  0  0  0  0  0  0  0  0  0  0
    1.1324   -2.6181    0.0000 C    0  0  0  0  0  0  0  0  0  0  0  0
    5.7349   -2.6181    0.0000 O    0  0  0  0  0  0  0  0  0  0  0  0
    4.6129   -0.6130    0.0000 O    0  0  0  0  0  0  0  0  0  0  0  0
    1.1324    0.0000    0.0000 C    0  0  0  0  0  0  0  0  0  0  0  0
    0.0000   -1.9636    0.0000 C    0  0  0  0  0  0  0  0  0  0  0  0
    6.9193   -1.9636    0.0000 C    0  0  0  0  0  0  0  0  0  0  0  0
    0.0000   -0.6649    0.0000 C    0  0  0  0  0  0  0  0  0  0  0  0
    8.0621   -2.6181    0.0000 C    0  0  0  0  0  0  0  0  0  0  0  0
    9.2673   -1.9636    0.0000 N    0  0  0  0  0  0  0  0  0  0  0  0
   10.3894   -2.6181    0.0000 C    0  0  0  0  0  0  0  0  0  0  0  0
    9.2673   -0.6130    0.0000 C    0  0  0  0  0  0  0  0  0  0  0  0
    2.7324   -6.8466    0.0000 Cl   0  0  0  0  0  0  0  0  0  0  0  0
  1  2  1  0  0  0  0
  1  3  1  0  0  0  0
  1  4  1  0  0  0  0
  1  5  1  0  0  0  0
  2  6  1  0  0  0  0
  2  7  1  0  0  0  0
  3  8  1  0  0  0  0
  4  9  1  0  0  0  0
  6 10  1  0  0  0  0
  6 11  2  0  0  0  0
  7 12  1  0  0  0  0
  7 13  2  0  0  0  0
  8  9  1  0  0  0  0
 10 14  2  0  0  0  0
 11 15  1  0  0  0  0
 12 16  1  0  0  0  0
 14 17  1  0  0  0  0
 15 17  2  0  0  0  0
 16 18  1  0  0  0  0
 18 19  1  0  0  0  0
 19 20  1  0  0  0  0
 19 21  1  0  0  0  0
M  END
> <ID>
10918

> <Formula>
C17H26ClNO3

> <FW>
327.8462 (291.3853+36.4609)

> <DSSTox_CID>
25390

> <DSSTox_RID>
80847

> <DSSTox_GSID>
45390

> <DSSTox_FileID_Sort>
5528

> <TS_ChemName>
Cyclopentolate hydrochloride

> <TS_ChemName_Synonyms>


> <TS_CASRN>
5870-29-1

> <CASRN_ChemName_Relationship>
primary

> <TS_Description>
single chemical compound

> <ChemNote>
parent [512-15-2]

> <STRUCTURE_Shown>
tested chemical

> <STRUCTURE_Formula>
C17H26ClNO3

> <STRUCTURE_MW>
327.8462

> <STRUCTURE_ChemType>
defined organic

> <STRUCTURE_DefinedOrganicForm>
complex

> <STRUCTURE_IUPAC>
2-(dimethylamino)ethyl (1-hydroxycyclopentyl)(phenyl)acetate hydrochloride (1:1)

> <STRUCTURE_SMILES>
Cl.OC1(CCCC1)C(C(=O)OCCN(C)C)c2ccccc2

> <STRUCTURE_SMILES_Desalt>
OC1(CCCC1)C(C(=O)OCCN(C)C)c2ccccc2

> <Substance_modify_yyyymmdd>
20100107

$$$$
