5874-97-5
ChemmineR-0915142007XD

 35 34  0  0  0  0  0  0  0  0  1 V2000
    3.4345   -2.0232    0.0000 C   0  0  0  0  0  0  0  0  0  0  0  0
    3.4345   -3.3595    0.0000 C   0  0  0  0  0  0  0  0  0  0  0  0
    2.2980   -1.3613    0.0000 C   0  0  0  0  0  0  0  0  0  0  0  0
    2.2980   -4.0339    0.0000 C   0  0  0  0  0  0  0  0  0  0  0  0
    1.1365   -2.0232    0.0000 C   0  0  0  0  0  0  0  0  0  0  0  0
    1.1365   -3.3595    0.0000 C   0  0  0  0  0  0  0  0  0  0  0  0
    6.8814   -1.3488    0.0000 N   0  0  0  0  0  0  0  0  0  0  0  0
    4.6084   -1.3488    0.0000 C   0  0  0  0  0  0  0  0  0  0  0  0
    5.7449   -2.0107    0.0000 C   0  0  0  0  0  0  0  0  0  0  0  0
    2.2980   -5.3578    0.0000 O   0  0  0  0  0  0  0  0  0  0  0  0
    0.0000   -1.3488    0.0000 O   0  0  0  0  0  0  0  0  0  0  0  0
    4.6084    0.0000    0.0000 O   0  0  0  0  0  0  0  0  0  0  0  0
    8.0429   -2.0107    0.0000 C   0  0  0  0  0  0  0  0  0  0  0  0
    9.1794   -1.3488    0.0000 C   0  0  0  0  0  0  0  0  0  0  0  0
    8.0429   -3.3346    0.0000 C   0  0  0  0  0  0  0  0  0  0  0  0
    5.8448   -6.7940    0.0000 S   0  0  0  0  0  0  0  0  0  0  0  0
    7.1811   -6.7940    0.0000 O   0  0  0  0  0  0  0  0  0  0  0  0
    4.5085   -6.7940    0.0000 O   0  0  0  0  0  0  0  0  0  0  0  0
    5.8448   -8.1178    0.0000 O   0  0  0  0  0  0  0  0  0  0  0  0
    5.8448   -5.4577    0.0000 O   0  0  0  0  0  0  0  0  0  0  0  0
    3.4844  -10.4657    0.0000 C   0  0  0  0  0  0  0  0  0  0  0  0
    3.4844   -9.1294    0.0000 C   0  0  0  0  0  0  0  0  0  0  0  0
    2.3479  -11.1277    0.0000 C   0  0  0  0  0  0  0  0  0  0  0  0
    2.3479   -8.4550    0.0000 C   0  0  0  0  0  0  0  0  0  0  0  0
    1.1865  -10.4657    0.0000 C   0  0  0  0  0  0  0  0  0  0  0  0
    1.1865   -9.1294    0.0000 C   0  0  0  0  0  0  0  0  0  0  0  0
    6.9314  -11.1401    0.0000 N   0  0  0  0  0  0  0  0  0  0  0  0
    4.6584  -11.1401    0.0000 C   0  0  0  0  0  0  0  0  0  0  0  0
    5.7949  -10.4782    0.0000 C   0  0  0  0  0  0  0  0  0  0  0  0
    2.3479   -7.1312    0.0000 O   0  0  0  0  0  0  0  0  0  0  0  0
    0.0500  -11.1401    0.0000 O   0  0  0  0  0  0  0  0  0  0  0  0
    4.6584  -12.4890    0.0000 O   0  0  0  0  0  0  0  0  0  0  0  0
    8.0928  -10.4782    0.0000 C   0  0  0  0  0  0  0  0  0  0  0  0
    9.2293  -11.1401    0.0000 C   0  0  0  0  0  0  0  0  0  0  0  0
    8.0928   -9.1544    0.0000 C   0  0  0  0  0  0  0  0  0  0  0  0
  1  2  1  0  0  0  0
  1  3  2  0  0  0  0
  1  8  1  0  0  0  0
  2  4  2  0  0  0  0
  3  5  1  0  0  0  0
  4 10  1  0  0  0  0
  4  6  1  0  0  0  0
  5  6  2  0  0  0  0
  5 11  1  0  0  0  0
  7  9  1  0  0  0  0
  7 13  1  0  0  0  0
  8  9  1  0  0  0  0
  8 12  1  0  0  0  0
 13 14  1  0  0  0  0
 13 15  1  0  0  0  0
 16 17  2  0  0  0  0
 16 18  2  0  0  0  0
 16 19  1  0  0  0  0
 16 20  1  0  0  0  0
 21 22  1  0  0  0  0
 21 23  2  0  0  0  0
 21 28  1  0  0  0  0
 22 24  2  0  0  0  0
 23 25  1  0  0  0  0
 24 30  1  0  0  0  0
 24 26  1  0  0  0  0
 25 26  2  0  0  0  0
 25 31  1  0  0  0  0
 27 29  1  0  0  0  0
 27 33  1  0  0  0  0
 28 29  1  0  0  0  0
 28 32  1  0  0  0  0
 33 34  1  0  0  0  0
 33 35  1  0  0  0  0
M  END
> <ID>
10919

> <Formula>
C22H36N2O10S

> <FW>
520.5936 (211.2576+98.0785+211.2576)

> <DSSTox_CID>
25391

> <DSSTox_RID>
80848

> <DSSTox_GSID>
45391

> <DSSTox_FileID_Sort>
5529

> <TS_ChemName>
Orciprenaline sulfate

> <TS_ChemName_Synonyms>


> <TS_CASRN>
5874-97-5

> <CASRN_ChemName_Relationship>
primary

> <TS_Description>
single chemical compound

> <ChemNote>
parent [586-06-1]

> <STRUCTURE_Shown>
tested chemical

> <STRUCTURE_Formula>
C22H36N2O10S

> <STRUCTURE_MW>
520.5936

> <STRUCTURE_ChemType>
defined organic

> <STRUCTURE_DefinedOrganicForm>
complex

> <STRUCTURE_IUPAC>
5-[1-hydroxy-2-(propan-2-ylamino)ethyl]benzene-1,3-diol sulfate (2:1)

> <STRUCTURE_SMILES>
Oc1cc(cc(O)c1)C(O)CNC(C)C.O=S(=O)(O)O.CC(C)NCC(O)c1cc(O)cc(O)c1

> <STRUCTURE_SMILES_Desalt>
Oc1cc(cc(O)c1)C(O)CNC(C)C

> <Substance_modify_yyyymmdd>
20100107

$$$$
