5875-06-9
ChemmineR-0915142007XD

 22 21  0  0  0  0  0  0  0  0  1 V2000
    8.0551   -1.9950    0.0000 C    0  0  0  0  0  0  0  0  0  0  0  0
    6.9451   -2.6400    0.0000 C    0  0  0  0  0  0  0  0  0  0  0  0
    5.7600   -4.6950    0.0000 C    0  0  0  0  0  0  0  0  0  0  0  0
    6.9451   -3.9900    0.0000 C    0  0  0  0  0  0  0  0  0  0  0  0
    4.6500   -3.9900    0.0000 C    0  0  0  0  0  0  0  0  0  0  0  0
    8.0551   -0.6450    0.0000 O    0  0  0  0  0  0  0  0  0  0  0  0
    5.7600   -1.9950    0.0000 C    0  0  0  0  0  0  0  0  0  0  0  0
    4.6500   -2.7000    0.0000 C    0  0  0  0  0  0  0  0  0  0  0  0
    5.7600   -5.9850    0.0000 N    0  0  0  0  0  0  0  0  0  0  0  0
    9.2251   -2.6400    0.0000 O    0  0  0  0  0  0  0  0  0  0  0  0
   12.7051   -1.9950    0.0000 N    0  0  0  0  0  0  0  0  0  0  0  0
    3.4650   -4.6950    0.0000 O    0  0  0  0  0  0  0  0  0  0  0  0
   10.4101   -1.9950    0.0000 C    0  0  0  0  0  0  0  0  0  0  0  0
   11.5201   -2.6400    0.0000 C    0  0  0  0  0  0  0  0  0  0  0  0
   13.8901   -2.6400    0.0000 C    0  0  0  0  0  0  0  0  0  0  0  0
   12.7051   -0.6450    0.0000 C    0  0  0  0  0  0  0  0  0  0  0  0
    2.2800   -4.0500    0.0000 C    0  0  0  0  0  0  0  0  0  0  0  0
    1.1700   -4.7550    0.0000 C    0  0  0  0  0  0  0  0  0  0  0  0
   11.5801    0.0000    0.0000 C    0  0  0  0  0  0  0  0  0  0  0  0
   15.0001   -1.9350    0.0000 C    0  0  0  0  0  0  0  0  0  0  0  0
    0.0000   -4.1100    0.0000 C    0  0  0  0  0  0  0  0  0  0  0  0
   10.0351   -4.1100    0.0000 Cl   0  0  0  0  0  0  0  0  0  0  0  0
  1  2  1  0  0  0  0
  1  6  2  0  0  0  0
  1 10  1  0  0  0  0
  2  4  1  0  0  0  0
  2  7  2  0  0  0  0
  3  4  2  0  0  0  0
  3  9  1  0  0  0  0
  3  5  1  0  0  0  0
  5  8  2  0  0  0  0
  5 12  1  0  0  0  0
  7  8  1  0  0  0  0
 10 13  1  0  0  0  0
 11 14  1  0  0  0  0
 11 15  1  0  0  0  0
 11 16  1  0  0  0  0
 12 17  1  0  0  0  0
 13 14  1  0  0  0  0
 15 20  1  0  0  0  0
 16 19  1  0  0  0  0
 17 18  1  0  0  0  0
 18 21  1  0  0  0  0
M  END
> <ID>
14006

> <Formula>
C16H27ClN2O3

> <FW>
330.8502 (294.3892+36.4609)

> <DSSTox_CID>
28948

> <DSSTox_RID>
83213

> <DSSTox_GSID>
49022

> <DSSTox_FileID_Sort>
7889

> <TS_ChemName>
Proparacaine hydrochloride

> <TS_ChemName_Synonyms>


> <TS_CASRN>
5875-06-9

> <CASRN_ChemName_Relationship>
primary

> <TS_Description>
single chemical compound

> <ChemNote>


> <STRUCTURE_Shown>
tested chemical

> <STRUCTURE_Formula>
C16H27ClN2O3

> <STRUCTURE_MW>
330.8502

> <STRUCTURE_ChemType>
defined organic

> <STRUCTURE_DefinedOrganicForm>
complex

> <STRUCTURE_IUPAC>
2-(diethylamino)ethyl 3-amino-4-propoxybenzoate hydrochloride (1:1)

> <STRUCTURE_SMILES>
Cl.CCN(CC)CCOC(=O)c1ccc(OCCC)c(N)c1

> <STRUCTURE_SMILES_Desalt>
CCN(CC)CCOC(=O)c1ccc(OCCC)c(N)c1

> <Substance_modify_yyyymmdd>
20111204

$$$$
