58769-20-3
ChemmineR-0915142007XD

 28 31  0  0  1  0  0  0  0  0  1 V2000
   11.1361   -2.3355    0.0000 C   0  0  0  0  0  0  0  0  0  0  0  0
   11.7961   -1.1508    0.0000 C   0  0  0  0  0  0  0  0  0  0  0  0
   12.4731   -2.3355    0.0000 C   0  0  0  0  0  0  0  0  0  0  0  0
    9.9514   -2.9956    0.0000 C   0  0  0  0  0  0  0  0  0  0  0  0
    9.9514   -4.3664    0.0000 O   0  0  0  0  0  0  0  0  0  0  0  0
    8.8006   -2.3186    0.0000 O   0  0  0  0  0  0  0  0  0  0  0  0
   11.1361    0.0000    0.0000 C   0  0  0  0  0  0  0  0  0  0  0  0
   12.4900    0.0000    0.0000 C   0  0  0  0  0  0  0  0  0  0  0  0
   13.6578   -3.0294    0.0000 C   0  0  0  0  0  0  0  0  0  0  0  0
    7.6159   -3.0125    0.0000 C   0  0  0  0  0  0  0  0  0  0  0  0
    5.7711   -0.3046    0.0000 O   0  0  0  0  0  0  0  0  0  0  0  0
    4.7049   -1.0662    0.0000 C   0  0  0  0  0  0  0  0  0  0  0  0
    6.8712   -1.0662    0.0000 C   0  0  0  0  0  0  0  0  0  0  0  0
    5.1111   -2.3525    0.0000 C   0  0  0  0  0  0  0  0  0  0  0  0
    6.4481   -2.3525    0.0000 C   0  0  0  0  0  0  0  0  0  0  0  0
    3.5202   -0.3893    0.0000 C   0  0  0  0  0  0  0  0  0  0  0  0
    2.3186   -1.0324    0.0000 C   0  0  0  0  0  0  0  0  0  0  0  0
    1.1678   -0.3893    0.0000 C   0  0  0  0  0  0  0  0  0  0  0  0
    2.3186   -2.4032    0.0000 C   0  0  0  0  0  0  0  0  0  0  0  0
    0.0000   -1.0324    0.0000 C   0  0  0  0  0  0  0  0  0  0  0  0
    1.1678   -3.0971    0.0000 C   0  0  0  0  0  0  0  0  0  0  0  0
    0.0000   -2.4032    0.0000 C   0  0  0  0  0  0  0  0  0  0  0  0
   14.7917   -2.4540    0.0000 C   0  0  0  0  0  0  0  0  0  0  0  0
   16.0102   -3.0463    0.0000 C   0  0  0  0  0  0  0  0  0  0  0  0
   14.9779   -1.1170    0.0000 C   0  0  0  0  0  0  0  0  0  0  0  0
   16.9241   -2.0817    0.0000 S   0  0  0  0  0  0  0  0  0  0  0  0
   16.2979   -0.8970    0.0000 C   0  0  0  0  0  0  0  0  0  0  0  0
   16.3318   -3.8418    0.0000 O   0  0  0  0  0  0  0  0  0  0  0  0
  1  2  1  0  0  0  0
  1  3  1  0  0  0  0
  1  4  1  6  0  0  0
  2  3  1  0  0  0  0
  2  7  1  0  0  0  0
  2  8  1  0  0  0  0
  3  9  1  6  0  0  0
  4  5  2  0  0  0  0
  4  6  1  0  0  0  0
  6 10  1  0  0  0  0
  9 23  2  0  0  0  0
 10 15  1  0  0  0  0
 11 12  1  0  0  0  0
 11 13  1  0  0  0  0
 12 14  2  0  0  0  0
 12 16  1  0  0  0  0
 13 15  2  0  0  0  0
 14 15  1  0  0  0  0
 16 17  1  0  0  0  0
 17 18  2  0  0  0  0
 17 19  1  0  0  0  0
 18 20  1  0  0  0  0
 19 21  2  0  0  0  0
 20 22  2  0  0  0  0
 21 22  1  0  0  0  0
 23 24  1  0  0  0  0
 23 25  1  0  0  0  0
 24 26  1  0  0  0  0
 24 28  2  0  0  0  0
 25 27  1  0  0  0  0
 26 27  1  0  0  0  0
M  END
> <ID>
9015

> <Formula>
C23H24O4S

> <FW>
396.4993

> <DSSTox_CID>
22083

> <DSSTox_RID>
79919

> <DSSTox_GSID>
42083

> <DSSTox_FileID_Sort>
4601

> <TS_ChemName>
Kadethrin

> <TS_ChemName_Synonyms>


> <TS_CASRN>
58769-20-3

> <CASRN_ChemName_Relationship>
primary

> <TS_Description>
single chemical compound

> <ChemNote>
absolute stereochem

> <STRUCTURE_Shown>
tested chemical

> <STRUCTURE_Formula>
C23H24O4S

> <STRUCTURE_MW>
396.4993

> <STRUCTURE_ChemType>
defined organic

> <STRUCTURE_DefinedOrganicForm>
parent

> <STRUCTURE_IUPAC>
(5-benzylfuran-3-yl)methyl (1S,3R)-2,2-dimethyl-3-[(E)-(2-oxodihydrothiophen-3(2H)-ylidene)methyl]cyclopropanecarboxylate

> <STRUCTURE_SMILES>
O=C(OCc2cc(Cc1ccccc1)oc2)[C@H]4[C@@H](\C=C3/CCSC3=O)C4(C)C

> <STRUCTURE_SMILES_Desalt>
O=C(OCc2cc(Cc1ccccc1)oc2)[C@H]4[C@@H](\C=C3/CCSC3=O)C4(C)C

> <Substance_modify_yyyymmdd>
20080825

$$$$
