5879-67-4
ChemmineR-0915142007XD

 17 18  0  0  0  0  0  0  0  0  1 V2000
    8.0410    0.0000    0.0000 O   0  0  0  0  0  0  0  0  0  0  0  0
    8.0410   -1.3233    0.0000 C   0  0  0  0  0  0  0  0  0  0  0  0
    9.1898   -1.9942    0.0000 C   0  0  0  0  0  0  0  0  0  0  0  0
    9.1898   -3.3359    0.0000 C   0  0  0  0  0  0  0  0  0  0  0  0
    8.0410   -3.9884    0.0000 C   0  0  0  0  0  0  0  0  0  0  0  0
    6.8923   -3.3359    0.0000 C   0  0  0  0  0  0  0  0  0  0  0  0
    6.8923   -1.9942    0.0000 C   0  0  0  0  0  0  0  0  0  0  0  0
    5.7436   -1.3233    0.0000 C   0  0  0  0  0  0  0  0  0  0  0  0
    5.7436    0.0000    0.0000 C   0  0  0  0  0  0  0  0  0  0  0  0
    4.6133   -1.9942    0.0000 N   0  0  0  0  0  0  0  0  0  0  0  0
    3.4645   -1.3233    0.0000 C   0  0  0  0  0  0  0  0  0  0  0  0
    2.2974   -1.9942    0.0000 C   0  0  0  0  0  0  0  0  0  0  0  0
    2.2974   -3.3359    0.0000 C   0  0  0  0  0  0  0  0  0  0  0  0
    1.1487   -3.9884    0.0000 C   0  0  0  0  0  0  0  0  0  0  0  0
    0.0000   -3.3359    0.0000 C   0  0  0  0  0  0  0  0  0  0  0  0
    0.0000   -1.9942    0.0000 C   0  0  0  0  0  0  0  0  0  0  0  0
    1.1487   -1.3233    0.0000 C   0  0  0  0  0  0  0  0  0  0  0  0
  1  2  1  0  0  0  0
  2  3  2  0  0  0  0
  2  7  1  0  0  0  0
  3  4  1  0  0  0  0
  4  5  2  0  0  0  0
  5  6  1  0  0  0  0
  6  7  2  0  0  0  0
  7  8  1  0  0  0  0
  8  9  1  0  0  0  0
  8 10  2  0  0  0  0
 10 11  1  0  0  0  0
 11 12  1  0  0  0  0
 12 13  2  0  0  0  0
 12 17  1  0  0  0  0
 13 14  1  0  0  0  0
 14 15  2  0  0  0  0
 15 16  1  0  0  0  0
 16 17  2  0  0  0  0
M  END
> <ID>
11541

> <Formula>
C15H15NO

> <FW>
225.2857

> <DSSTox_CID>
26247

> <DSSTox_RID>
81474

> <DSSTox_GSID>
46247

> <DSSTox_FileID_Sort>
6155

> <TS_ChemName>
Oletimol

> <TS_ChemName_Synonyms>


> <TS_CASRN>
5879-67-4

> <CASRN_ChemName_Relationship>
primary

> <TS_Description>
single chemical compound

> <ChemNote>


> <STRUCTURE_Shown>
tested chemical

> <STRUCTURE_Formula>
C15H15NO

> <STRUCTURE_MW>
225.2857

> <STRUCTURE_ChemType>
defined organic

> <STRUCTURE_DefinedOrganicForm>
parent

> <STRUCTURE_IUPAC>
2-[(1E)-N-benzylethanimidoyl]phenol

> <STRUCTURE_SMILES>
Oc2ccccc2C(\C)=N\Cc1ccccc1

> <STRUCTURE_SMILES_Desalt>
Oc2ccccc2C(\C)=N\Cc1ccccc1

> <Substance_modify_yyyymmdd>
20110817

$$$$
