58846-77-8
ChemmineR-0915142007XD

 22 22  0  0  1  0  0  0  0  0  1 V2000
    3.9938   -2.3106    0.0000 C   0  0  0  0  0  0  0  0  0  0  0  0
    5.3251   -2.3106    0.0000 O   0  0  0  0  0  0  0  0  0  0  0  0
    3.3358   -3.4582    0.0000 C   0  0  0  0  0  0  0  0  0  0  0  0
    3.9938   -4.6059    0.0000 O   0  0  0  0  0  0  0  0  0  0  0  0
    2.0046   -3.4582    0.0000 C   0  0  0  0  0  0  0  0  0  0  0  0
    1.3313   -4.6059    0.0000 O   0  0  0  0  0  0  0  0  0  0  0  0
    1.3313   -2.3106    0.0000 C   0  0  0  0  0  0  0  0  0  0  0  0
    0.0000   -2.3106    0.0000 O   0  0  0  0  0  0  0  0  0  0  0  0
    2.0046   -1.1629    0.0000 C   0  0  0  0  0  0  0  0  0  0  0  0
    3.3358   -1.1629    0.0000 O   0  0  0  0  0  0  0  0  0  0  0  0
    1.3313    0.0000    0.0000 C   0  0  0  0  0  0  0  0  0  0  0  0
    0.0000    0.0000    0.0000 O   0  0  0  0  0  0  0  0  0  0  0  0
    5.9983   -3.4582    0.0000 C   0  0  0  0  0  0  0  0  0  0  0  0
    7.3296   -3.4582    0.0000 C   0  0  0  0  0  0  0  0  0  0  0  0
    7.9723   -4.6059    0.0000 C   0  0  0  0  0  0  0  0  0  0  0  0
    9.3036   -4.6059    0.0000 C   0  0  0  0  0  0  0  0  0  0  0  0
    9.9768   -5.7535    0.0000 C   0  0  0  0  0  0  0  0  0  0  0  0
   11.3081   -5.7535    0.0000 C   0  0  0  0  0  0  0  0  0  0  0  0
   11.9661   -6.9165    0.0000 C   0  0  0  0  0  0  0  0  0  0  0  0
   13.2974   -6.9165    0.0000 C   0  0  0  0  0  0  0  0  0  0  0  0
   13.9706   -8.0641    0.0000 C   0  0  0  0  0  0  0  0  0  0  0  0
   15.3019   -8.0641    0.0000 C   0  0  0  0  0  0  0  0  0  0  0  0
  1  2  1  1  0  0  0
  1  3  1  0  0  0  0
  1 10  1  0  0  0  0
  2 13  1  0  0  0  0
  3  4  1  6  0  0  0
  3  5  1  0  0  0  0
  5  6  1  1  0  0  0
  5  7  1  0  0  0  0
  7  8  1  6  0  0  0
  7  9  1  0  0  0  0
  9 10  1  0  0  0  0
  9 11  1  1  0  0  0
 11 12  1  0  0  0  0
 13 14  1  0  0  0  0
 14 15  1  0  0  0  0
 15 16  1  0  0  0  0
 16 17  1  0  0  0  0
 17 18  1  0  0  0  0
 18 19  1  0  0  0  0
 19 20  1  0  0  0  0
 20 21  1  0  0  0  0
 21 22  1  0  0  0  0
M  END
> <ID>
8181

> <Formula>
C16H32O6

> <FW>
320.4217

> <DSSTox_CID>
21208

> <DSSTox_RID>
79648

> <DSSTox_GSID>
41208

> <DSSTox_FileID_Sort>
4330

> <TS_ChemName>
Decyl beta-D-glucopyranoside

> <TS_ChemName_Synonyms>


> <TS_CASRN>
58846-77-8

> <CASRN_ChemName_Relationship>
primary

> <TS_Description>
single chemical compound

> <ChemNote>
stereochem

> <STRUCTURE_Shown>
tested chemical

> <STRUCTURE_Formula>
C16H32O6

> <STRUCTURE_MW>
320.4217

> <STRUCTURE_ChemType>
defined organic

> <STRUCTURE_DefinedOrganicForm>
parent

> <STRUCTURE_IUPAC>
decyl beta-D-glucopyranoside

> <STRUCTURE_SMILES>
OC[C@H]1O[C@@H](OCCCCCCCCCC)[C@H](O)[C@@H](O)[C@@H]1O

> <STRUCTURE_SMILES_Desalt>
OC[C@H]1O[C@@H](OCCCCCCCCCC)[C@H](O)[C@@H](O)[C@@H]1O

> <Substance_modify_yyyymmdd>
20080825

$$$$
