588941-45-1
ChemmineR-0915142007XD

 27 29  0  0  1  0  0  0  0  0  1 V2000
    4.5987   -3.3795    0.0000 C    0  0  0  0  0  0  0  0  0  0  0  0
    5.7431   -4.0533    0.0000 C    0  0  0  0  0  0  0  0  0  0  0  0
    6.8981   -3.3795    0.0000 C    0  0  0  0  0  0  0  0  0  0  0  0
    4.5987   -2.0534    0.0000 O    0  0  0  0  0  0  0  0  0  0  0  0
    3.4544   -4.0533    0.0000 N    0  0  0  0  0  0  0  0  0  0  0  0
    6.8981   -7.3687    0.0000 C    0  0  0  0  0  0  0  0  0  0  0  0
    5.7431   -8.0317    0.0000 C    0  0  0  0  0  0  0  0  0  0  0  0
    4.5987   -7.3687    0.0000 C    0  0  0  0  0  0  0  0  0  0  0  0
    4.5987   -6.0318    0.0000 C    0  0  0  0  0  0  0  0  0  0  0  0
    5.7431   -5.3794    0.0000 C    0  0  0  0  0  0  0  0  0  0  0  0
    6.8981   -6.0318    0.0000 C    0  0  0  0  0  0  0  0  0  0  0  0
    8.0531   -8.0317    0.0000 Cl   0  0  0  0  0  0  0  0  0  0  0  0
    5.7431   -9.3686    0.0000 S    0  0  0  0  0  0  0  0  0  0  0  0
    4.4169   -9.3686    0.0000 O    0  0  0  0  0  0  0  0  0  0  0  0
    7.0799   -9.3686    0.0000 O    0  0  0  0  0  0  0  0  0  0  0  0
    5.7431  -10.6947    0.0000 C    0  0  0  0  0  0  0  0  0  0  0  0
    6.8981   -2.0534    0.0000 C    0  0  0  0  0  0  0  0  0  0  0  0
    5.8286   -1.2620    0.0000 C    0  0  0  0  0  0  0  0  0  0  0  0
    6.2457    0.0000    0.0000 C    0  0  0  0  0  0  0  0  0  0  0  0
    7.5719    0.0000    0.0000 C    0  0  0  0  0  0  0  0  0  0  0  0
    7.9783   -1.2620    0.0000 C    0  0  0  0  0  0  0  0  0  0  0  0
    2.3101   -2.0534    0.0000 N    0  0  0  0  0  0  0  0  0  0  0  0
    0.0000   -3.3795    0.0000 N    0  0  0  0  0  0  0  0  0  0  0  0
    2.3101   -3.3795    0.0000 C    0  0  0  0  0  0  0  0  0  0  0  0
    0.0000   -2.0534    0.0000 C    0  0  0  0  0  0  0  0  0  0  0  0
    1.1550   -4.0533    0.0000 C    0  0  0  0  0  0  0  0  0  0  0  0
    1.1550   -1.3903    0.0000 C    0  0  0  0  0  0  0  0  0  0  0  0
  1  2  1  0  0  0  0
  1  5  1  0  0  0  0
  1  4  2  0  0  0  0
  2  3  1  6  0  0  0
  2 10  1  0  0  0  0
  3 17  1  0  0  0  0
  5 24  1  0  0  0  0
  6 11  2  0  0  0  0
  6  7  1  0  0  0  0
  6 12  1  0  0  0  0
  7  8  2  0  0  0  0
  7 13  1  0  0  0  0
  8  9  1  0  0  0  0
  9 10  2  0  0  0  0
 10 11  1  0  0  0  0
 13 14  2  0  0  0  0
 13 15  2  0  0  0  0
 13 16  1  0  0  0  0
 17 18  1  0  0  0  0
 17 21  1  0  0  0  0
 18 19  1  0  0  0  0
 19 20  1  0  0  0  0
 20 21  1  0  0  0  0
 22 24  2  0  0  0  0
 22 27  1  0  0  0  0
 23 25  1  0  0  0  0
 23 26  2  0  0  0  0
 24 26  1  0  0  0  0
 25 27  2  0  0  0  0
M  END
> <ID>
13554

> <Formula>
C19H22ClN3O3S

> <FW>
407.9143

> <DSSTox_CID>
28480

> <DSSTox_RID>
82758

> <DSSTox_GSID>
48506

> <DSSTox_FileID_Sort>
7435

> <TS_ChemName>
PharmaGSID_48506

> <TS_ChemName_Synonyms>
(2R)-2-[3-Chloro-4-(methylsulfonyl)phenyl]-3-cyclopentyl-N-(pyrazin-2-yl)propanamide

> <TS_CASRN>
588941-45-1

> <CASRN_ChemName_Relationship>
primary

> <TS_Description>
single chemical compound

> <ChemNote>
stereochem

> <STRUCTURE_Shown>
tested chemical

> <STRUCTURE_Formula>
C19H22ClN3O3S

> <STRUCTURE_MW>
407.9143

> <STRUCTURE_ChemType>
defined organic

> <STRUCTURE_DefinedOrganicForm>
parent

> <STRUCTURE_IUPAC>
(2R)-2-[3-chloro-4-(methylsulfonyl)phenyl]-3-cyclopentyl-N-(pyrazin-2-yl)propanamide

> <STRUCTURE_SMILES>
O=C(Nc1cnccn1)[C@H](CC2CCCC2)c3ccc(c(Cl)c3)S(C)(=O)=O

> <STRUCTURE_SMILES_Desalt>
O=C(Nc1cnccn1)[C@H](CC2CCCC2)c3ccc(c(Cl)c3)S(C)(=O)=O

> <Substance_modify_yyyymmdd>
20130910

$$$$
