589-10-6
ChemmineR-0915142007XD

 10 10  0  0  0  0  0  0  0  0  1 V2000
    0.0000   -5.3134    0.0000 C    0  0  0  0  0  0  0  0  0  0  0  0
    1.1561   -5.9904    0.0000 C    0  0  0  0  0  0  0  0  0  0  0  0
    0.0000   -3.9836    0.0000 C    0  0  0  0  0  0  0  0  0  0  0  0
    2.3123   -5.3134    0.0000 C    0  0  0  0  0  0  0  0  0  0  0  0
    1.1561   -3.3246    0.0000 C    0  0  0  0  0  0  0  0  0  0  0  0
    4.6066   -1.3358    0.0000 C    0  0  0  0  0  0  0  0  0  0  0  0
    3.4684   -1.9888    0.0000 C    0  0  0  0  0  0  0  0  0  0  0  0
    2.3123   -4.0016    0.0000 C    0  0  0  0  0  0  0  0  0  0  0  0
    4.6246    0.0000    0.0000 Br   0  0  0  0  0  0  0  0  0  0  0  0
    3.4504   -3.3246    0.0000 O    0  0  0  0  0  0  0  0  0  0  0  0
  1  2  2  0  0  0  0
  1  3  1  0  0  0  0
  2  4  1  0  0  0  0
  3  5  2  0  0  0  0
  4  8  2  0  0  0  0
  5  8  1  0  0  0  0
  6  7  1  0  0  0  0
  6  9  1  0  0  0  0
  7 10  1  0  0  0  0
  8 10  1  0  0  0  0
M  END
> <ID>
14186

> <Formula>
C8H9BrO

> <FW>
201.0605

> <DSSTox_CID>
29278

> <DSSTox_RID>
83397

> <DSSTox_GSID>
49322

> <DSSTox_FileID_Sort>
8072

> <TS_ChemName>
Benzene,(2-bromoethoxy)-

> <TS_ChemName_Synonyms>


> <TS_CASRN>
589-10-6

> <CASRN_ChemName_Relationship>
primary

> <TS_Description>
single chemical compound

> <ChemNote>


> <STRUCTURE_Shown>
tested chemical

> <STRUCTURE_Formula>
C8H9BrO

> <STRUCTURE_MW>
201.0605

> <STRUCTURE_ChemType>
defined organic

> <STRUCTURE_DefinedOrganicForm>
parent

> <STRUCTURE_IUPAC>
(2-bromoethoxy)benzene

> <STRUCTURE_SMILES>
BrCCOc1ccccc1

> <STRUCTURE_SMILES_Desalt>
BrCCOc1ccccc1

> <Substance_modify_yyyymmdd>
20111204

$$$$
