589-18-4
ChemmineR-0915142007XD

  9  9  0  0  0  0  0  0  0  0  1 V2000
    0.0000    0.0000    0.0000 O   0  0  0  0  0  0  0  0  0  0  0  0
    0.6638   -1.1542    0.0000 C   0  0  0  0  0  0  0  0  0  0  0  0
    1.9915   -1.1542    0.0000 C   0  0  0  0  0  0  0  0  0  0  0  0
    2.6554    0.0000    0.0000 C   0  0  0  0  0  0  0  0  0  0  0  0
    3.9890    0.0000    0.0000 C   0  0  0  0  0  0  0  0  0  0  0  0
    4.6529   -1.1542    0.0000 C   0  0  0  0  0  0  0  0  0  0  0  0
    3.9890   -2.3025    0.0000 C   0  0  0  0  0  0  0  0  0  0  0  0
    5.9806   -1.1542    0.0000 C   0  0  0  0  0  0  0  0  0  0  0  0
    2.6554   -2.3025    0.0000 C   0  0  0  0  0  0  0  0  0  0  0  0
  1  2  1  0  0  0  0
  2  3  1  0  0  0  0
  3  4  2  0  0  0  0
  3  9  1  0  0  0  0
  4  5  1  0  0  0  0
  5  6  2  0  0  0  0
  6  7  1  0  0  0  0
  6  8  1  0  0  0  0
  7  9  2  0  0  0  0
M  END
> <ID>
4275

> <Formula>
C8H10O

> <FW>
122.1644

> <DSSTox_CID>
5574

> <DSSTox_RID>
77837

> <DSSTox_GSID>
25574

> <DSSTox_FileID_Sort>
2520

> <TS_ChemName>
4-Methylbenzyl alcohol

> <TS_ChemName_Synonyms>


> <TS_CASRN>
589-18-4

> <CASRN_ChemName_Relationship>
primary

> <TS_Description>
single chemical compound

> <ChemNote>


> <STRUCTURE_Shown>
tested chemical

> <STRUCTURE_Formula>
C8H10O

> <STRUCTURE_MW>
122.1644

> <STRUCTURE_ChemType>
defined organic

> <STRUCTURE_DefinedOrganicForm>
parent

> <STRUCTURE_IUPAC>
(4-methylphenyl)methanol

> <STRUCTURE_SMILES>
Cc1ccc(CO)cc1

> <STRUCTURE_SMILES_Desalt>
Cc1ccc(CO)cc1

> <Substance_modify_yyyymmdd>
20080429

$$$$
