589-68-4
ChemmineR-0915142007XD

 21 20  0  0  0  0  0  0  0  0  1 V2000
   14.9803   -1.3279    0.0000 C   0  0  0  0  0  0  0  0  0  0  0  0
   14.9803    0.0000    0.0000 O   0  0  0  0  0  0  0  0  0  0  0  0
   16.1422   -1.9918    0.0000 O   0  0  0  0  0  0  0  0  0  0  0  0
   13.8391   -1.9918    0.0000 C   0  0  0  0  0  0  0  0  0  0  0  0
   12.6772   -1.3279    0.0000 C   0  0  0  0  0  0  0  0  0  0  0  0
    1.1412   -1.3279    0.0000 C   0  0  0  0  0  0  0  0  0  0  0  0
    2.3031   -1.9918    0.0000 C   0  0  0  0  0  0  0  0  0  0  0  0
    9.2330   -1.9918    0.0000 C   0  0  0  0  0  0  0  0  0  0  0  0
    8.0711   -1.3279    0.0000 C   0  0  0  0  0  0  0  0  0  0  0  0
    6.9092   -1.9918    0.0000 C   0  0  0  0  0  0  0  0  0  0  0  0
    5.7680   -1.3279    0.0000 C   0  0  0  0  0  0  0  0  0  0  0  0
    4.6061   -1.9918    0.0000 C   0  0  0  0  0  0  0  0  0  0  0  0
    3.4442   -1.3279    0.0000 C   0  0  0  0  0  0  0  0  0  0  0  0
   11.5153   -1.9918    0.0000 C   0  0  0  0  0  0  0  0  0  0  0  0
   10.3741   -1.3279    0.0000 C   0  0  0  0  0  0  0  0  0  0  0  0
    0.0000   -1.9918    0.0000 C   0  0  0  0  0  0  0  0  0  0  0  0
   17.3041   -1.3279    0.0000 C   0  0  0  0  0  0  0  0  0  0  0  0
   18.4452   -1.9918    0.0000 C   0  0  0  0  0  0  0  0  0  0  0  0
   19.6071   -1.3279    0.0000 C   0  0  0  0  0  0  0  0  0  0  0  0
   18.4452   -3.3197    0.0000 O   0  0  0  0  0  0  0  0  0  0  0  0
   20.7483   -1.9918    0.0000 O   0  0  0  0  0  0  0  0  0  0  0  0
  1  2  2  0  0  0  0
  1  3  1  0  0  0  0
  1  4  1  0  0  0  0
  3 17  1  0  0  0  0
  4  5  1  0  0  0  0
  5 14  1  0  0  0  0
  6  7  1  0  0  0  0
  6 16  1  0  0  0  0
  7 13  1  0  0  0  0
  8 15  1  0  0  0  0
  8  9  1  0  0  0  0
  9 10  1  0  0  0  0
 10 11  1  0  0  0  0
 11 12  1  0  0  0  0
 12 13  1  0  0  0  0
 14 15  1  0  0  0  0
 17 18  1  0  0  0  0
 18 19  1  0  0  0  0
 18 20  1  0  0  0  0
 19 21  1  0  0  0  0
M  END
> <ID>
8939

> <Formula>
C17H34O4

> <FW>
302.4495

> <DSSTox_CID>
22005

> <DSSTox_RID>
80029

> <DSSTox_GSID>
42454

> <DSSTox_FileID_Sort>
4711

> <TS_ChemName>
Tetradecanoic acid, 2,3-dihydroxypropyl ester

> <TS_ChemName_Synonyms>


> <TS_CASRN>
589-68-4

> <CASRN_ChemName_Relationship>
primary

> <TS_Description>
single chemical compound

> <ChemNote>


> <STRUCTURE_Shown>
tested chemical

> <STRUCTURE_Formula>
C17H34O4

> <STRUCTURE_MW>
302.4495

> <STRUCTURE_ChemType>
defined organic

> <STRUCTURE_DefinedOrganicForm>
parent

> <STRUCTURE_IUPAC>
2,3-dihydroxypropyl tetradecanoate

> <STRUCTURE_SMILES>
OCC(O)COC(=O)CCCCCCCCCCCCC

> <STRUCTURE_SMILES_Desalt>
OCC(O)COC(=O)CCCCCCCCCCCCC

> <Substance_modify_yyyymmdd>
20080825

$$$$
