589-34-4
ChemmineR-0915142007XD

  7  6  0  0  0  0  0  0  0  0  1 V2000
    0.0000   -0.6582    0.0000 C   0  0  0  0  0  0  0  0  0  0  0  0
    1.1606    0.0000    0.0000 C   0  0  0  0  0  0  0  0  0  0  0  0
    2.3154   -0.6582    0.0000 C   0  0  0  0  0  0  0  0  0  0  0  0
    3.4760    0.0000    0.0000 C   0  0  0  0  0  0  0  0  0  0  0  0
    4.6308   -0.6582    0.0000 C   0  0  0  0  0  0  0  0  0  0  0  0
    5.7740    0.0000    0.0000 C   0  0  0  0  0  0  0  0  0  0  0  0
    2.3154   -1.9920    0.0000 C   0  0  0  0  0  0  0  0  0  0  0  0
  1  2  1  0  0  0  0
  2  3  1  0  0  0  0
  3  4  1  0  0  0  0
  3  7  1  0  0  0  0
  4  5  1  0  0  0  0
  5  6  1  0  0  0  0
M  END
> <ID>
5757

> <Formula>
C7H16

> <FW>
100.2019

> <DSSTox_CID>
8974

> <DSSTox_RID>
80156

> <DSSTox_GSID>
44334

> <DSSTox_FileID_Sort>
4838

> <TS_ChemName>
3-Methylhexane

> <TS_ChemName_Synonyms>


> <TS_CASRN>
589-34-4

> <CASRN_ChemName_Relationship>
primary

> <TS_Description>
single chemical compound

> <ChemNote>


> <STRUCTURE_Shown>
tested chemical

> <STRUCTURE_Formula>
C7H16

> <STRUCTURE_MW>
100.2019

> <STRUCTURE_ChemType>
defined organic

> <STRUCTURE_DefinedOrganicForm>
parent

> <STRUCTURE_IUPAC>
3-methylhexane

> <STRUCTURE_SMILES>
CC(CC)CCC

> <STRUCTURE_SMILES_Desalt>
CC(CC)CCC

> <Substance_modify_yyyymmdd>
20090617

$$$$
