58918-34-6
ChemmineR-0915142007XD

 25 27  0  0  1  0  0  0  0  0  1 V2000
    4.2166   -4.5401    0.0000 C    0  0  0  0  0  0  0  0  0  0  0  0
    3.3062   -3.6536    0.0000 C    0  0  0  0  0  0  0  0  0  0  0  0
    5.4864   -1.4614    0.0000 C    0  0  0  0  0  0  0  0  0  0  0  0
    5.4864   -3.8333    0.0000 C    0  0  0  0  0  0  0  0  0  0  0  0
    6.3848   -2.3838    0.0000 N    0  0  0  0  0  0  0  0  0  0  0  0
    3.3062   -2.3838    0.0000 C    0  0  0  0  0  0  0  0  0  0  0  0
    4.2166   -1.4614    0.0000 C    0  0  0  0  0  0  0  0  0  0  0  0
    5.4864   -4.5401    0.0000 C    0  0  0  0  0  0  0  0  0  0  0  0
    6.3848   -3.6536    0.0000 C    0  0  0  0  0  0  0  0  0  0  0  0
    2.2041   -4.2765    0.0000 C    0  0  0  0  0  0  0  0  0  0  0  0
    7.5468   -1.9286    0.0000 C    0  0  0  0  0  0  0  0  0  0  0  0
    2.2041   -1.7370    0.0000 C    0  0  0  0  0  0  0  0  0  0  0  0
    1.1021   -3.6536    0.0000 C    0  0  0  0  0  0  0  0  0  0  0  0
    3.7375   -5.7020    0.0000 C    0  0  0  0  0  0  0  0  0  0  0  0
    8.6728   -2.5515    0.0000 C    0  0  0  0  0  0  0  0  0  0  0  0
    1.1021   -2.3838    0.0000 C    0  0  0  0  0  0  0  0  0  0  0  0
    6.9598   -4.3724    0.0000 C    0  0  0  0  0  0  0  0  0  0  0  0
    9.7749   -1.9286    0.0000 C    0  0  0  0  0  0  0  0  0  0  0  0
    0.0000   -4.2765    0.0000 O    0  0  0  0  0  0  0  0  0  0  0  0
    9.7749   -0.6588    0.0000 C    0  0  0  0  0  0  0  0  0  0  0  0
   10.8770   -2.5515    0.0000 C    0  0  0  0  0  0  0  0  0  0  0  0
   11.9791   -1.9286    0.0000 C    0  0  0  0  0  0  0  0  0  0  0  0
   10.8770    0.0000    0.0000 C    0  0  0  0  0  0  0  0  0  0  0  0
   11.9791   -0.6588    0.0000 C    0  0  0  0  0  0  0  0  0  0  0  0
    9.9187   -3.7015    0.0000 Br   0  0  0  0  0  0  0  0  0  0  0  0
  1  2  1  0  0  0  0
  1  4  1  0  0  0  0
  1  8  1  1  0  0  0
  1 14  1  0  0  0  0
  2  6  2  0  0  0  0
  2 10  1  0  0  0  0
  3  4  1  0  0  0  0
  3  7  1  1  0  0  0
  3  5  1  0  0  0  0
  4 17  1  6  0  0  0
  5  9  1  0  0  0  0
  5 11  1  0  0  0  0
  6 12  1  0  0  0  0
  6  7  1  0  0  0  0
  8  9  1  0  0  0  0
 10 13  2  0  0  0  0
 11 15  1  0  0  0  0
 12 16  2  0  0  0  0
 13 16  1  0  0  0  0
 13 19  1  0  0  0  0
 15 18  1  0  0  0  0
 18 20  2  0  0  0  0
 18 21  1  0  0  0  0
 20 23  1  0  0  0  0
 21 22  2  0  0  0  0
 22 24  1  0  0  0  0
 23 24  2  0  0  0  0
M  END
> <ID>
13915

> <Formula>
C22H28BrNO

> <FW>
402.3678 (321.4559+80.9119)

> <DSSTox_CID>
28852

> <DSSTox_RID>
83121

> <DSSTox_GSID>
48926

> <DSSTox_FileID_Sort>
7798

> <TS_ChemName>
(-)-Phenazocine hydrobromide

> <TS_ChemName_Synonyms>


> <TS_CASRN>
58918-34-6

> <CASRN_ChemName_Relationship>
primary

> <TS_Description>
single chemical compound

> <ChemNote>
absolute stereochem; parent [58640-87-2]

> <STRUCTURE_Shown>
tested chemical

> <STRUCTURE_Formula>
C22H28BrNO

> <STRUCTURE_MW>
402.3678

> <STRUCTURE_ChemType>
defined organic

> <STRUCTURE_DefinedOrganicForm>
complex

> <STRUCTURE_IUPAC>
(2R,6R,11R)-6,11-dimethyl-3-(2-phenylethyl)-1,2,3,4,5,6-hexahydro-2,6-methano-3-benzazocin-8-ol hydrobromide (1:1)

> <STRUCTURE_SMILES>
Br.Oc3ccc4C[C@@H]2[C@H](C)[C@@](C)(CCN2CCc1ccccc1)c4c3

> <STRUCTURE_SMILES_Desalt>
Oc3ccc4C[C@@H]2[C@H](C)[C@@](C)(CCN2CCc1ccccc1)c4c3

> <Substance_modify_yyyymmdd>
20111207

$$$$
