5892-10-4
ChemmineR-0915142007XD

  8  7  0  0  0  0  0  0  0  0  1 V2000
    6.9115   -1.9974    0.0000 O    0  0  0  0  0  0  0  0  0  0  0  0
    5.7573   -1.3339    0.0000 Bi   0  0  0  0  0  0  0  0  0  0  0  0
    4.6100   -1.9974    0.0000 O    0  0  0  0  0  0  0  0  0  0  0  0
    3.4558   -1.3339    0.0000 C    0  0  0  0  0  0  0  0  0  0  0  0
    3.4558    0.0000    0.0000 O    0  0  0  0  0  0  0  0  0  0  0  0
    2.3015   -1.9974    0.0000 O    0  0  0  0  0  0  0  0  0  0  0  0
    1.1542   -1.3339    0.0000 Bi   0  0  0  0  0  0  0  0  0  0  0  0
    0.0000   -1.9974    0.0000 O    0  0  0  0  0  0  0  0  0  0  0  0
  1  2  2  0  0  0  0
  2  3  1  0  0  0  0
  3  4  1  0  0  0  0
  4  5  2  0  0  0  0
  4  6  1  0  0  0  0
  6  7  1  0  0  0  0
  7  8  2  0  0  0  0
M  END
> <ID>
11751

> <Formula>
CBi2O5

> <FW>
509.9685

> <DSSTox_CID>
26518

> <DSSTox_RID>
81685

> <DSSTox_GSID>
46518

> <DSSTox_FileID_Sort>
6366

> <TS_ChemName>
Bismuth(III) carbonate

> <TS_ChemName_Synonyms>


> <TS_CASRN>
5892-10-4

> <CASRN_ChemName_Relationship>
primary

> <TS_Description>
single chemical compound

> <ChemNote>


> <STRUCTURE_Shown>
tested chemical

> <STRUCTURE_Formula>
CBi2O5

> <STRUCTURE_MW>
509.9685

> <STRUCTURE_ChemType>
inorganic

> <STRUCTURE_DefinedOrganicForm>


> <STRUCTURE_IUPAC>
1,3,5-trioxo-2,4-dioxa-1,5-dibismapentane

> <STRUCTURE_SMILES>
O=C(O[Bi]=O)O[Bi]=O

> <STRUCTURE_SMILES_Desalt>
O=C(O[Bi]=O)O[Bi]=O

> <Substance_modify_yyyymmdd>
20110811

$$$$
