59-06-3
ChemmineR-0915142007XD

 17 17  0  0  0  0  0  0  0  0  1 V2000
    2.3115   -2.6590    0.0000 C   0  0  0  0  0  0  0  0  0  0  0  0
    3.4673   -2.0044    0.0000 C   0  0  0  0  0  0  0  0  0  0  0  0
    1.1396   -2.0044    0.0000 C   0  0  0  0  0  0  0  0  0  0  0  0
    4.6149   -2.6590    0.0000 C   0  0  0  0  0  0  0  0  0  0  0  0
    2.3115   -3.9764    0.0000 C   0  0  0  0  0  0  0  0  0  0  0  0
    6.9264   -3.9603    0.0000 C   0  0  0  0  0  0  0  0  0  0  0  0
    5.7869   -4.6473    0.0000 N   0  0  0  0  0  0  0  0  0  0  0  0
    4.6149   -3.9764    0.0000 C   0  0  0  0  0  0  0  0  0  0  0  0
    1.1396   -0.6708    0.0000 O   0  0  0  0  0  0  0  0  0  0  0  0
    6.9264   -2.6267    0.0000 O   0  0  0  0  0  0  0  0  0  0  0  0
    3.4673   -4.6473    0.0000 C   0  0  0  0  0  0  0  0  0  0  0  0
    3.4673   -0.6708    0.0000 O   0  0  0  0  0  0  0  0  0  0  0  0
    0.0000   -2.6752    0.0000 O   0  0  0  0  0  0  0  0  0  0  0  0
    8.0822   -4.6149    0.0000 C   0  0  0  0  0  0  0  0  0  0  0  0
    4.6149    0.0000    0.0000 C   0  0  0  0  0  0  0  0  0  0  0  0
    0.0000   -4.0088    0.0000 C   0  0  0  0  0  0  0  0  0  0  0  0
    5.7545   -0.6708    0.0000 C   0  0  0  0  0  0  0  0  0  0  0  0
  1  2  1  0  0  0  0
  1  3  1  0  0  0  0
  1  5  2  0  0  0  0
  2  4  2  0  0  0  0
  2 12  1  0  0  0  0
  3  9  2  0  0  0  0
  3 13  1  0  0  0  0
  4  8  1  0  0  0  0
  5 11  1  0  0  0  0
  6  7  1  0  0  0  0
  6 10  2  0  0  0  0
  6 14  1  0  0  0  0
  7  8  1  0  0  0  0
  8 11  2  0  0  0  0
 12 15  1  0  0  0  0
 13 16  1  0  0  0  0
 15 17  1  0  0  0  0
M  END
> <ID>
11558

> <Formula>
C12H15NO4

> <FW>
237.2518

> <DSSTox_CID>
26264

> <DSSTox_RID>
81491

> <DSSTox_GSID>
46264

> <DSSTox_FileID_Sort>
6172

> <TS_ChemName>
Ethopabate

> <TS_ChemName_Synonyms>


> <TS_CASRN>
59-06-3

> <CASRN_ChemName_Relationship>
primary

> <TS_Description>
single chemical compound

> <ChemNote>


> <STRUCTURE_Shown>
tested chemical

> <STRUCTURE_Formula>
C12H15NO4

> <STRUCTURE_MW>
237.2518

> <STRUCTURE_ChemType>
defined organic

> <STRUCTURE_DefinedOrganicForm>
parent

> <STRUCTURE_IUPAC>
methyl 4-(acetylamino)-2-ethoxybenzoate

> <STRUCTURE_SMILES>
CCOc1cc(ccc1C(=O)OC)NC(C)=O

> <STRUCTURE_SMILES_Desalt>
CCOc1cc(ccc1C(=O)OC)NC(C)=O

> <Substance_modify_yyyymmdd>
20110816

$$$$
