59-02-9
ChemmineR-0915142007XD

 31 32  0  0  1  0  0  0  0  0  1 V2000
   16.2081   -1.3299    0.0000 O   0  0  0  0  0  0  0  0  0  0  0  0
   17.3925   -1.9533    0.0000 C   0  0  0  0  0  0  0  0  0  0  0  0
   17.3925   -3.3247    0.0000 C   0  0  0  0  0  0  0  0  0  0  0  0
   16.2081   -3.9689    0.0000 C   0  0  0  0  0  0  0  0  0  0  0  0
   15.0236   -3.3247    0.0000 C   0  0  0  0  0  0  0  0  0  0  0  0
   15.0236   -1.9533    0.0000 C   0  0  0  0  0  0  0  0  0  0  0  0
   18.4938   -1.3299    0.0000 C   0  0  0  0  0  0  0  0  0  0  0  0
   19.6783   -1.9533    0.0000 C   0  0  0  0  0  0  0  0  0  0  0  0
   19.6783   -3.3247    0.0000 C   0  0  0  0  0  0  0  0  0  0  0  0
   18.4938   -3.9689    0.0000 C   0  0  0  0  0  0  0  0  0  0  0  0
   20.7796   -3.9689    0.0000 O   0  0  0  0  0  0  0  0  0  0  0  0
   13.9223   -1.3299    0.0000 C   0  0  0  0  0  0  0  0  0  0  0  0
   18.4938   -5.2780    0.0000 C   0  0  0  0  0  0  0  0  0  0  0  0
   20.7796   -1.3299    0.0000 C   0  0  0  0  0  0  0  0  0  0  0  0
   18.4938    0.0000    0.0000 C   0  0  0  0  0  0  0  0  0  0  0  0
   13.8392   -2.6390    0.0000 C   0  0  0  0  0  0  0  0  0  0  0  0
   12.7379   -1.9533    0.0000 C   0  0  0  0  0  0  0  0  0  0  0  0
   11.5742   -2.6390    0.0000 C   0  0  0  0  0  0  0  0  0  0  0  0
   10.3898   -1.9533    0.0000 C   0  0  0  0  0  0  0  0  0  0  0  0
    9.2885   -2.6390    0.0000 C   0  0  0  0  0  0  0  0  0  0  0  0
    8.1040   -1.9533    0.0000 C   0  0  0  0  0  0  0  0  0  0  0  0
    6.9404   -2.6390    0.0000 C   0  0  0  0  0  0  0  0  0  0  0  0
    5.8183   -1.9533    0.0000 C   0  0  0  0  0  0  0  0  0  0  0  0
    4.6338   -2.6390    0.0000 C   0  0  0  0  0  0  0  0  0  0  0  0
    3.4494   -1.9533    0.0000 C   0  0  0  0  0  0  0  0  0  0  0  0
    2.3481   -2.6390    0.0000 C   0  0  0  0  0  0  0  0  0  0  0  0
    1.1637   -1.9533    0.0000 C   0  0  0  0  0  0  0  0  0  0  0  0
    0.0000   -2.6390    0.0000 C   0  0  0  0  0  0  0  0  0  0  0  0
   10.3898   -0.6442    0.0000 C   0  0  0  0  0  0  0  0  0  0  0  0
    5.8183   -0.6442    0.0000 C   0  0  0  0  0  0  0  0  0  0  0  0
    1.1637   -0.6442    0.0000 C   0  0  0  0  0  0  0  0  0  0  0  0
  1  2  1  0  0  0  0
  1  6  1  0  0  0  0
  2  3  2  0  0  0  0
  2  7  1  0  0  0  0
  3  4  1  0  0  0  0
  3 10  1  0  0  0  0
  4  5  1  0  0  0  0
  5  6  1  0  0  0  0
  6 12  1  0  0  0  0
  6 16  1  1  0  0  0
  7  8  2  0  0  0  0
  7 15  1  0  0  0  0
  8  9  1  0  0  0  0
  8 14  1  0  0  0  0
  9 10  2  0  0  0  0
  9 11  1  0  0  0  0
 10 13  1  0  0  0  0
 16 17  1  0  0  0  0
 17 18  1  0  0  0  0
 18 19  1  0  0  0  0
 19 20  1  0  0  0  0
 19 29  1  1  0  0  0
 20 21  1  0  0  0  0
 21 22  1  0  0  0  0
 22 23  1  0  0  0  0
 23 24  1  0  0  0  0
 23 30  1  1  0  0  0
 24 25  1  0  0  0  0
 25 26  1  0  0  0  0
 26 27  1  0  0  0  0
 27 28  1  0  0  0  0
 27 31  1  0  0  0  0
M  END
> <ID>
4655

> <Formula>
C29H50O2

> <FW>
430.7061

> <DSSTox_CID>
6339

> <DSSTox_RID>
78103

> <DSSTox_GSID>
26339

> <DSSTox_FileID_Sort>
2786

> <TS_ChemName>
Vitamin E

> <TS_ChemName_Synonyms>
d-alpha-Tocopherol; 2H-1-Benzopyran-6-ol, 3,4-dihydro-2,5,7,8-tetramethyl-2-[(4R,8R)-4,8,12-trimethyltridecyl]-, (2R)-

> <TS_CASRN>
59-02-9

> <CASRN_ChemName_Relationship>
primary

> <TS_Description>
single chemical compound

> <ChemNote>
stereochem

> <STRUCTURE_Shown>
tested chemical

> <STRUCTURE_Formula>
C29H50O2

> <STRUCTURE_MW>
430.7061

> <STRUCTURE_ChemType>
defined organic

> <STRUCTURE_DefinedOrganicForm>
parent

> <STRUCTURE_IUPAC>
(2R)-2,5,7,8-tetramethyl-2-[(4R,8R)-4,8,12-trimethyltridecyl]-3,4-dihydro-2H-chromen-6-ol

> <STRUCTURE_SMILES>
CC(C)CCC[C@@H](C)CCC[C@@H](C)CCC[C@]1(C)CCc2c(O1)c(C)c(C)c(O)c2C

> <STRUCTURE_SMILES_Desalt>
CC(C)CCC[C@@H](C)CCC[C@@H](C)CCC[C@]1(C)CCc2c(O1)c(C)c(C)c(O)c2C

> <Substance_modify_yyyymmdd>
20080429

$$$$
