59-39-2
ChemmineR-0915142007XD

 17 19  0  0  0  0  0  0  0  0  1 V2000
    0.0000   -0.6629    0.0000 C   0  0  0  0  0  0  0  0  0  0  0  0
    1.1509    0.0000    0.0000 C   0  0  0  0  0  0  0  0  0  0  0  0
    2.3018   -0.6629    0.0000 C   0  0  0  0  0  0  0  0  0  0  0  0
    2.3018   -1.9980    0.0000 N   0  0  0  0  0  0  0  0  0  0  0  0
    1.1509   -2.6609    0.0000 C   0  0  0  0  0  0  0  0  0  0  0  0
    0.0000   -1.9980    0.0000 C   0  0  0  0  0  0  0  0  0  0  0  0
    3.4528   -2.6609    0.0000 C   0  0  0  0  0  0  0  0  0  0  0  0
    4.6037   -1.9980    0.0000 C   0  0  0  0  0  0  0  0  0  0  0  0
    4.6037   -0.6629    0.0000 C   0  0  0  0  0  0  0  0  0  0  0  0
    5.7546    0.0000    0.0000 O   0  0  0  0  0  0  0  0  0  0  0  0
    6.9055   -0.6629    0.0000 C   0  0  0  0  0  0  0  0  0  0  0  0
    8.0564    0.0000    0.0000 C   0  0  0  0  0  0  0  0  0  0  0  0
    9.2074   -0.6629    0.0000 C   0  0  0  0  0  0  0  0  0  0  0  0
    9.2074   -1.9980    0.0000 C   0  0  0  0  0  0  0  0  0  0  0  0
    8.0564   -2.6609    0.0000 C   0  0  0  0  0  0  0  0  0  0  0  0
    6.9055   -1.9980    0.0000 C   0  0  0  0  0  0  0  0  0  0  0  0
    5.7546   -2.6609    0.0000 O   0  0  0  0  0  0  0  0  0  0  0  0
  1  2  1  0  0  0  0
  1  6  1  0  0  0  0
  2  3  1  0  0  0  0
  3  4  1  0  0  0  0
  4  5  1  0  0  0  0
  4  7  1  0  0  0  0
  5  6  1  0  0  0  0
  7  8  1  0  0  0  0
  8  9  1  0  0  0  0
  8 17  1  0  0  0  0
  9 10  1  0  0  0  0
 10 11  1  0  0  0  0
 11 12  2  0  0  0  0
 11 16  1  0  0  0  0
 12 13  1  0  0  0  0
 13 14  2  0  0  0  0
 14 15  1  0  0  0  0
 15 16  2  0  0  0  0
 16 17  1  0  0  0  0
M  END
> <ID>
11563

> <Formula>
C14H19NO2

> <FW>
233.3062

> <DSSTox_CID>
26269

> <DSSTox_RID>
81496

> <DSSTox_GSID>
46269

> <DSSTox_FileID_Sort>
6177

> <TS_ChemName>
Piperoxan

> <TS_ChemName_Synonyms>


> <TS_CASRN>
59-39-2

> <CASRN_ChemName_Relationship>
primary

> <TS_Description>
single chemical compound

> <ChemNote>


> <STRUCTURE_Shown>
tested chemical

> <STRUCTURE_Formula>
C14H19NO2

> <STRUCTURE_MW>
233.3062

> <STRUCTURE_ChemType>
defined organic

> <STRUCTURE_DefinedOrganicForm>
parent

> <STRUCTURE_IUPAC>
1-(2,3-dihydro-1,4-benzodioxin-2-ylmethyl)piperidine

> <STRUCTURE_SMILES>
c1ccc2OC(COc2c1)CN3CCCCC3

> <STRUCTURE_SMILES_Desalt>
c1ccc2OC(COc2c1)CN3CCCCC3

> <Substance_modify_yyyymmdd>
20110816

$$$$
