59-40-5
ChemmineR-0915142007XD

 21 23  0  0  0  0  0  0  0  0  1 V2000
    6.9307   -1.1436    0.0000 S   0  0  0  0  0  0  0  0  0  0  0  0
    5.7640   -0.4967    0.0000 N   0  0  0  0  0  0  0  0  0  0  0  0
    4.5974   -1.1436    0.0000 C   0  0  0  0  0  0  0  0  0  0  0  0
    3.4423   -0.4967    0.0000 N   0  0  0  0  0  0  0  0  0  0  0  0
    3.4423   -3.1419    0.0000 N   0  0  0  0  0  0  0  0  0  0  0  0
    8.0743   -1.8366    0.0000 C   0  0  0  0  0  0  0  0  0  0  0  0
    6.2607   -2.3102    0.0000 O   0  0  0  0  0  0  0  0  0  0  0  0
    7.6007    0.0000    0.0000 O   0  0  0  0  0  0  0  0  0  0  0  0
    2.2987   -1.1436    0.0000 C   0  0  0  0  0  0  0  0  0  0  0  0
    2.2987   -2.4720    0.0000 C   0  0  0  0  0  0  0  0  0  0  0  0
    4.5974   -2.4720    0.0000 C   0  0  0  0  0  0  0  0  0  0  0  0
    9.2294   -1.1667    0.0000 C   0  0  0  0  0  0  0  0  0  0  0  0
    8.0743   -3.1650    0.0000 C   0  0  0  0  0  0  0  0  0  0  0  0
   10.3845   -3.1650    0.0000 C   0  0  0  0  0  0  0  0  0  0  0  0
   11.5512   -3.8350    0.0000 N   0  0  0  0  0  0  0  0  0  0  0  0
    9.2294   -3.8234    0.0000 C   0  0  0  0  0  0  0  0  0  0  0  0
   10.3845   -1.8366    0.0000 C   0  0  0  0  0  0  0  0  0  0  0  0
    1.1551   -0.4967    0.0000 C   0  0  0  0  0  0  0  0  0  0  0  0
    1.1551   -3.1419    0.0000 C   0  0  0  0  0  0  0  0  0  0  0  0
    0.0000   -1.1436    0.0000 C   0  0  0  0  0  0  0  0  0  0  0  0
    0.0000   -2.4720    0.0000 C   0  0  0  0  0  0  0  0  0  0  0  0
  1  2  1  0  0  0  0
  1  6  1  0  0  0  0
  1  7  2  0  0  0  0
  1  8  2  0  0  0  0
  2  3  1  0  0  0  0
  3  4  1  0  0  0  0
  3 11  2  0  0  0  0
  4  9  2  0  0  0  0
  5 11  1  0  0  0  0
  5 10  2  0  0  0  0
  6 12  2  0  0  0  0
  6 13  1  0  0  0  0
  9 18  1  0  0  0  0
  9 10  1  0  0  0  0
 10 19  1  0  0  0  0
 12 17  1  0  0  0  0
 13 16  2  0  0  0  0
 14 16  1  0  0  0  0
 14 15  1  0  0  0  0
 14 17  2  0  0  0  0
 18 20  2  0  0  0  0
 19 21  2  0  0  0  0
 20 21  1  0  0  0  0
M  END
> <ID>
9337

> <Formula>
C14H12N4O2S

> <FW>
300.3357

> <DSSTox_CID>
22424

> <DSSTox_RID>
80021

> <DSSTox_GSID>
42424

> <DSSTox_FileID_Sort>
4703

> <TS_ChemName>
Sulfaquinoxaline

> <TS_ChemName_Synonyms>


> <TS_CASRN>
59-40-5

> <CASRN_ChemName_Relationship>
primary

> <TS_Description>
single chemical compound

> <ChemNote>


> <STRUCTURE_Shown>
tested chemical

> <STRUCTURE_Formula>
C14H12N4O2S

> <STRUCTURE_MW>
300.3357

> <STRUCTURE_ChemType>
defined organic

> <STRUCTURE_DefinedOrganicForm>
parent

> <STRUCTURE_IUPAC>
4-amino-N-(quinoxalin-2-yl)benzenesulfonamide

> <STRUCTURE_SMILES>
Nc1ccc(cc1)S(=O)(=O)Nc2cnc3ccccc3n2

> <STRUCTURE_SMILES_Desalt>
Nc1ccc(cc1)S(=O)(=O)Nc2cnc3ccccc3n2

> <Substance_modify_yyyymmdd>
20080825

$$$$
