59-49-4
ChemmineR-0915142007XD

 10 11  0  0  0  0  0  0  0  0  1 V2000
    0.0000   -0.6754    0.0000 C   0  0  0  0  0  0  0  0  0  0  0  0
    0.0000   -2.0034    0.0000 C   0  0  0  0  0  0  0  0  0  0  0  0
    1.1521    0.0000    0.0000 C   0  0  0  0  0  0  0  0  0  0  0  0
    1.1521   -2.6618    0.0000 C   0  0  0  0  0  0  0  0  0  0  0  0
    2.3099   -0.6754    0.0000 C   0  0  0  0  0  0  0  0  0  0  0  0
    2.3099   -2.0034    0.0000 C   0  0  0  0  0  0  0  0  0  0  0  0
    4.3587   -1.3337    0.0000 C   0  0  0  0  0  0  0  0  0  0  0  0
    3.5755   -0.2554    0.0000 N   0  0  0  0  0  0  0  0  0  0  0  0
    5.6754   -1.3337    0.0000 O   0  0  0  0  0  0  0  0  0  0  0  0
    3.5755   -2.4064    0.0000 O   0  0  0  0  0  0  0  0  0  0  0  0
  1  2  1  0  0  0  0
  1  3  2  0  0  0  0
  2  4  2  0  0  0  0
  3  5  1  0  0  0  0
  4  6  1  0  0  0  0
  5  6  2  0  0  0  0
  5  8  1  0  0  0  0
  6 10  1  0  0  0  0
  7  8  1  0  0  0  0
  7  9  2  0  0  0  0
  7 10  1  0  0  0  0
M  END
> <ID>
14188

> <Formula>
C7H5NO2

> <FW>
135.1201

> <DSSTox_CID>
29280

> <DSSTox_RID>
83399

> <DSSTox_GSID>
49324

> <DSSTox_FileID_Sort>
8074

> <TS_ChemName>
2-Benzoxazolinone

> <TS_ChemName_Synonyms>


> <TS_CASRN>
59-49-4

> <CASRN_ChemName_Relationship>
primary

> <TS_Description>
single chemical compound

> <ChemNote>


> <STRUCTURE_Shown>
tested chemical

> <STRUCTURE_Formula>
C7H5NO2

> <STRUCTURE_MW>
135.1201

> <STRUCTURE_ChemType>
defined organic

> <STRUCTURE_DefinedOrganicForm>
parent

> <STRUCTURE_IUPAC>
1,3-benzoxazol-2(3H)-one

> <STRUCTURE_SMILES>
O=C1Nc2ccccc2O1

> <STRUCTURE_SMILES_Desalt>
O=C1Nc2ccccc2O1

> <Substance_modify_yyyymmdd>
20111204

$$$$
