59-52-9
ChemmineR-0915142007XD

  6  5  0  0  0  0  0  0  0  0  1 V2000
    2.3337    0.0000    0.0000 S   0  0  0  0  0  0  0  0  0  0  0  0
    2.3337   -1.3078    0.0000 C   0  0  0  0  0  0  0  0  0  0  0  0
    4.6211   -1.3263    0.0000 S   0  0  0  0  0  0  0  0  0  0  0  0
    0.0000   -1.3078    0.0000 O   0  0  0  0  0  0  0  0  0  0  0  0
    3.4704   -1.9825    0.0000 C   0  0  0  0  0  0  0  0  0  0  0  0
    1.1645   -1.9825    0.0000 C   0  0  0  0  0  0  0  0  0  0  0  0
  1  2  1  0  0  0  0
  2  5  1  0  0  0  0
  2  6  1  0  0  0  0
  3  5  1  0  0  0  0
  4  6  1  0  0  0  0
M  END
> <ID>
7768

> <Formula>
C3H8OS2

> <FW>
124.225

> <DSSTox_CID>
20461

> <DSSTox_RID>
79496

> <DSSTox_GSID>
40461

> <DSSTox_FileID_Sort>
4178

> <TS_ChemName>
Dimercaprol

> <TS_ChemName_Synonyms>


> <TS_CASRN>
59-52-9

> <CASRN_ChemName_Relationship>
primary

> <TS_Description>
single chemical compound

> <ChemNote>


> <STRUCTURE_Shown>
tested chemical

> <STRUCTURE_Formula>
C3H8OS2

> <STRUCTURE_MW>
124.225

> <STRUCTURE_ChemType>
defined organic

> <STRUCTURE_DefinedOrganicForm>
parent

> <STRUCTURE_IUPAC>
2,3-disulfanylpropan-1-ol

> <STRUCTURE_SMILES>
OCC(S)CS

> <STRUCTURE_SMILES_Desalt>
OCC(S)CS

> <Substance_modify_yyyymmdd>
20080429

$$$$
