59-58-5
ChemmineR-0915142007XD

 23 23  0  0  0  0  0  0  0  0  1 V2000
    2.3438   -0.0507    0.0000 N   0  0  0  0  0  0  0  0  0  0  0  0
    3.4840   -2.0524    0.0000 C   0  0  0  0  0  0  0  0  0  0  0  0
    3.4840   -0.7221    0.0000 C   0  0  0  0  0  0  0  0  0  0  0  0
    4.6496   -4.0415    0.0000 N   0  0  0  0  0  0  0  0  0  0  0  0
    5.7898   -4.7003    0.0000 C   0  0  0  0  0  0  0  0  0  0  0  0
    6.9554   -4.0415    0.0000 C   0  0  0  0  0  0  0  0  0  0  0  0
    4.6496   -2.7112    0.0000 C   0  0  0  0  0  0  0  0  0  0  0  0
    1.1909   -2.0397    0.0000 N   0  0  0  0  0  0  0  0  0  0  0  0
    1.1909   -0.7221    0.0000 C   0  0  0  0  0  0  0  0  0  0  0  0
    3.4840   -4.7256    0.0000 C   0  0  0  0  0  0  0  0  0  0  0  0
    2.3438   -2.7112    0.0000 C   0  0  0  0  0  0  0  0  0  0  0  0
    8.0956   -4.6876    0.0000 S   0  0  0  0  0  0  0  0  0  0  0  0
    2.3311   -4.0415    0.0000 O   0  0  0  0  0  0  0  0  0  0  0  0
    4.6496    0.0000    0.0000 N   0  0  0  0  0  0  0  0  0  0  0  0
    6.9554   -2.7112    0.0000 C   0  0  0  0  0  0  0  0  0  0  0  0
    9.2232   -4.0288    0.0000 S   0  0  0  0  0  0  0  0  0  0  0  0
    5.7898   -6.0306    0.0000 C   0  0  0  0  0  0  0  0  0  0  0  0
    8.0956   -0.7221    0.0000 O   0  0  0  0  0  0  0  0  0  0  0  0
    0.0000   -0.0760    0.0000 C   0  0  0  0  0  0  0  0  0  0  0  0
    8.0956   -2.0524    0.0000 C   0  0  0  0  0  0  0  0  0  0  0  0
   10.3634   -4.6623    0.0000 C   0  0  0  0  0  0  0  0  0  0  0  0
   11.5290   -3.9908    0.0000 C   0  0  0  0  0  0  0  0  0  0  0  0
   12.6692   -4.6496    0.0000 C   0  0  0  0  0  0  0  0  0  0  0  0
  1  3  1  0  0  0  0
  1  9  2  0  0  0  0
  2  3  2  0  0  0  0
  2  7  1  0  0  0  0
  2 11  1  0  0  0  0
  3 14  1  0  0  0  0
  4  7  1  0  0  0  0
  4  5  1  0  0  0  0
  4 10  1  0  0  0  0
  5  6  2  3  0  0  0
  5 17  1  0  0  0  0
  6 12  1  0  0  0  0
  6 15  1  0  0  0  0
  8  9  1  0  0  0  0
  8 11  2  0  0  0  0
  9 19  1  0  0  0  0
 10 13  2  0  0  0  0
 12 16  1  0  0  0  0
 15 20  1  0  0  0  0
 16 21  1  0  0  0  0
 18 20  1  0  0  0  0
 21 22  1  0  0  0  0
 22 23  1  0  0  0  0
M  END
> <ID>
11845

> <Formula>
C15H24N4O2S2

> <FW>
356.5067

> <DSSTox_CID>
26633

> <DSSTox_RID>
81780

> <DSSTox_GSID>
46633

> <DSSTox_FileID_Sort>
6461

> <TS_ChemName>
Prosultiamine

> <TS_ChemName_Synonyms>


> <TS_CASRN>
59-58-5

> <CASRN_ChemName_Relationship>
primary

> <TS_Description>
mixture of Z,E isomers

> <ChemNote>
mixture of Z,E isomers

> <STRUCTURE_Shown>
representative isomer in mixture

> <STRUCTURE_Formula>
C15H24N4O2S2

> <STRUCTURE_MW>
356.5067

> <STRUCTURE_ChemType>
defined organic

> <STRUCTURE_DefinedOrganicForm>
parent

> <STRUCTURE_IUPAC>
N-[(4-amino-2-methylpyrimidin-5-yl)methyl]-N-[5-hydroxy-3-(propyldisulfanyl)pent-2-en-2-yl]formamide

> <STRUCTURE_SMILES>
Nc1nc(C)ncc1CN(C=O)C(C)=C(CCO)SSCCC

> <STRUCTURE_SMILES_Desalt>
Nc1nc(C)ncc1CN(C=O)C(C)=C(CCO)SSCCC

> <Substance_modify_yyyymmdd>
20110809

$$$$
