59-63-2
ChemmineR-0915142007XD

 17 18  0  0  0  0  0  0  0  0  1 V2000
    2.6656   -1.4439    0.0000 C   0  0  0  0  0  0  0  0  0  0  0  0
    3.9873   -1.4439    0.0000 C   0  0  0  0  0  0  0  0  0  0  0  0
    4.6537   -2.5990    0.0000 N   0  0  0  0  0  0  0  0  0  0  0  0
    5.9866   -2.5990    0.0000 N   0  0  0  0  0  0  0  0  0  0  0  0
    6.6530   -1.4439    0.0000 C   0  0  0  0  0  0  0  0  0  0  0  0
    5.9866   -0.2999    0.0000 O   0  0  0  0  0  0  0  0  0  0  0  0
    7.9858   -1.4439    0.0000 C   0  0  0  0  0  0  0  0  0  0  0  0
    8.7633   -0.3665    0.0000 C   0  0  0  0  0  0  0  0  0  0  0  0
   10.0294   -0.7775    0.0000 C   0  0  0  0  0  0  0  0  0  0  0  0
   11.1068    0.0000    0.0000 C   0  0  0  0  0  0  0  0  0  0  0  0
   10.0294   -2.1103    0.0000 O   0  0  0  0  0  0  0  0  0  0  0  0
    8.7633   -2.5212    0.0000 N   0  0  0  0  0  0  0  0  0  0  0  0
    1.9992   -2.5990    0.0000 C   0  0  0  0  0  0  0  0  0  0  0  0
    0.6664   -2.5990    0.0000 C   0  0  0  0  0  0  0  0  0  0  0  0
    0.0000   -1.4439    0.0000 C   0  0  0  0  0  0  0  0  0  0  0  0
    0.6664   -0.2999    0.0000 C   0  0  0  0  0  0  0  0  0  0  0  0
    1.9992   -0.2999    0.0000 C   0  0  0  0  0  0  0  0  0  0  0  0
  1  2  1  0  0  0  0
  1 13  2  0  0  0  0
  1 17  1  0  0  0  0
  2  3  1  0  0  0  0
  3  4  1  0  0  0  0
  4  5  1  0  0  0  0
  5  6  2  0  0  0  0
  5  7  1  0  0  0  0
  7  8  1  0  0  0  0
  7 12  2  0  0  0  0
  8  9  2  0  0  0  0
  9 10  1  0  0  0  0
  9 11  1  0  0  0  0
 11 12  1  0  0  0  0
 13 14  1  0  0  0  0
 14 15  2  0  0  0  0
 15 16  1  0  0  0  0
 16 17  2  0  0  0  0
M  END
> <ID>
2848

> <Formula>
C12H13N3O2

> <FW>
231.2505

> <DSSTox_CID>
3171

> <DSSTox_RID>
76902

> <DSSTox_GSID>
23171

> <DSSTox_FileID_Sort>
1586

> <TS_ChemName>
Isocarboxazid

> <TS_ChemName_Synonyms>


> <TS_CASRN>
59-63-2

> <CASRN_ChemName_Relationship>
primary

> <TS_Description>
single chemical compound

> <ChemNote>


> <STRUCTURE_Shown>
tested chemical

> <STRUCTURE_Formula>
C12H13N3O2

> <STRUCTURE_MW>
231.2505

> <STRUCTURE_ChemType>
defined organic

> <STRUCTURE_DefinedOrganicForm>
parent

> <STRUCTURE_IUPAC>
N'-benzyl-5-methyl-1,2-oxazole-3-carbohydrazide

> <STRUCTURE_SMILES>
Cc1cc(no1)C(=O)NNCc2ccccc2

> <STRUCTURE_SMILES_Desalt>
Cc1cc(no1)C(=O)NNCc2ccccc2

> <Substance_modify_yyyymmdd>
20080429

$$$$
