59-96-1
ChemmineR-0915142007XD

 21 22  0  0  0  0  0  0  0  0  1 V2000
    9.2133   -2.0002    0.0000 C    0  0  0  0  0  0  0  0  0  0  0  0
   10.3637   -2.6635    0.0000 C    0  0  0  0  0  0  0  0  0  0  0  0
   10.3637   -3.9900    0.0000 C    0  0  0  0  0  0  0  0  0  0  0  0
    9.2133   -4.6637    0.0000 C    0  0  0  0  0  0  0  0  0  0  0  0
    8.0630   -3.9900    0.0000 C    0  0  0  0  0  0  0  0  0  0  0  0
    6.9126   -4.6637    0.0000 O    0  0  0  0  0  0  0  0  0  0  0  0
    5.7622   -3.9900    0.0000 C    0  0  0  0  0  0  0  0  0  0  0  0
    4.6015   -4.6637    0.0000 C    0  0  0  0  0  0  0  0  0  0  0  0
    4.6015   -5.9902    0.0000 C    0  0  0  0  0  0  0  0  0  0  0  0
    3.4511   -3.9900    0.0000 N    0  0  0  0  0  0  0  0  0  0  0  0
    2.3007   -4.6637    0.0000 C    0  0  0  0  0  0  0  0  0  0  0  0
    2.3007   -5.9902    0.0000 C    0  0  0  0  0  0  0  0  0  0  0  0
    3.4511   -6.6535    0.0000 Cl   0  0  0  0  0  0  0  0  0  0  0  0
    3.4511   -2.6635    0.0000 C    0  0  0  0  0  0  0  0  0  0  0  0
    2.3007   -2.0002    0.0000 C    0  0  0  0  0  0  0  0  0  0  0  0
    1.1504   -2.6635    0.0000 C    0  0  0  0  0  0  0  0  0  0  0  0
    0.0000   -2.0002    0.0000 C    0  0  0  0  0  0  0  0  0  0  0  0
    0.0000   -0.6736    0.0000 C    0  0  0  0  0  0  0  0  0  0  0  0
    1.1504    0.0000    0.0000 C    0  0  0  0  0  0  0  0  0  0  0  0
    2.3007   -0.6736    0.0000 C    0  0  0  0  0  0  0  0  0  0  0  0
    8.0630   -2.6635    0.0000 C    0  0  0  0  0  0  0  0  0  0  0  0
  1  2  2  0  0  0  0
  1 21  1  0  0  0  0
  2  3  1  0  0  0  0
  3  4  2  0  0  0  0
  4  5  1  0  0  0  0
  5  6  1  0  0  0  0
  5 21  2  0  0  0  0
  6  7  1  0  0  0  0
  7  8  1  0  0  0  0
  8  9  1  0  0  0  0
  8 10  1  0  0  0  0
 10 11  1  0  0  0  0
 10 14  1  0  0  0  0
 11 12  1  0  0  0  0
 12 13  1  0  0  0  0
 14 15  1  0  0  0  0
 15 16  2  0  0  0  0
 15 20  1  0  0  0  0
 16 17  1  0  0  0  0
 17 18  2  0  0  0  0
 18 19  1  0  0  0  0
 19 20  2  0  0  0  0
M  END
> <ID>
3100

> <Formula>
C18H22ClNO

> <FW>
303.8264

> <DSSTox_CID>
3458

> <DSSTox_RID>
77034

> <DSSTox_GSID>
23458

> <DSSTox_FileID_Sort>
1718

> <TS_ChemName>
Phenoxybenzamine

> <TS_ChemName_Synonyms>


> <TS_CASRN>
59-96-1

> <CASRN_ChemName_Relationship>
primary

> <TS_Description>
single chemical compound

> <ChemNote>


> <STRUCTURE_Shown>
tested chemical

> <STRUCTURE_Formula>
C18H22ClNO

> <STRUCTURE_MW>
303.8264

> <STRUCTURE_ChemType>
defined organic

> <STRUCTURE_DefinedOrganicForm>
parent

> <STRUCTURE_IUPAC>
N-benzyl-N-(2-chloroethyl)-1-phenoxypropan-2-amine

> <STRUCTURE_SMILES>
CC(COc1ccccc1)N(Cc2ccccc2)CCCl

> <STRUCTURE_SMILES_Desalt>
CC(COc1ccccc1)N(Cc2ccccc2)CCCl

> <Substance_modify_yyyymmdd>
20080429

$$$$
