59-97-2
ChemmineR-0915142007XD

 13 13  0  0  0  0  0  0  0  0  1 V2000
    4.4127   -0.6649    0.0000 C    0  0  0  0  0  0  0  0  0  0  0  0
    5.5613    0.0000    0.0000 C    0  0  0  0  0  0  0  0  0  0  0  0
    6.7165   -0.6649    0.0000 C    0  0  0  0  0  0  0  0  0  0  0  0
    6.7165   -1.9948    0.0000 C    0  0  0  0  0  0  0  0  0  0  0  0
    5.5613   -2.6597    0.0000 C    0  0  0  0  0  0  0  0  0  0  0  0
    4.4127   -1.9948    0.0000 C    0  0  0  0  0  0  0  0  0  0  0  0
    3.2575   -2.6597    0.0000 C    0  0  0  0  0  0  0  0  0  0  0  0
    2.1090   -1.9948    0.0000 C    0  0  0  0  0  0  0  0  0  0  0  0
    0.8933   -2.5321    0.0000 N    0  0  0  0  0  0  0  0  0  0  0  0
    0.0000   -1.5448    0.0000 C    0  0  0  0  0  0  0  0  0  0  0  0
    0.6649   -0.3963    0.0000 C    0  0  0  0  0  0  0  0  0  0  0  0
    1.9679   -0.6716    0.0000 N    0  0  0  0  0  0  0  0  0  0  0  0
    3.9627   -4.6545    0.0000 Cl   0  0  0  0  0  0  0  0  0  0  0  0
  1  2  2  0  0  0  0
  1  6  1  0  0  0  0
  2  3  1  0  0  0  0
  3  4  2  0  0  0  0
  4  5  1  0  0  0  0
  5  6  2  0  0  0  0
  6  7  1  0  0  0  0
  7  8  1  0  0  0  0
  8  9  2  0  0  0  0
  8 12  1  0  0  0  0
  9 10  1  0  0  0  0
 10 11  1  0  0  0  0
 11 12  1  0  0  0  0
M  END
> <ID>
1649

> <Formula>
C10H13ClN2

> <FW>
196.6766 (160.2157+36.4609)

> <DSSTox_CID>
1718

> <DSSTox_RID>
76292

> <DSSTox_GSID>
21718

> <DSSTox_FileID_Sort>
976

> <TS_ChemName>
Tolazoline hydrochloride

> <TS_ChemName_Synonyms>


> <TS_CASRN>
59-97-2

> <CASRN_ChemName_Relationship>
primary

> <TS_Description>
single chemical compound

> <ChemNote>
parent [59-98-3]

> <STRUCTURE_Shown>
tested chemical

> <STRUCTURE_Formula>
C10H13ClN2

> <STRUCTURE_MW>
196.6766

> <STRUCTURE_ChemType>
defined organic

> <STRUCTURE_DefinedOrganicForm>
complex

> <STRUCTURE_IUPAC>
2-benzyl-4,5-dihydro-1H-imidazole hydrochloride (1:1)

> <STRUCTURE_SMILES>
Cl.c2cc(CC1=NCCN1)ccc2

> <STRUCTURE_SMILES_Desalt>
c2cc(CC1=NCCN1)ccc2

> <Substance_modify_yyyymmdd>
20080429

$$$$
