590-63-6
ChemmineR-0915142007XD

 12 10  0  0  0  0  0  0  0  0  2 V2000
    5.7910   -1.3300    0.0000 C    0  0  0  0  0  0  0  0  0  0  0  0
    1.1568   -1.3508    0.0000 N    0  3  0  0  0  0  0  0  0  0  0  0
    4.6342   -1.9881    0.0000 O    0  0  0  0  0  0  0  0  0  0  0  0
    6.9271   -1.9881    0.0000 O    0  0  0  0  0  0  0  0  0  0  0  0
    5.7910    0.0000    0.0000 N    0  0  0  0  0  0  0  0  0  0  0  0
    2.3275   -2.0019    0.0000 C    0  0  0  0  0  0  0  0  0  0  0  0
    3.4635   -1.3508    0.0000 C    0  0  0  0  0  0  0  0  0  0  0  0
    1.8287   -0.1940    0.0000 C    0  0  0  0  0  0  0  0  0  0  0  0
    0.4987   -2.5007    0.0000 C    0  0  0  0  0  0  0  0  0  0  0  0
    0.0000   -0.6927    0.0000 C    0  0  0  0  0  0  0  0  0  0  0  0
    3.4635    0.0000    0.0000 C    0  0  0  0  0  0  0  0  0  0  0  0
    1.4408   -2.6946    0.0000 Cl   0  5  0  0  0  0  0  0  0  0  0  0
  1  3  1  0  0  0  0
  1  4  2  0  0  0  0
  1  5  1  0  0  0  0
  2  6  1  0  0  0  0
  2  8  1  0  0  0  0
  2  9  1  0  0  0  0
  2 10  1  0  0  0  0
  3  7  1  0  0  0  0
  6  7  1  0  0  0  0
  7 11  1  0  0  0  0
M  END
> <ID>
2422

> <Formula>
C7H17ClN2O2

> <FW>
196.6751 (161.2215+35.4535)

> <DSSTox_CID>
2676

> <DSSTox_RID>
76686

> <DSSTox_GSID>
22676

> <DSSTox_FileID_Sort>
1370

> <TS_ChemName>
Bethanechol

> <TS_ChemName_Synonyms>


> <TS_CASRN>
590-63-6

> <CASRN_ChemName_Relationship>
primary

> <TS_Description>
single chemical compound

> <ChemNote>
ammonium; parent [674-38-4]

> <STRUCTURE_Shown>
tested chemical

> <STRUCTURE_Formula>
C7H17ClN2O2

> <STRUCTURE_MW>
196.6751

> <STRUCTURE_ChemType>
defined organic

> <STRUCTURE_DefinedOrganicForm>
salt

> <STRUCTURE_IUPAC>
2-(carbamoyloxy)-N,N,N-trimethylpropan-1-aminium chloride

> <STRUCTURE_SMILES>
[Cl-].C[N+](C)(C)CC(C)OC(=O)N

> <STRUCTURE_SMILES_Desalt>
C[N+](C)(C)CC(C)OC(=O)N

> <Substance_modify_yyyymmdd>
20080429

$$$$
