590-01-2
ChemmineR-0915142007XD

  9  8  0  0  0  0  0  0  0  0  1 V2000
    5.7791   -1.3355    0.0000 C   0  0  0  0  0  0  0  0  0  0  0  0
    6.9365   -1.9911    0.0000 C   0  0  0  0  0  0  0  0  0  0  0  0
    8.0940   -1.3355    0.0000 C   0  0  0  0  0  0  0  0  0  0  0  0
    5.7791    0.0000    0.0000 O   0  0  0  0  0  0  0  0  0  0  0  0
    4.6216   -1.9911    0.0000 O   0  0  0  0  0  0  0  0  0  0  0  0
    3.4723   -1.3355    0.0000 C   0  0  0  0  0  0  0  0  0  0  0  0
    2.3149   -1.9911    0.0000 C   0  0  0  0  0  0  0  0  0  0  0  0
    1.1574   -1.3355    0.0000 C   0  0  0  0  0  0  0  0  0  0  0  0
    0.0000   -1.9911    0.0000 C   0  0  0  0  0  0  0  0  0  0  0  0
  1  2  1  0  0  0  0
  1  5  1  0  0  0  0
  1  4  2  0  0  0  0
  2  3  1  0  0  0  0
  5  6  1  0  0  0  0
  6  7  1  0  0  0  0
  7  8  1  0  0  0  0
  8  9  1  0  0  0  0
M  END
> <ID>
5005

> <Formula>
C7H14O2

> <FW>
130.1849

> <DSSTox_CID>
7223

> <DSSTox_RID>
78356

> <DSSTox_GSID>
27223

> <DSSTox_FileID_Sort>
3039

> <TS_ChemName>
Butyl propionate

> <TS_ChemName_Synonyms>
Propanoic acid, butyl ester

> <TS_CASRN>
590-01-2

> <CASRN_ChemName_Relationship>
primary

> <TS_Description>
single chemical compound

> <ChemNote>


> <STRUCTURE_Shown>
tested chemical

> <STRUCTURE_Formula>
C7H14O2

> <STRUCTURE_MW>
130.1849

> <STRUCTURE_ChemType>
defined organic

> <STRUCTURE_DefinedOrganicForm>
parent

> <STRUCTURE_IUPAC>
butyl propanoate

> <STRUCTURE_SMILES>
CCC(=O)OCCCC

> <STRUCTURE_SMILES_Desalt>
CCC(=O)OCCCC

> <Substance_modify_yyyymmdd>
20080429

$$$$
