590-46-5
ChemmineR-0915142007XD

  9  7  0  0  0  0  0  0  0  0  2 V2000
    3.4430   -1.3164    0.0000 C    0  0  0  0  0  0  0  0  0  0  0  0
    1.1599   -1.3164    0.0000 N    0  3  0  0  0  0  0  0  0  0  0  0
    4.6029   -1.9793    0.0000 O    0  0  0  0  0  0  0  0  0  0  0  0
    2.2877   -1.9931    0.0000 C    0  0  0  0  0  0  0  0  0  0  0  0
    3.4430    0.0000    0.0000 O    0  0  0  0  0  0  0  0  0  0  0  0
    0.0000   -0.6582    0.0000 C    0  0  0  0  0  0  0  0  0  0  0  0
    1.8366   -0.1749    0.0000 C    0  0  0  0  0  0  0  0  0  0  0  0
    0.4833   -2.4764    0.0000 C    0  0  0  0  0  0  0  0  0  0  0  0
    1.4315   -2.6697    0.0000 Cl   0  5  0  0  0  0  0  0  0  0  0  0
  1  3  1  0  0  0  0
  1  4  1  0  0  0  0
  1  5  2  0  0  0  0
  2  4  1  0  0  0  0
  2  6  1  0  0  0  0
  2  7  1  0  0  0  0
  2  8  1  0  0  0  0
M  END
> <ID>
10103

> <Formula>
C5H12ClNO2

> <FW>
153.6073 (118.1537+35.4535)

> <DSSTox_CID>
24446

> <DSSTox_RID>
80234

> <DSSTox_GSID>
44446

> <DSSTox_FileID_Sort>
4916

> <TS_ChemName>
Betaine hydrochloride

> <TS_ChemName_Synonyms>
Methanaminium, 1-carboxy-N,N,N-trimethyl-, chloride

> <TS_CASRN>
590-46-5

> <CASRN_ChemName_Relationship>
primary

> <TS_Description>
single chemical compound

> <ChemNote>
ammoinum; parent [107-43-7]

> <STRUCTURE_Shown>
tested chemical

> <STRUCTURE_Formula>
C5H12ClNO2

> <STRUCTURE_MW>
153.6073

> <STRUCTURE_ChemType>
defined organic

> <STRUCTURE_DefinedOrganicForm>
salt

> <STRUCTURE_IUPAC>
carboxy-N,N,N-trimethylmethanaminium chloride

> <STRUCTURE_SMILES>
[Cl-].C[N+](C)(C)CC(=O)O

> <STRUCTURE_SMILES_Desalt>
C[N+](C)(C)CC(=O)O

> <Substance_modify_yyyymmdd>
20091116

$$$$
