590-29-4
ChemmineR-0915142007XD

  4  2  0  0  0  0  0  0  0  0  2 V2000
    0.0000   -1.3171    0.0000 C   0  0  0  0  0  0  0  0  0  0  0  0
    0.0000    0.0000    0.0000 O   0  0  0  0  0  0  0  0  0  0  0  0
    1.1572   -1.9986    0.0000 O   0  5  0  0  0  0  0  0  0  0  0  0
    1.9826   -0.3657    0.0000 K   0  3  0  0  0  0  0  0  0  0  0  0
  1  2  2  0  0  0  0
  1  3  1  0  0  0  0
M  END
> <ID>
6082

> <Formula>
CHKO2

> <FW>
84.1157 (45.0180+39.0978)

> <DSSTox_CID>
9626

> <DSSTox_RID>
78791

> <DSSTox_GSID>
29626

> <DSSTox_FileID_Sort>
3473

> <TS_ChemName>
Formic acid, potassium salt

> <TS_ChemName_Synonyms>


> <TS_CASRN>
590-29-4

> <CASRN_ChemName_Relationship>
primary

> <TS_Description>
single chemical compound

> <ChemNote>
parent [64-18-6]

> <STRUCTURE_Shown>
tested chemical

> <STRUCTURE_Formula>
CHKO2

> <STRUCTURE_MW>
84.1157

> <STRUCTURE_ChemType>
defined organic

> <STRUCTURE_DefinedOrganicForm>
salt

> <STRUCTURE_IUPAC>
potassium formate

> <STRUCTURE_SMILES>
[K+].[O-]C=O

> <STRUCTURE_SMILES_Desalt>
O=CO

> <Substance_modify_yyyymmdd>
20080429

$$$$
