5902-51-2
ChemmineR-0915142007XD

 14 14  0  0  0  0  0  0  0  0  1 V2000
    3.4558   -2.0135    0.0000 N    0  0  0  0  0  0  0  0  0  0  0  0
    2.3135   -2.6712    0.0000 C    0  0  0  0  0  0  0  0  0  0  0  0
    3.4558   -0.6808    0.0000 C    0  0  0  0  0  0  0  0  0  0  0  0
    1.1654   -2.0135    0.0000 C    0  0  0  0  0  0  0  0  0  0  0  0
    2.3135   -0.0231    0.0000 N    0  0  0  0  0  0  0  0  0  0  0  0
    1.1654   -0.6808    0.0000 C    0  0  0  0  0  0  0  0  0  0  0  0
    4.6154   -2.6827    0.0000 C    0  0  0  0  0  0  0  0  0  0  0  0
    4.6039    0.0000    0.0000 O    0  0  0  0  0  0  0  0  0  0  0  0
    2.3135   -3.9981    0.0000 O    0  0  0  0  0  0  0  0  0  0  0  0
    0.0000   -2.6827    0.0000 Cl   0  0  0  0  0  0  0  0  0  0  0  0
    0.0115   -0.0115    0.0000 C    0  0  0  0  0  0  0  0  0  0  0  0
    5.2904   -1.5289    0.0000 C    0  0  0  0  0  0  0  0  0  0  0  0
    3.9577   -3.8308    0.0000 C    0  0  0  0  0  0  0  0  0  0  0  0
    5.7693   -3.3519    0.0000 C    0  0  0  0  0  0  0  0  0  0  0  0
  1  2  1  0  0  0  0
  1  3  1  0  0  0  0
  1  7  1  0  0  0  0
  2  4  1  0  0  0  0
  2  9  2  0  0  0  0
  3  5  1  0  0  0  0
  3  8  2  0  0  0  0
  4 10  1  0  0  0  0
  4  6  2  0  0  0  0
  5  6  1  0  0  0  0
  6 11  1  0  0  0  0
  7 12  1  0  0  0  0
  7 13  1  0  0  0  0
  7 14  1  0  0  0  0
M  END
> <ID>
3619

> <Formula>
C9H13ClN2O2

> <FW>
216.6647

> <DSSTox_CID>
4317

> <DSSTox_RID>
77366

> <DSSTox_GSID>
24317

> <DSSTox_FileID_Sort>
2049

> <TS_ChemName>
Terbacil

> <TS_ChemName_Synonyms>


> <TS_CASRN>
5902-51-2

> <CASRN_ChemName_Relationship>
primary

> <TS_Description>
single chemical compound

> <ChemNote>


> <STRUCTURE_Shown>
tested chemical

> <STRUCTURE_Formula>
C9H13ClN2O2

> <STRUCTURE_MW>
216.6647

> <STRUCTURE_ChemType>
defined organic

> <STRUCTURE_DefinedOrganicForm>
parent

> <STRUCTURE_IUPAC>
3-tert-butyl-5-chloro-6-methylpyrimidine-2,4(1H,3H)-dione

> <STRUCTURE_SMILES>
O=C1NC(C)=C(Cl)C(=O)N1C(C)(C)C

> <STRUCTURE_SMILES_Desalt>
O=C1NC(C)=C(Cl)C(=O)N1C(C)(C)C

> <Substance_modify_yyyymmdd>
20080429

$$$$
