5908-99-6
ChemmineR-0915142007XD

 48 50  0  0  1  0  0  0  0  0  1 V2000
    4.4125   -6.0357    0.0000 C   0  0  0  0  0  0  0  0  0  0  0  0
    4.4125   -7.4075    0.0000 C   0  0  0  0  0  0  0  0  0  0  0  0
    5.5785   -5.3727    0.0000 O   0  0  0  0  0  0  0  0  0  0  0  0
    5.5785   -8.0705    0.0000 C   0  0  0  0  0  0  0  0  0  0  0  0
    3.2465   -8.0705    0.0000 C   0  0  0  0  0  0  0  0  0  0  0  0
    2.0576   -7.4075    0.0000 O   0  0  0  0  0  0  0  0  0  0  0  0
    6.7216   -7.4075    0.0000 C   0  0  0  0  0  0  0  0  0  0  0  0
    5.5785   -9.4194    0.0000 C   0  0  0  0  0  0  0  0  0  0  0  0
    6.7216  -10.0824    0.0000 C   0  0  0  0  0  0  0  0  0  0  0  0
    7.8876   -8.0705    0.0000 C   0  0  0  0  0  0  0  0  0  0  0  0
    7.8876   -9.4194    0.0000 C   0  0  0  0  0  0  0  0  0  0  0  0
    1.5318   -2.8121    0.0000 C   0  0  0  0  0  0  0  0  0  0  0  0
    3.2693   -4.1153    0.0000 C   0  0  0  0  0  0  0  0  0  0  0  0
    2.4234   -3.4065    0.0000 C   0  0  0  0  0  0  0  0  0  0  0  0
    0.8459   -3.4065    0.0000 C   0  0  0  0  0  0  0  0  0  0  0  0
    0.6173   -2.1034    0.0000 N   0  0  0  0  0  0  0  0  0  0  0  0
    3.0407   -2.7892    0.0000 C   0  0  0  0  0  0  0  0  0  0  0  0
    0.0000   -4.5725    0.0000 C   0  0  0  0  0  0  0  0  0  0  0  0
    1.0060   -3.9552    0.0000 C   0  0  0  0  0  0  0  0  0  0  0  0
    0.4115   -1.0060    0.0000 C   0  0  0  0  0  0  0  0  0  0  0  0
    3.2465   -5.1212    0.0000 O   0  0  0  0  0  0  0  0  0  0  0  0
   15.2265   -5.0526    0.0000 C   0  0  0  0  0  0  0  0  0  0  0  0
   15.2265   -6.4015    0.0000 C   0  0  0  0  0  0  0  0  0  0  0  0
   16.3925   -4.3896    0.0000 O   0  0  0  0  0  0  0  0  0  0  0  0
   16.3925   -7.0645    0.0000 C   0  0  0  0  0  0  0  0  0  0  0  0
   14.0605   -7.0645    0.0000 C   0  0  0  0  0  0  0  0  0  0  0  0
   12.8945   -6.4015    0.0000 O   0  0  0  0  0  0  0  0  0  0  0  0
   17.5585   -6.4015    0.0000 C   0  0  0  0  0  0  0  0  0  0  0  0
   16.3925   -8.4134    0.0000 C   0  0  0  0  0  0  0  0  0  0  0  0
   17.5585   -9.0764    0.0000 C   0  0  0  0  0  0  0  0  0  0  0  0
   18.7245   -7.0645    0.0000 C   0  0  0  0  0  0  0  0  0  0  0  0
   18.7245   -8.4134    0.0000 C   0  0  0  0  0  0  0  0  0  0  0  0
   12.3458   -1.8061    0.0000 C   0  0  0  0  0  0  0  0  0  0  0  0
   14.0833   -3.1093    0.0000 C   0  0  0  0  0  0  0  0  0  0  0  0
   13.2374   -2.4234    0.0000 C   0  0  0  0  0  0  0  0  0  0  0  0
   11.6599   -2.4234    0.0000 C   0  0  0  0  0  0  0  0  0  0  0  0
   11.4313   -1.0974    0.0000 N   0  0  0  0  0  0  0  0  0  0  0  0
   13.8547   -1.7833    0.0000 C   0  0  0  0  0  0  0  0  0  0  0  0
   10.8140   -3.5666    0.0000 C   0  0  0  0  0  0  0  0  0  0  0  0
   11.8200   -2.9721    0.0000 C   0  0  0  0  0  0  0  0  0  0  0  0
   11.2484    0.0000    0.0000 C   0  0  0  0  0  0  0  0  0  0  0  0
   14.0833   -4.1381    0.0000 O   0  0  0  0  0  0  0  0  0  0  0  0
   21.3765   -1.5775    0.0000 S   0  0  0  0  0  0  0  0  0  0  0  0
   22.8626   -1.5775    0.0000 O   0  0  0  0  0  0  0  0  0  0  0  0
   19.8904   -1.5775    0.0000 O   0  0  0  0  0  0  0  0  0  0  0  0
   21.3765   -3.0636    0.0000 O   0  0  0  0  0  0  0  0  0  0  0  0
   21.3765   -0.0915    0.0000 O   0  0  0  0  0  0  0  0  0  0  0  0
   22.2682   -6.8359    0.0000 O   0  0  0  0  0  0  0  0  0  0  0  0
  1  2  1  0  0  0  0
  1  3  2  0  0  0  0
  1 21  1  0  0  0  0
  2  4  1  0  0  0  0
  2  5  1  0  0  0  0
  4  7  1  0  0  0  0
  4  8  2  0  0  0  0
  5  6  1  0  0  0  0
  7 10  2  0  0  0  0
  8  9  1  0  0  0  0
  9 11  2  0  0  0  0
 10 11  1  0  0  0  0
 12 16  1  1  0  0  0
 12 17  1  0  0  0  0
 12 19  1  0  0  0  0
 13 14  1  0  0  0  0
 13 17  1  0  0  0  0
 13 21  1  6  0  0  0
 14 15  1  0  0  0  0
 15 16  1  6  0  0  0
 15 18  1  0  0  0  0
 16 20  1  0  0  0  0
 18 19  1  0  0  0  0
 22 23  1  0  0  0  0
 22 24  2  0  0  0  0
 22 42  1  0  0  0  0
 23 25  1  0  0  0  0
 23 26  1  0  0  0  0
 25 28  1  0  0  0  0
 25 29  2  0  0  0  0
 26 27  1  0  0  0  0
 28 31  2  0  0  0  0
 29 30  1  0  0  0  0
 30 32  2  0  0  0  0
 31 32  1  0  0  0  0
 33 37  1  1  0  0  0
 33 38  1  0  0  0  0
 33 40  1  0  0  0  0
 34 35  1  0  0  0  0
 34 38  1  0  0  0  0
 34 42  1  6  0  0  0
 35 36  1  0  0  0  0
 36 37  1  6  0  0  0
 36 39  1  0  0  0  0
 37 41  1  0  0  0  0
 39 40  1  0  0  0  0
 43 44  2  0  0  0  0
 43 45  2  0  0  0  0
 43 46  1  0  0  0  0
 43 47  1  0  0  0  0
M  END
> <ID>
7920

> <Formula>
C34H50N2O11S

> <FW>
694.8326 (289.3694+289.3694+98.0785+18.0153)

> <DSSTox_CID>
20724

> <DSSTox_RID>
79571

> <DSSTox_GSID>
40724

> <DSSTox_FileID_Sort>
4253

> <TS_ChemName>
Atropine sulfate monohydrate

> <TS_ChemName_Synonyms>


> <TS_CASRN>
5908-99-6

> <CASRN_ChemName_Relationship>
primary

> <TS_Description>
single chemical compound

> <ChemNote>
stereochem; parent [51-55-8]

> <STRUCTURE_Shown>
tested chemical

> <STRUCTURE_Formula>
C34H50N2O11S

> <STRUCTURE_MW>
694.8326

> <STRUCTURE_ChemType>
defined organic

> <STRUCTURE_DefinedOrganicForm>
complex

> <STRUCTURE_IUPAC>
(3-endo)-8-methyl-8-azabicyclo[3.2.1]oct-3-yl 3-hydroxy-2-phenylpropanoate sulfate hydrate (2:1:1)

> <STRUCTURE_SMILES>
O.CN3[C@H]1CC[C@@H]3C[C@@H](C1)OC(=O)C(CO)c2ccccc2.O=S(=O)(O)O.OCC(c1ccccc1)C(=O)O[C@@H]2C[C@@H]3CC[C@H](C2)N3C

> <STRUCTURE_SMILES_Desalt>
CN3[C@H]1CC[C@@H]3C[C@@H](C1)OC(=O)C(CO)c2ccccc2

> <Substance_modify_yyyymmdd>
20080429

$$$$
