5915-41-3
ChemmineR-0915142007XD

 15 15  0  0  0  0  0  0  0  0  1 V2000
    5.7574   -1.9850    0.0000 N    0  0  0  0  0  0  0  0  0  0  0  0
    5.7574   -3.3111    0.0000 C    0  0  0  0  0  0  0  0  0  0  0  0
    4.6043   -3.9865    0.0000 N    0  0  0  0  0  0  0  0  0  0  0  0
    3.4511   -3.3111    0.0000 C    0  0  0  0  0  0  0  0  0  0  0  0
    3.4511   -1.9850    0.0000 N    0  0  0  0  0  0  0  0  0  0  0  0
    4.6043   -1.3261    0.0000 C    0  0  0  0  0  0  0  0  0  0  0  0
    6.9105   -3.9865    0.0000 N    0  0  0  0  0  0  0  0  0  0  0  0
    2.3063   -3.9865    0.0000 N    0  0  0  0  0  0  0  0  0  0  0  0
    4.6043    0.0000    0.0000 Cl   0  0  0  0  0  0  0  0  0  0  0  0
    6.9105   -5.3126    0.0000 C    0  0  0  0  0  0  0  0  0  0  0  0
    8.2366   -5.3126    0.0000 C    0  0  0  0  0  0  0  0  0  0  0  0
    5.5844   -5.3126    0.0000 C    0  0  0  0  0  0  0  0  0  0  0  0
    6.9105   -6.6387    0.0000 C    0  0  0  0  0  0  0  0  0  0  0  0
    1.1531   -3.3111    0.0000 C    0  0  0  0  0  0  0  0  0  0  0  0
    0.0000   -3.9865    0.0000 C    0  0  0  0  0  0  0  0  0  0  0  0
  1  2  2  0  0  0  0
  1  6  1  0  0  0  0
  2  3  1  0  0  0  0
  2  7  1  0  0  0  0
  3  4  2  0  0  0  0
  4  5  1  0  0  0  0
  4  8  1  0  0  0  0
  5  6  2  0  0  0  0
  6  9  1  0  0  0  0
  7 10  1  0  0  0  0
  8 14  1  0  0  0  0
 10 11  1  0  0  0  0
 10 12  1  0  0  0  0
 10 13  1  0  0  0  0
 14 15  1  0  0  0  0
M  END
> <ID>
5289

> <Formula>
C9H16ClN5

> <FW>
229.7098

> <DSSTox_CID>
7608

> <DSSTox_RID>
78528

> <DSSTox_GSID>
27608

> <DSSTox_FileID_Sort>
3211

> <TS_ChemName>
Terbuthylazine

> <TS_ChemName_Synonyms>
Terbuthylazine (1,3,5-Triazine-2,4-diamine, 6-chloro-N-(1,1-dimethylethyl)-N'-ethyl-)

> <TS_CASRN>
5915-41-3

> <CASRN_ChemName_Relationship>
primary

> <TS_Description>
single chemical compound

> <ChemNote>


> <STRUCTURE_Shown>
tested chemical

> <STRUCTURE_Formula>
C9H16ClN5

> <STRUCTURE_MW>
229.7098

> <STRUCTURE_ChemType>
defined organic

> <STRUCTURE_DefinedOrganicForm>
parent

> <STRUCTURE_IUPAC>
N-tert-butyl-6-chloro-N'-ethyl-1,3,5-triazine-2,4-diamine

> <STRUCTURE_SMILES>
Clc1nc(NCC)nc(NC(C)(C)C)n1

> <STRUCTURE_SMILES_Desalt>
Clc1nc(NCC)nc(NC(C)(C)C)n1

> <Substance_modify_yyyymmdd>
20080429

$$$$
