59160-29-1
ChemmineR-0915142007XD

 21 21  0  0  0  0  0  0  0  0  1 V2000
    2.2836   -2.6520    0.0000 C   0  0  0  0  0  0  0  0  0  0  0  0
    3.4439   -1.9890    0.0000 N   0  0  0  0  0  0  0  0  0  0  0  0
    2.2836   -3.9872    0.0000 C   0  0  0  0  0  0  0  0  0  0  0  0
    1.1418   -1.9890    0.0000 C   0  0  0  0  0  0  0  0  0  0  0  0
    4.6041   -2.6520    0.0000 C   0  0  0  0  0  0  0  0  0  0  0  0
    1.1418   -4.6686    0.0000 C   0  0  0  0  0  0  0  0  0  0  0  0
    3.4439   -4.6686    0.0000 C   0  0  0  0  0  0  0  0  0  0  0  0
    0.0000   -2.6520    0.0000 C   0  0  0  0  0  0  0  0  0  0  0  0
    1.1418   -0.6538    0.0000 C   0  0  0  0  0  0  0  0  0  0  0  0
    5.7644   -1.9890    0.0000 C   0  0  0  0  0  0  0  0  0  0  0  0
    4.6041   -3.9872    0.0000 O   0  0  0  0  0  0  0  0  0  0  0  0
    0.0000   -3.9872    0.0000 C   0  0  0  0  0  0  0  0  0  0  0  0
    6.9246   -2.6520    0.0000 N   0  0  0  0  0  0  0  0  0  0  0  0
    8.0664   -1.9890    0.0000 C   0  0  0  0  0  0  0  0  0  0  0  0
    6.9246   -3.9872    0.0000 C   0  0  0  0  0  0  0  0  0  0  0  0
    8.0664   -0.6538    0.0000 C   0  0  0  0  0  0  0  0  0  0  0  0
    8.0664   -4.6686    0.0000 C   0  0  0  0  0  0  0  0  0  0  0  0
    6.9246    0.0000    0.0000 O   0  0  0  0  0  0  0  0  0  0  0  0
    9.2082    0.0000    0.0000 O   0  0  0  0  0  0  0  0  0  0  0  0
    9.2082   -3.9872    0.0000 O   0  0  0  0  0  0  0  0  0  0  0  0
    8.0664   -5.9854    0.0000 O   0  0  0  0  0  0  0  0  0  0  0  0
  1  2  1  0  0  0  0
  1  3  2  0  0  0  0
  1  4  1  0  0  0  0
  2  5  1  0  0  0  0
  3  6  1  0  0  0  0
  3  7  1  0  0  0  0
  4  8  2  0  0  0  0
  4  9  1  0  0  0  0
  5 10  1  0  0  0  0
  5 11  2  0  0  0  0
  6 12  2  0  0  0  0
  8 12  1  0  0  0  0
 10 13  1  0  0  0  0
 13 14  1  0  0  0  0
 13 15  1  0  0  0  0
 14 16  1  0  0  0  0
 15 17  1  0  0  0  0
 16 18  1  0  0  0  0
 16 19  2  0  0  0  0
 17 20  1  0  0  0  0
 17 21  2  0  0  0  0
M  END
> <ID>
11636

> <Formula>
C14H18N2O5

> <FW>
294.3031

> <DSSTox_CID>
26389

> <DSSTox_RID>
81569

> <DSSTox_GSID>
46389

> <DSSTox_FileID_Sort>
6250

> <TS_ChemName>
Lidofenin

> <TS_ChemName_Synonyms>


> <TS_CASRN>
59160-29-1

> <CASRN_ChemName_Relationship>
primary

> <TS_Description>
single chemical compound

> <ChemNote>


> <STRUCTURE_Shown>
tested chemical

> <STRUCTURE_Formula>
C14H18N2O5

> <STRUCTURE_MW>
294.3031

> <STRUCTURE_ChemType>
defined organic

> <STRUCTURE_DefinedOrganicForm>
parent

> <STRUCTURE_IUPAC>
2,2'-({2-[(2,6-dimethylphenyl)amino]-2-oxoethyl}imino)diacetic acid

> <STRUCTURE_SMILES>
O=C(Nc1c(C)cccc1C)CN(CC(=O)O)CC(=O)O

> <STRUCTURE_SMILES_Desalt>
O=C(Nc1c(C)cccc1C)CN(CC(=O)O)CC(=O)O

> <Substance_modify_yyyymmdd>
20110814

$$$$
