59198-70-8
ChemmineR-0915142007XD

 36 39  0  0  1  0  0  0  0  0  1 V2000
    3.4884   -5.7216    0.0000 C   0  0  0  0  0  0  0  0  0  0  0  0
    4.6131   -5.0695    0.0000 C   0  0  0  0  0  0  0  0  0  0  0  0
    6.9278   -3.7166    0.0000 C   0  0  0  0  0  0  0  0  0  0  0  0
    3.4884   -7.0908    0.0000 C   0  0  0  0  0  0  0  0  0  0  0  0
    6.9278   -5.0858    0.0000 C   0  0  0  0  0  0  0  0  0  0  0  0
    5.7868   -5.7542    0.0000 C   0  0  0  0  0  0  0  0  0  0  0  0
    4.6131   -3.7166    0.0000 C   0  0  0  0  0  0  0  0  0  0  0  0
    2.3310   -5.0695    0.0000 C   0  0  0  0  0  0  0  0  0  0  0  0
    8.2645   -3.3417    0.0000 C   0  0  0  0  0  0  0  0  0  0  0  0
    5.7868   -3.0645    0.0000 C   0  0  0  0  0  0  0  0  0  0  0  0
    8.1993   -5.4771    0.0000 C   0  0  0  0  0  0  0  0  0  0  0  0
    8.9817   -4.4175    0.0000 C   0  0  0  0  0  0  0  0  0  0  0  0
    5.7868   -7.0908    0.0000 C   0  0  0  0  0  0  0  0  0  0  0  0
    4.6131   -7.7103    0.0000 C   0  0  0  0  0  0  0  0  0  0  0  0
    2.3310   -7.7103    0.0000 C   0  0  0  0  0  0  0  0  0  0  0  0
    1.1737   -5.7542    0.0000 C   0  0  0  0  0  0  0  0  0  0  0  0
    1.1737   -7.0745    0.0000 C   0  0  0  0  0  0  0  0  0  0  0  0
    8.2645   -1.9887    0.0000 C   0  0  0  0  0  0  0  0  0  0  0  0
    4.6294   -6.4062    0.0000 F   0  0  0  0  0  0  0  0  0  0  0  0
    7.1234   -1.3530    0.0000 O   0  0  0  0  0  0  0  0  0  0  0  0
    0.0000   -7.7103    0.0000 O   0  0  0  0  0  0  0  0  0  0  0  0
    3.4884   -4.4012    0.0000 C   0  0  0  0  0  0  0  0  0  0  0  0
    6.9278   -2.3962    0.0000 C   0  0  0  0  0  0  0  0  0  0  0  0
    3.4884   -3.0645    0.0000 O   0  0  0  0  0  0  0  0  0  0  0  0
    4.6131   -9.0795    0.0000 F   0  0  0  0  0  0  0  0  0  0  0  0
   10.3021   -4.4175    0.0000 C   0  0  0  0  0  0  0  0  0  0  0  0
   10.5466   -2.0050    0.0000 O   0  0  0  0  0  0  0  0  0  0  0  0
    9.4056   -1.3367    0.0000 C   0  0  0  0  0  0  0  0  0  0  0  0
    5.7868   -4.4338    0.0000 H   0  0  0  0  0  0  0  0  0  0  0  0
    6.9278   -6.4225    0.0000 H   0  0  0  0  0  0  0  0  0  0  0  0
   11.7040   -1.3367    0.0000 C   0  0  0  0  0  0  0  0  0  0  0  0
   11.7040    0.0000    0.0000 O   0  0  0  0  0  0  0  0  0  0  0  0
   12.8613   -2.0050    0.0000 C   0  0  0  0  0  0  0  0  0  0  0  0
   14.0024   -1.3367    0.0000 C   0  0  0  0  0  0  0  0  0  0  0  0
   15.1597   -2.0050    0.0000 C   0  0  0  0  0  0  0  0  0  0  0  0
   16.3008   -1.3530    0.0000 C   0  0  0  0  0  0  0  0  0  0  0  0
  1  2  1  0  0  0  0
  1  4  1  0  0  0  0
  1  8  1  0  0  0  0
  1 22  1  1  0  0  0
  2  6  1  0  0  0  0
  2  7  1  0  0  0  0
  2 19  1  6  0  0  0
  3 10  1  0  0  0  0
  3  9  1  0  0  0  0
  3 23  1  1  0  0  0
  3  5  1  0  0  0  0
  4 14  1  0  0  0  0
  4 15  2  0  0  0  0
  5  6  1  0  0  0  0
  5 11  1  0  0  0  0
  5 30  1  6  0  0  0
  6 13  1  0  0  0  0
  6 29  1  1  0  0  0
  7 10  1  0  0  0  0
  7 24  1  1  0  0  0
  8 16  2  0  0  0  0
  9 18  1  1  0  0  0
  9 12  1  0  0  0  0
 11 12  1  0  0  0  0
 12 26  1  6  0  0  0
 13 14  1  0  0  0  0
 14 25  1  6  0  0  0
 15 17  1  0  0  0  0
 16 17  1  0  0  0  0
 17 21  2  0  0  0  0
 18 20  2  0  0  0  0
 18 28  1  0  0  0  0
 27 28  1  0  0  0  0
 27 31  1  0  0  0  0
 31 32  2  0  0  0  0
 31 33  1  0  0  0  0
 33 34  1  0  0  0  0
 34 35  1  0  0  0  0
 35 36  1  0  0  0  0
M  END
> <ID>
13596

> <Formula>
C27H36F2O5

> <FW>
478.5685

> <DSSTox_CID>
28524

> <DSSTox_RID>
82796

> <DSSTox_GSID>
48598

> <DSSTox_FileID_Sort>
7473

> <TS_ChemName>
Diflucortolone valerate

> <TS_ChemName_Synonyms>


> <TS_CASRN>
59198-70-8

> <CASRN_ChemName_Relationship>
primary

> <TS_Description>
single chemical compound

> <ChemNote>
stereochem; tautomers

> <STRUCTURE_Shown>
tested chemical

> <STRUCTURE_Formula>
C27H36F2O5

> <STRUCTURE_MW>
478.5685

> <STRUCTURE_ChemType>
defined organic

> <STRUCTURE_DefinedOrganicForm>
parent

> <STRUCTURE_IUPAC>
(6alpha,11beta,16alpha)-6,9-difluoro-11-hydroxy-16-methyl-3,20-dioxopregna-1,4-dien-21-yl pentanoate

> <STRUCTURE_SMILES>
CCCCC(=O)OCC(=O)[C@H]4[C@H](C)C[C@@H]3[C@]4(C)C[C@H](O)[C@@]2(F)[C@H]3C[C@H](F)C1=CC(=O)C=C[C@@]12C

> <STRUCTURE_SMILES_Desalt>
CCCCC(=O)OCC(=O)[C@H]4[C@H](C)C[C@@H]3[C@]4(C)C[C@H](O)[C@@]2(F)[C@H]3C[C@H](F)C1=CC(=O)C=C[C@@]12C

> <Substance_modify_yyyymmdd>
20111014

$$$$
