5919-74-4
ChemmineR-0915142007XD

 11 10  0  0  0  0  0  0  0  0  1 V2000
    2.6561   -4.6063    0.0000 C   0  0  0  0  0  0  0  0  0  0  0  0
    3.9901   -4.6063    0.0000 C   0  0  0  0  0  0  0  0  0  0  0  0
    4.6542   -5.7549    0.0000 C   0  0  0  0  0  0  0  0  0  0  0  0
    4.6542   -3.4517    0.0000 C   0  0  0  0  0  0  0  0  0  0  0  0
    5.9822   -3.4517    0.0000 O   0  0  0  0  0  0  0  0  0  0  0  0
    3.9901   -2.3031    0.0000 O   0  0  0  0  0  0  0  0  0  0  0  0
    2.6561   -2.3031    0.0000 C   0  0  0  0  0  0  0  0  0  0  0  0
    1.9921   -1.1486    0.0000 C   0  0  0  0  0  0  0  0  0  0  0  0
    2.6561    0.0000    0.0000 O   0  0  0  0  0  0  0  0  0  0  0  0
    0.6640   -1.1486    0.0000 C   0  0  0  0  0  0  0  0  0  0  0  0
    0.0000   -2.3031    0.0000 O   0  0  0  0  0  0  0  0  0  0  0  0
  1  2  1  0  0  0  0
  2  3  2  0  0  0  0
  2  4  1  0  0  0  0
  4  5  2  0  0  0  0
  4  6  1  0  0  0  0
  6  7  1  0  0  0  0
  7  8  1  0  0  0  0
  8  9  1  0  0  0  0
  8 10  1  0  0  0  0
 10 11  1  0  0  0  0
M  END
> <ID>
16180

> <Formula>
C7H12O4

> <FW>
160.1678

> <DSSTox_CID>
31570

> <DSSTox_RID>
97455

> <DSSTox_GSID>
57781

> <DSSTox_FileID_Sort>
8522

> <TS_ChemName>
Glyceryl methacrylate

> <TS_ChemName_Synonyms>


> <TS_CASRN>
5919-74-4

> <CASRN_ChemName_Relationship>
primary

> <TS_Description>
single chemical compound

> <ChemNote>


> <STRUCTURE_Shown>
tested chemical

> <STRUCTURE_Formula>
C7H12O4

> <STRUCTURE_MW>
160.1678

> <STRUCTURE_ChemType>
defined organic

> <STRUCTURE_DefinedOrganicForm>
parent

> <STRUCTURE_IUPAC>
2,3-dihydroxypropyl methacrylate

> <STRUCTURE_SMILES>
OCC(O)COC(=O)C(=C)C

> <STRUCTURE_SMILES_Desalt>
OCC(O)COC(=O)C(=C)C

> <Substance_modify_yyyymmdd>
20131018

$$$$
