592-45-0
ChemmineR-0915142007XD

  6  5  0  0  0  0  0  0  0  0  1 V2000
    0.0000    0.0000    0.0000 C   0  0  0  0  0  0  0  0  0  0  0  0
    1.1745   -0.6454    0.0000 C   0  0  0  0  0  0  0  0  0  0  0  0
    2.3141    0.0000    0.0000 C   0  0  0  0  0  0  0  0  0  0  0  0
    3.4712   -0.6454    0.0000 C   0  0  0  0  0  0  0  0  0  0  0  0
    4.6283    0.0000    0.0000 C   0  0  0  0  0  0  0  0  0  0  0  0
    5.8144   -0.6454    0.0000 C   0  0  0  0  0  0  0  0  0  0  0  0
  1  2  2  0  0  0  0
  2  3  1  0  0  0  0
  3  4  1  0  0  0  0
  4  5  2  0  0  0  0
  5  6  1  0  0  0  0
M  END
> <ID>
5008

> <Formula>
C6H10

> <FW>
82.1436

> <DSSTox_CID>
7227

> <DSSTox_RID>
78357

> <DSSTox_GSID>
27227

> <DSSTox_FileID_Sort>
3040

> <TS_ChemName>
1,4-Hexadiene

> <TS_ChemName_Synonyms>


> <TS_CASRN>
592-45-0

> <CASRN_ChemName_Relationship>
primary

> <TS_Description>
mixture or formulation

> <ChemNote>
mixture of Z,E isomers; structure shown E; stereochem

> <STRUCTURE_Shown>
representative isomer in mixture

> <STRUCTURE_Formula>
C6H10

> <STRUCTURE_MW>
82.1436

> <STRUCTURE_ChemType>
defined organic

> <STRUCTURE_DefinedOrganicForm>
parent

> <STRUCTURE_IUPAC>
(4E)-hexa-1,4-diene

> <STRUCTURE_SMILES>
C=CC\C=C\C

> <STRUCTURE_SMILES_Desalt>
C=CC\C=C\C

> <Substance_modify_yyyymmdd>
20080429

$$$$
