592-41-6
ChemmineR-0915142007XD

  6  5  0  0  0  0  0  0  0  0  1 V2000
    2.3060   -0.6630    0.0000 C   0  0  0  0  0  0  0  0  0  0  0  0
    1.1530    0.0000    0.0000 C   0  0  0  0  0  0  0  0  0  0  0  0
    0.0000   -0.6630    0.0000 C   0  0  0  0  0  0  0  0  0  0  0  0
    3.4590    0.0000    0.0000 C   0  0  0  0  0  0  0  0  0  0  0  0
    4.6119   -0.6630    0.0000 C   0  0  0  0  0  0  0  0  0  0  0  0
    5.7649    0.0000    0.0000 C   0  0  0  0  0  0  0  0  0  0  0  0
  1  2  1  0  0  0  0
  1  4  1  0  0  0  0
  2  3  1  0  0  0  0
  4  5  1  0  0  0  0
  5  6  2  0  0  0  0
M  END
> <ID>
4175

> <Formula>
C6H12

> <FW>
84.1595

> <DSSTox_CID>
5402

> <DSSTox_RID>
77772

> <DSSTox_GSID>
25402

> <DSSTox_FileID_Sort>
2455

> <TS_ChemName>
1-Hexene

> <TS_ChemName_Synonyms>
1-Hexene (1-n-Hexene)

> <TS_CASRN>
592-41-6

> <CASRN_ChemName_Relationship>
primary

> <TS_Description>
single chemical compound

> <ChemNote>


> <STRUCTURE_Shown>
tested chemical

> <STRUCTURE_Formula>
C6H12

> <STRUCTURE_MW>
84.1595

> <STRUCTURE_ChemType>
defined organic

> <STRUCTURE_DefinedOrganicForm>
parent

> <STRUCTURE_IUPAC>
hex-1-ene

> <STRUCTURE_SMILES>
C=CCCCC

> <STRUCTURE_SMILES_Desalt>
C=CCCCC

> <Substance_modify_yyyymmdd>
20080429

$$$$
