592-42-7
ChemmineR-0915142007XD

  6  5  0  0  0  0  0  0  0  0  1 V2000
    5.3163   -2.3073    0.0000 C   0  0  0  0  0  0  0  0  0  0  0  0
    0.0000    0.0000    0.0000 C   0  0  0  0  0  0  0  0  0  0  0  0
    3.9872   -2.3073    0.0000 C   0  0  0  0  0  0  0  0  0  0  0  0
    1.3291    0.0000    0.0000 C   0  0  0  0  0  0  0  0  0  0  0  0
    3.3333   -1.1536    0.0000 C   0  0  0  0  0  0  0  0  0  0  0  0
    2.0042   -1.1536    0.0000 C   0  0  0  0  0  0  0  0  0  0  0  0
  1  3  2  0  0  0  0
  2  4  2  0  0  0  0
  3  5  1  0  0  0  0
  4  6  1  0  0  0  0
  5  6  1  0  0  0  0
M  END
> <ID>
14187

> <Formula>
C6H10

> <FW>
82.1436

> <DSSTox_CID>
29279

> <DSSTox_RID>
83398

> <DSSTox_GSID>
49323

> <DSSTox_FileID_Sort>
8073

> <TS_ChemName>
1,5-Hexadiene

> <TS_ChemName_Synonyms>


> <TS_CASRN>
592-42-7

> <CASRN_ChemName_Relationship>
primary

> <TS_Description>
single chemical compound

> <ChemNote>


> <STRUCTURE_Shown>
tested chemical

> <STRUCTURE_Formula>
C6H10

> <STRUCTURE_MW>
82.1436

> <STRUCTURE_ChemType>
defined organic

> <STRUCTURE_DefinedOrganicForm>
parent

> <STRUCTURE_IUPAC>
hexa-1,5-diene

> <STRUCTURE_SMILES>
C=CCCC=C

> <STRUCTURE_SMILES_Desalt>
C=CCCC=C

> <Substance_modify_yyyymmdd>
20111204

$$$$
