59227-89-3
ChemmineR-0915142007XD

 20 20  0  0  0  0  0  0  0  0  1 V2000
    2.8755   -2.1901    0.0000 N   0  0  0  0  0  0  0  0  0  0  0  0
    2.8755   -0.8526    0.0000 C   0  0  0  0  0  0  0  0  0  0  0  0
    4.0792   -0.2675    0.0000 O   0  0  0  0  0  0  0  0  0  0  0  0
    4.0625   -2.7585    0.0000 C   0  0  0  0  0  0  0  0  0  0  0  0
    1.8223   -2.9758    0.0000 C   0  0  0  0  0  0  0  0  0  0  0  0
    1.8390    0.0000    0.0000 C   0  0  0  0  0  0  0  0  0  0  0  0
    5.1993   -2.0563    0.0000 C   0  0  0  0  0  0  0  0  0  0  0  0
   15.5813   -2.5746    0.0000 C   0  0  0  0  0  0  0  0  0  0  0  0
   14.4277   -1.8724    0.0000 C   0  0  0  0  0  0  0  0  0  0  0  0
    9.8135   -1.9059    0.0000 C   0  0  0  0  0  0  0  0  0  0  0  0
    8.6767   -2.5913    0.0000 C   0  0  0  0  0  0  0  0  0  0  0  0
    7.5232   -1.9895    0.0000 C   0  0  0  0  0  0  0  0  0  0  0  0
    6.4198   -2.6749    0.0000 C   0  0  0  0  0  0  0  0  0  0  0  0
   13.2742   -2.5746    0.0000 C   0  0  0  0  0  0  0  0  0  0  0  0
   12.1039   -1.8891    0.0000 C   0  0  0  0  0  0  0  0  0  0  0  0
   10.9838   -2.5746    0.0000 C   0  0  0  0  0  0  0  0  0  0  0  0
    0.5350   -2.6916    0.0000 C   0  0  0  0  0  0  0  0  0  0  0  0
    0.5350   -0.2675    0.0000 C   0  0  0  0  0  0  0  0  0  0  0  0
   16.7181   -1.9393    0.0000 C   0  0  0  0  0  0  0  0  0  0  0  0
    0.0000   -1.4378    0.0000 C   0  0  0  0  0  0  0  0  0  0  0  0
  1  2  1  0  0  0  0
  1  4  1  0  0  0  0
  1  5  1  0  0  0  0
  2  3  2  0  0  0  0
  2  6  1  0  0  0  0
  4  7  1  0  0  0  0
  5 17  1  0  0  0  0
  6 18  1  0  0  0  0
  7 13  1  0  0  0  0
  8  9  1  0  0  0  0
  8 19  1  0  0  0  0
  9 14  1  0  0  0  0
 10 11  1  0  0  0  0
 10 16  1  0  0  0  0
 11 12  1  0  0  0  0
 12 13  1  0  0  0  0
 14 15  1  0  0  0  0
 15 16  1  0  0  0  0
 17 20  1  0  0  0  0
 18 20  1  0  0  0  0
M  END
> <ID>
9018

> <Formula>
C18H35NO

> <FW>
281.4766

> <DSSTox_CID>
22086

> <DSSTox_RID>
79921

> <DSSTox_GSID>
42086

> <DSSTox_FileID_Sort>
4603

> <TS_ChemName>
Laurocapram

> <TS_ChemName_Synonyms>


> <TS_CASRN>
59227-89-3

> <CASRN_ChemName_Relationship>
primary

> <TS_Description>
single chemical compound

> <ChemNote>


> <STRUCTURE_Shown>
tested chemical

> <STRUCTURE_Formula>
C18H35NO

> <STRUCTURE_MW>
281.4766

> <STRUCTURE_ChemType>
defined organic

> <STRUCTURE_DefinedOrganicForm>
parent

> <STRUCTURE_IUPAC>
1-dodecylazepan-2-one

> <STRUCTURE_SMILES>
O=C1CCCCCN1CCCCCCCCCCCC

> <STRUCTURE_SMILES_Desalt>
O=C1CCCCCN1CCCCCCCCCCCC

> <Substance_modify_yyyymmdd>
20080825

$$$$
