59263-76-2
ChemmineR-0915142007XD

 18 18  0  0  0  0  0  0  0  0  1 V2000
    2.3280   -3.5367    0.0000 C    0  0  0  0  0  0  0  0  0  0  0  0
    2.3280   -1.1320    0.0000 N    0  0  0  0  0  0  0  0  0  0  0  0
    3.6966   -3.5367    0.0000 C    0  0  0  0  0  0  0  0  0  0  0  0
    2.9228   -2.3280    0.0000 C    0  0  0  0  0  0  0  0  0  0  0  0
    4.3746   -2.3919    0.0000 C    0  0  0  0  0  0  0  0  0  0  0  0
    5.7176   -2.3919    0.0000 C    0  0  0  0  0  0  0  0  0  0  0  0
    6.3955   -1.2152    0.0000 O    0  0  0  0  0  0  0  0  0  0  0  0
    2.3280   -4.8606    0.0000 C    0  0  0  0  0  0  0  0  0  0  0  0
    1.0361   -3.8437    0.0000 C    0  0  0  0  0  0  0  0  0  0  0  0
    3.0507    0.0000    0.0000 C    0  0  0  0  0  0  0  0  0  0  0  0
    1.0361   -0.8250    0.0000 C    0  0  0  0  0  0  0  0  0  0  0  0
    4.3746   -4.7007    0.0000 C    0  0  0  0  0  0  0  0  0  0  0  0
    5.7176   -4.7007    0.0000 C    0  0  0  0  0  0  0  0  0  0  0  0
    6.3764   -3.5559    0.0000 C    0  0  0  0  0  0  0  0  0  0  0  0
    1.3559   -5.5258    0.0000 C    0  0  0  0  0  0  0  0  0  0  0  0
    0.0000   -3.0059    0.0000 C    0  0  0  0  0  0  0  0  0  0  0  0
    0.0000   -1.6628    0.0000 C    0  0  0  0  0  0  0  0  0  0  0  0
    3.5879   -5.5066    0.0000 Cl   0  0  0  0  0  0  0  0  0  0  0  0
  1  3  1  0  0  0  0
  1  4  1  0  0  0  0
  1  8  1  0  0  0  0
  1  9  1  0  0  0  0
  2  4  1  0  0  0  0
  2 10  1  0  0  0  0
  2 11  1  0  0  0  0
  3  5  1  0  0  0  0
  3 12  2  0  0  0  0
  5  6  2  0  0  0  0
  6  7  1  0  0  0  0
  6 14  1  0  0  0  0
  8 15  1  0  0  0  0
  9 16  1  0  0  0  0
 11 17  1  0  0  0  0
 12 13  1  0  0  0  0
 13 14  2  0  0  0  0
 16 17  1  0  0  0  0
M  END
> <ID>
10976

> <Formula>
C15H24ClNO

> <FW>
269.8102 (233.3492+36.4609)

> <DSSTox_CID>
25485

> <DSSTox_RID>
80908

> <DSSTox_GSID>
45485

> <DSSTox_FileID_Sort>
5589

> <TS_ChemName>
Meptazinol hydrochloride

> <TS_ChemName_Synonyms>


> <TS_CASRN>
59263-76-2

> <CASRN_ChemName_Relationship>
primary

> <TS_Description>
single chemical compound

> <ChemNote>
parent [54340-58-8]

> <STRUCTURE_Shown>
tested chemical

> <STRUCTURE_Formula>
C15H24ClNO

> <STRUCTURE_MW>
269.8102

> <STRUCTURE_ChemType>
defined organic

> <STRUCTURE_DefinedOrganicForm>
complex

> <STRUCTURE_IUPAC>
3-(3-ethyl-1-methylazepan-3-yl)phenol hydrochloride (1:1)

> <STRUCTURE_SMILES>
Cl.CN1CCCCC(CC)(C1)c2cccc(O)c2

> <STRUCTURE_SMILES_Desalt>
CN1CCCCC(CC)(C1)c2cccc(O)c2

> <Substance_modify_yyyymmdd>
20100107

$$$$
