593-85-1
ChemmineR-0915142007XD

 12  9  0  0  0  0  0  0  0  0  1 V2000
    1.1196   -1.2998    0.0000 C   0  0  0  0  0  0  0  0  0  0  0  0
    1.1196    0.0000    0.0000 N   0  0  0  0  0  0  0  0  0  0  0  0
    2.2907   -1.9561    0.0000 N   0  0  0  0  0  0  0  0  0  0  0  0
    0.0000   -1.9947    0.0000 N   0  0  0  0  0  0  0  0  0  0  0  0
    6.6148   -1.5701    0.0000 C   0  0  0  0  0  0  0  0  0  0  0  0
    6.6148   -0.2059    0.0000 O   0  0  0  0  0  0  0  0  0  0  0  0
    5.4309   -2.2135    0.0000 O   0  0  0  0  0  0  0  0  0  0  0  0
    7.7731   -2.2135    0.0000 O   0  0  0  0  0  0  0  0  0  0  0  0
   11.6854   -1.4671    0.0000 C   0  0  0  0  0  0  0  0  0  0  0  0
   11.6854   -0.1544    0.0000 N   0  0  0  0  0  0  0  0  0  0  0  0
   12.8694   -2.1234    0.0000 N   0  0  0  0  0  0  0  0  0  0  0  0
   10.5786   -2.1621    0.0000 N   0  0  0  0  0  0  0  0  0  0  0  0
  1  2  2  0  0  0  0
  1  3  1  0  0  0  0
  1  4  1  0  0  0  0
  5  6  2  0  0  0  0
  5  7  1  0  0  0  0
  5  8  1  0  0  0  0
  9 10  2  0  0  0  0
  9 11  1  0  0  0  0
  9 12  1  0  0  0  0
M  END
> <ID>
5843

> <Formula>
C3H12N6O3

> <FW>
180.1658 (59.0705+62.0248+59.0705)

> <DSSTox_CID>
9189

> <DSSTox_RID>
78702

> <DSSTox_GSID>
29189

> <DSSTox_FileID_Sort>
3384

> <TS_ChemName>
Guanidine carbonate

> <TS_ChemName_Synonyms>
Carbonic acid, compd. with guanidine (1:2)

> <TS_CASRN>
593-85-1

> <CASRN_ChemName_Relationship>
primary

> <TS_Description>
single chemical compound

> <ChemNote>
complex of carbonic acid [463-79-6] and guanidine [

> <STRUCTURE_Shown>
tested chemical

> <STRUCTURE_Formula>
C3H12N6O3

> <STRUCTURE_MW>
180.1658

> <STRUCTURE_ChemType>
defined organic

> <STRUCTURE_DefinedOrganicForm>
complex

> <STRUCTURE_IUPAC>
carbonic acid - guanidine (1:2)

> <STRUCTURE_SMILES>
NC(=N)N.N=C(N)N.O=C(O)O

> <STRUCTURE_SMILES_Desalt>
N=C(N)N

> <Substance_modify_yyyymmdd>
20081229

$$$$
