59337-93-8
ChemmineR-0915142007XD

 13 13  0  0  0  0  0  0  0  0  1 V2000
    1.9874   -4.6985    0.0000 S   0  0  0  0  0  0  0  0  0  0  0  0
    0.6585   -4.6985    0.0000 C   0  0  0  0  0  0  0  0  0  0  0  0
    2.4027   -3.4290    0.0000 C   0  0  0  0  0  0  0  0  0  0  0  0
    1.3289   -2.6459    0.0000 C   0  0  0  0  0  0  0  0  0  0  0  0
    0.2551   -3.4290    0.0000 C   0  0  0  0  0  0  0  0  0  0  0  0
    3.6544   -3.0315    0.0000 C   0  0  0  0  0  0  0  0  0  0  0  0
    3.9451   -1.7323    0.0000 O   0  0  0  0  0  0  0  0  0  0  0  0
    4.6511   -3.9154    0.0000 O   0  0  0  0  0  0  0  0  0  0  0  0
    1.3289   -1.3289    0.0000 S   0  0  0  0  0  0  0  0  0  0  0  0
    2.6637   -1.3289    0.0000 O   0  0  0  0  0  0  0  0  0  0  0  0
    0.0000   -1.3289    0.0000 O   0  0  0  0  0  0  0  0  0  0  0  0
    1.3289    0.0000    0.0000 N   0  0  0  0  0  0  0  0  0  0  0  0
    5.9325   -3.4942    0.0000 C   0  0  0  0  0  0  0  0  0  0  0  0
  1  2  1  0  0  0  0
  1  3  1  0  0  0  0
  2  5  2  0  0  0  0
  3  4  2  0  0  0  0
  3  6  1  0  0  0  0
  4  5  1  0  0  0  0
  4  9  1  0  0  0  0
  6  7  2  0  0  0  0
  6  8  1  0  0  0  0
  8 13  1  0  0  0  0
  9 10  2  0  0  0  0
  9 11  2  0  0  0  0
  9 12  1  0  0  0  0
M  END
> <ID>
10145

> <Formula>
C6H7NO4S2

> <FW>
221.2541

> <DSSTox_CID>
24490

> <DSSTox_RID>
80266

> <DSSTox_GSID>
44490

> <DSSTox_FileID_Sort>
4948

> <TS_ChemName>
Methyl 3-sulfamoylthiophene-2-carboxylate

> <TS_ChemName_Synonyms>
Methyl 3-sulfamoylthiophene-2-carboxylate (2-Thiophenecarboxylic acid, 3-(aminosulfonyl)-, methyl ester)

> <TS_CASRN>
59337-93-8

> <CASRN_ChemName_Relationship>
primary

> <TS_Description>
single chemical compound

> <ChemNote>


> <STRUCTURE_Shown>
tested chemical

> <STRUCTURE_Formula>
C6H7NO4S2

> <STRUCTURE_MW>
221.2541

> <STRUCTURE_ChemType>
defined organic

> <STRUCTURE_DefinedOrganicForm>
parent

> <STRUCTURE_IUPAC>
methyl 3-sulfamoylthiophene-2-carboxylate

> <STRUCTURE_SMILES>
O=S(N)(=O)c1ccsc1C(=O)OC

> <STRUCTURE_SMILES_Desalt>
O=S(N)(=O)c1ccsc1C(=O)OC

> <Substance_modify_yyyymmdd>
20091116

$$$$
