594-20-7
ChemmineR-0915142007XD

  5  4  0  0  0  0  0  0  0  0  1 V2000
    0.4805    0.0000    0.0000 C    0  0  0  0  0  0  0  0  0  0  0  0
    1.1550   -1.1550    0.0000 C    0  0  0  0  0  0  0  0  0  0  0  0
    2.2938   -0.4967    0.0000 C    0  0  0  0  0  0  0  0  0  0  0  0
    0.0000   -1.8295    0.0000 Cl   0  0  0  0  0  0  0  0  0  0  0  0
    1.8134   -2.3100    0.0000 Cl   0  0  0  0  0  0  0  0  0  0  0  0
  1  2  1  0  0  0  0
  2  3  1  0  0  0  0
  2  4  1  0  0  0  0
  2  5  1  0  0  0  0
M  END
> <ID>
6258

> <Formula>
C3H6Cl2

> <FW>
112.9857

> <DSSTox_CID>
10060

> <DSSTox_RID>
78836

> <DSSTox_GSID>
30060

> <DSSTox_FileID_Sort>
3518

> <TS_ChemName>
2,2-Dichloropropane

> <TS_ChemName_Synonyms>


> <TS_CASRN>
594-20-7

> <CASRN_ChemName_Relationship>
primary

> <TS_Description>
single chemical compound

> <ChemNote>


> <STRUCTURE_Shown>
tested chemical

> <STRUCTURE_Formula>
C3H6Cl2

> <STRUCTURE_MW>
112.9857

> <STRUCTURE_ChemType>
defined organic

> <STRUCTURE_DefinedOrganicForm>
parent

> <STRUCTURE_IUPAC>
2,2-dichloropropane

> <STRUCTURE_SMILES>
CC(C)(Cl)Cl

> <STRUCTURE_SMILES_Desalt>
CC(C)(Cl)Cl

> <Substance_modify_yyyymmdd>
20080429

$$$$
