594-71-8
ChemmineR-0915142007XD

  7  6  0  0  0  0  0  0  0  0  2 V2000
    0.0000   -1.9956    0.0000 C    0  0  0  0  0  0  0  0  0  0  0  0
    1.3304   -1.9956    0.0000 C    0  0  0  0  0  0  0  0  0  0  0  0
    2.6608   -1.9956    0.0000 C    0  0  0  0  0  0  0  0  0  0  0  0
    1.3304   -3.3260    0.0000 Cl   0  0  0  0  0  0  0  0  0  0  0  0
    1.3304   -0.6652    0.0000 N    0  3  0  0  0  0  0  0  0  0  0  0
    0.1796    0.0000    0.0000 O    0  0  0  0  0  0  0  0  0  0  0  0
    2.4812    0.0000    0.0000 O    0  5  0  0  0  0  0  0  0  0  0  0
  1  2  1  0  0  0  0
  2  3  1  0  0  0  0
  2  4  1  0  0  0  0
  2  5  1  0  0  0  0
  5  6  2  0  0  0  0
  5  7  1  0  0  0  0
M  END
> <ID>
3858

> <Formula>
C3H6ClNO2

> <FW>
123.5382

> <DSSTox_CID>
4798

> <DSSTox_RID>
77536

> <DSSTox_GSID>
24798

> <DSSTox_FileID_Sort>
2219

> <TS_ChemName>
2-Chloro-2-nitropropane

> <TS_ChemName_Synonyms>


> <TS_CASRN>
594-71-8

> <CASRN_ChemName_Relationship>
primary

> <TS_Description>
single chemical compound

> <ChemNote>


> <STRUCTURE_Shown>
tested chemical

> <STRUCTURE_Formula>
C3H6ClNO2

> <STRUCTURE_MW>
123.5382

> <STRUCTURE_ChemType>
defined organic

> <STRUCTURE_DefinedOrganicForm>
parent

> <STRUCTURE_IUPAC>
2-chloro-2-nitropropane

> <STRUCTURE_SMILES>
CC(C)(Cl)[N+]([O-])=O

> <STRUCTURE_SMILES_Desalt>
CC(C)(Cl)[N+]([O-])=O

> <Substance_modify_yyyymmdd>
20080429

$$$$
