594-65-0
ChemmineR-0915142007XD

  7  6  0  0  0  0  0  0  0  0  1 V2000
    0.0000   -1.9956    0.0000 Cl   0  0  0  0  0  0  0  0  0  0  0  0
    1.3304   -1.9956    0.0000 C    0  0  0  0  0  0  0  0  0  0  0  0
    2.6608   -1.9956    0.0000 Cl   0  0  0  0  0  0  0  0  0  0  0  0
    1.3304   -3.3260    0.0000 Cl   0  0  0  0  0  0  0  0  0  0  0  0
    1.3304   -0.6652    0.0000 C    0  0  0  0  0  0  0  0  0  0  0  0
    0.1796    0.0000    0.0000 N    0  0  0  0  0  0  0  0  0  0  0  0
    2.4812    0.0000    0.0000 O    0  0  0  0  0  0  0  0  0  0  0  0
  1  2  1  0  0  0  0
  2  3  1  0  0  0  0
  2  4  1  0  0  0  0
  2  5  1  0  0  0  0
  5  6  1  0  0  0  0
  5  7  2  0  0  0  0
M  END
> <ID>
1608

> <Formula>
C2H2Cl3NO

> <FW>
162.4024

> <DSSTox_CID>
1671

> <DSSTox_RID>
76277

> <DSSTox_GSID>
21671

> <DSSTox_FileID_Sort>
961

> <TS_ChemName>
2,2,2-Trichloroacetamide

> <TS_ChemName_Synonyms>


> <TS_CASRN>
594-65-0

> <CASRN_ChemName_Relationship>
primary

> <TS_Description>
single chemical compound

> <ChemNote>


> <STRUCTURE_Shown>
tested chemical

> <STRUCTURE_Formula>
C2H2Cl3NO

> <STRUCTURE_MW>
162.4024

> <STRUCTURE_ChemType>
defined organic

> <STRUCTURE_DefinedOrganicForm>
parent

> <STRUCTURE_IUPAC>
2,2,2-trichloroacetamide

> <STRUCTURE_SMILES>
ClC(Cl)(Cl)C(N)=O

> <STRUCTURE_SMILES_Desalt>
ClC(Cl)(Cl)C(N)=O

> <Substance_modify_yyyymmdd>
20080429

$$$$
