594-61-6
ChemmineR-0915142007XD

  7  6  0  0  0  0  0  0  0  0  1 V2000
    2.3075   -1.3284    0.0000 C   0  0  0  0  0  0  0  0  0  0  0  0
    2.3075    0.0000    0.0000 O   0  0  0  0  0  0  0  0  0  0  0  0
    3.4595   -1.9857    0.0000 O   0  0  0  0  0  0  0  0  0  0  0  0
    1.1520   -1.9857    0.0000 C   0  0  0  0  0  0  0  0  0  0  0  0
    0.4982   -0.8303    0.0000 C   0  0  0  0  0  0  0  0  0  0  0  0
    1.8266   -3.1378    0.0000 C   0  0  0  0  0  0  0  0  0  0  0  0
    0.0000   -2.6569    0.0000 O   0  0  0  0  0  0  0  0  0  0  0  0
  1  2  2  0  0  0  0
  1  3  1  0  0  0  0
  1  4  1  0  0  0  0
  4  5  1  0  0  0  0
  4  6  1  0  0  0  0
  4  7  1  0  0  0  0
M  END
> <ID>
6591

> <Formula>
C4H8O3

> <FW>
104.1045

> <DSSTox_CID>
12954

> <DSSTox_RID>
79044

> <DSSTox_GSID>
32954

> <DSSTox_FileID_Sort>
3726

> <TS_ChemName>
2-Hydroxyisobutyric acid

> <TS_ChemName_Synonyms>


> <TS_CASRN>
594-61-6

> <CASRN_ChemName_Relationship>
primary

> <TS_Description>
single chemical compound

> <ChemNote>


> <STRUCTURE_Shown>
tested chemical

> <STRUCTURE_Formula>
C4H8O3

> <STRUCTURE_MW>
104.1045

> <STRUCTURE_ChemType>
defined organic

> <STRUCTURE_DefinedOrganicForm>
parent

> <STRUCTURE_IUPAC>
2-hydroxy-2-methylpropanoic acid

> <STRUCTURE_SMILES>
O=C(O)C(C)(C)O

> <STRUCTURE_SMILES_Desalt>
O=C(O)C(C)(C)O

> <Substance_modify_yyyymmdd>
20080429

$$$$
