594-30-9
ChemmineR-0915142007XD

 21 23  0  0  0  0  0  0  0  0  1 V2000
    6.9089   -0.6771    0.0000 C    0  0  0  0  0  0  0  0  0  0  0  0
    6.9089   -2.0105    0.0000 C    0  0  0  0  0  0  0  0  0  0  0  0
    5.7689    0.0000    0.0000 C    0  0  0  0  0  0  0  0  0  0  0  0
    5.7689   -2.6737    0.0000 C    0  0  0  0  0  0  0  0  0  0  0  0
    4.6082   -0.6771    0.0000 C    0  0  0  0  0  0  0  0  0  0  0  0
    4.6082   -2.0105    0.0000 C    0  0  0  0  0  0  0  0  0  0  0  0
    4.6082   -4.6704    0.0000 C    0  0  0  0  0  0  0  0  0  0  0  0
    4.6082   -6.0038    0.0000 C    0  0  0  0  0  0  0  0  0  0  0  0
    3.4613   -4.0071    0.0000 C    0  0  0  0  0  0  0  0  0  0  0  0
    3.4613   -6.6671    0.0000 C    0  0  0  0  0  0  0  0  0  0  0  0
    2.3007   -4.6704    0.0000 C    0  0  0  0  0  0  0  0  0  0  0  0
    2.3007   -6.0038    0.0000 C    0  0  0  0  0  0  0  0  0  0  0  0
    2.3007   -0.6771    0.0000 C    0  0  0  0  0  0  0  0  0  0  0  0
    2.3007   -2.0105    0.0000 C    0  0  0  0  0  0  0  0  0  0  0  0
    1.1607    0.0000    0.0000 C    0  0  0  0  0  0  0  0  0  0  0  0
    1.1607   -2.6737    0.0000 C    0  0  0  0  0  0  0  0  0  0  0  0
    0.0000   -0.6771    0.0000 C    0  0  0  0  0  0  0  0  0  0  0  0
    0.0000   -2.0105    0.0000 C    0  0  0  0  0  0  0  0  0  0  0  0
    3.4613   -2.6599    0.0000 Bi   0  0  0  0  0  0  0  0  0  0  0  0
    2.2730   -3.3992    0.0000 Cl   0  0  0  0  0  0  0  0  0  0  0  0
    4.5391   -3.2334    0.0000 Cl   0  0  0  0  0  0  0  0  0  0  0  0
  1  2  1  0  0  0  0
  1  3  2  0  0  0  0
  2  4  2  0  0  0  0
  3  5  1  0  0  0  0
  4  6  1  0  0  0  0
  5  6  2  0  0  0  0
  6 19  1  0  0  0  0
  7  8  1  0  0  0  0
  7  9  2  0  0  0  0
  8 10  2  0  0  0  0
  9 11  1  0  0  0  0
  9 19  1  0  0  0  0
 10 12  1  0  0  0  0
 11 12  2  0  0  0  0
 13 14  1  0  0  0  0
 13 15  2  0  0  0  0
 14 16  2  0  0  0  0
 14 19  1  0  0  0  0
 15 17  1  0  0  0  0
 16 18  1  0  0  0  0
 17 18  2  0  0  0  0
 19 20  1  0  0  0  0
 19 21  1  0  0  0  0
M  END
> <ID>
9405

> <Formula>
C18H15BiCl2

> <FW>
511.1981

> <DSSTox_CID>
22499

> <DSSTox_RID>
80040

> <DSSTox_GSID>
42499

> <DSSTox_FileID_Sort>
4722

> <TS_ChemName>
Triphenylbismuthine dichloride

> <TS_ChemName_Synonyms>


> <TS_CASRN>
594-30-9

> <CASRN_ChemName_Relationship>
primary

> <TS_Description>
single chemical compound

> <ChemNote>


> <STRUCTURE_Shown>
tested chemical

> <STRUCTURE_Formula>
C18H15BiCl2

> <STRUCTURE_MW>
511.1981

> <STRUCTURE_ChemType>
organometallic

> <STRUCTURE_DefinedOrganicForm>


> <STRUCTURE_IUPAC>
dichloro(triphenyl)-lambda~5~-bismuthane

> <STRUCTURE_SMILES>
Cl[Bi](Cl)(c1ccccc1)(c2ccccc2)c3ccccc3

> <STRUCTURE_SMILES_Desalt>
Cl[Bi](Cl)(c1ccccc1)(c2ccccc2)c3ccccc3

> <Substance_modify_yyyymmdd>
20080825

$$$$
