594-42-3
ChemmineR-0915142007XD

  6  5  0  0  0  0  0  0  0  0  1 V2000
    1.1503   -1.1537    0.0000 C    0  0  0  0  0  0  0  0  0  0  0  0
    0.4870    0.0000    0.0000 Cl   0  0  0  0  0  0  0  0  0  0  0  0
    1.8169   -2.3040    0.0000 Cl   0  0  0  0  0  0  0  0  0  0  0  0
    0.0000   -1.8169    0.0000 Cl   0  0  0  0  0  0  0  0  0  0  0  0
    2.3040   -0.4870    0.0000 S    0  0  0  0  0  0  0  0  0  0  0  0
    3.4542   -1.1537    0.0000 Cl   0  0  0  0  0  0  0  0  0  0  0  0
  1  2  1  0  0  0  0
  1  3  1  0  0  0  0
  1  4  1  0  0  0  0
  1  5  1  0  0  0  0
  5  6  1  0  0  0  0
M  END
> <ID>
4438

> <Formula>
CCl4S

> <FW>
185.8877

> <DSSTox_CID>
5854

> <DSSTox_RID>
77949

> <DSSTox_GSID>
25854

> <DSSTox_FileID_Sort>
2632

> <TS_ChemName>
Perchloromethylmercaptan

> <TS_ChemName_Synonyms>
Perchloromethylmercaptan (Methanesulfenyl chloride, trichloro-)

> <TS_CASRN>
594-42-3

> <CASRN_ChemName_Relationship>
primary

> <TS_Description>
single chemical compound

> <ChemNote>


> <STRUCTURE_Shown>
tested chemical

> <STRUCTURE_Formula>
CCl4S

> <STRUCTURE_MW>
185.8877

> <STRUCTURE_ChemType>
defined organic

> <STRUCTURE_DefinedOrganicForm>
parent

> <STRUCTURE_IUPAC>
trichloro(chlorosulfanyl)methane

> <STRUCTURE_SMILES>
ClC(Cl)(Cl)SCl

> <STRUCTURE_SMILES_Desalt>
ClC(Cl)(Cl)SCl

> <Substance_modify_yyyymmdd>
20080429

$$$$
