594-72-9
ChemmineR-0915142007XD

  7  6  0  0  0  0  0  0  0  0  2 V2000
    1.3304   -3.3260    0.0000 Cl   0  0  0  0  0  0  0  0  0  0  0  0
    1.3304   -1.9956    0.0000 C    0  0  0  0  0  0  0  0  0  0  0  0
    2.6608   -1.9956    0.0000 Cl   0  0  0  0  0  0  0  0  0  0  0  0
    1.3304   -0.6652    0.0000 N    0  3  0  0  0  0  0  0  0  0  0  0
    2.4812    0.0000    0.0000 O    0  0  0  0  0  0  0  0  0  0  0  0
    0.1796    0.0000    0.0000 O    0  5  0  0  0  0  0  0  0  0  0  0
    0.0000   -1.9956    0.0000 C    0  0  0  0  0  0  0  0  0  0  0  0
  1  2  1  0  0  0  0
  2  3  1  0  0  0  0
  2  4  1  0  0  0  0
  2  7  1  0  0  0  0
  4  5  2  0  0  0  0
  4  6  1  0  0  0  0
M  END
> <ID>
1575

> <Formula>
C2H3Cl2NO2

> <FW>
143.9567

> <DSSTox_CID>
1638

> <DSSTox_RID>
76252

> <DSSTox_GSID>
21638

> <DSSTox_FileID_Sort>
936

> <TS_ChemName>
1,1-Dichloro-1-nitroethane

> <TS_ChemName_Synonyms>


> <TS_CASRN>
594-72-9

> <CASRN_ChemName_Relationship>
primary

> <TS_Description>
single chemical compound

> <ChemNote>


> <STRUCTURE_Shown>
tested chemical

> <STRUCTURE_Formula>
C2H3Cl2NO2

> <STRUCTURE_MW>
143.9567

> <STRUCTURE_ChemType>
defined organic

> <STRUCTURE_DefinedOrganicForm>
parent

> <STRUCTURE_IUPAC>
1,1-dichloro-1-nitroethane

> <STRUCTURE_SMILES>
CC(Cl)(Cl)[N+]([O-])=O

> <STRUCTURE_SMILES_Desalt>
CC(Cl)(Cl)[N+]([O-])=O

> <Substance_modify_yyyymmdd>
20080429

$$$$
