594-18-3
ChemmineR-0915142007XD

  5  4  0  0  0  0  0  0  0  0  1 V2000
    1.0876   -2.4719    0.0000 Cl   0  0  0  0  0  0  0  0  0  0  0  0
    2.5352   -1.8507    0.0000 Cl   0  0  0  0  0  0  0  0  0  0  0  0
    0.0000   -1.9800    0.0000 Br   0  0  0  0  0  0  0  0  0  0  0  0
    1.3335   -1.2955    0.0000 C    0  0  0  0  0  0  0  0  0  0  0  0
    1.3335    0.0000    0.0000 Br   0  0  0  0  0  0  0  0  0  0  0  0
  1  4  1  0  0  0  0
  2  4  1  0  0  0  0
  3  4  1  0  0  0  0
  4  5  1  0  0  0  0
M  END
> <ID>
3468

> <Formula>
CBr2Cl2

> <FW>
242.7247

> <DSSTox_CID>
4014

> <DSSTox_RID>
77258

> <DSSTox_GSID>
24014

> <DSSTox_FileID_Sort>
1941

> <TS_ChemName>
Dibromodichloromethane

> <TS_ChemName_Synonyms>


> <TS_CASRN>
594-18-3

> <CASRN_ChemName_Relationship>
primary

> <TS_Description>
single chemical compound

> <ChemNote>


> <STRUCTURE_Shown>
tested chemical

> <STRUCTURE_Formula>
CBr2Cl2

> <STRUCTURE_MW>
242.7247

> <STRUCTURE_ChemType>
defined organic

> <STRUCTURE_DefinedOrganicForm>
parent

> <STRUCTURE_IUPAC>
dibromo(dichloro)methane

> <STRUCTURE_SMILES>
BrC(Br)(Cl)Cl

> <STRUCTURE_SMILES_Desalt>
BrC(Br)(Cl)Cl

> <Substance_modify_yyyymmdd>
20080429

$$$$
