5943-30-6
ChemmineR-0915142007XD

 10  9  0  0  0  0  0  0  0  0  1 V2000
    2.3020   -1.9854    0.0000 S   0  0  0  0  0  0  0  0  0  0  0  0
    3.4529   -2.6588    0.0000 S   0  0  0  0  0  0  0  0  0  0  0  0
    1.1510   -2.6588    0.0000 C   0  0  0  0  0  0  0  0  0  0  0  0
    1.1510   -3.9824    0.0000 C   0  0  0  0  0  0  0  0  0  0  0  0
    2.3020   -4.6385    0.0000 C   0  0  0  0  0  0  0  0  0  0  0  0
    0.0000   -1.9854    0.0000 C   0  0  0  0  0  0  0  0  0  0  0  0
    4.6039   -1.9854    0.0000 C   0  0  0  0  0  0  0  0  0  0  0  0
    4.6039   -0.6561    0.0000 C   0  0  0  0  0  0  0  0  0  0  0  0
    3.4529    0.0000    0.0000 C   0  0  0  0  0  0  0  0  0  0  0  0
    5.7549   -2.6588    0.0000 C   0  0  0  0  0  0  0  0  0  0  0  0
  1  2  1  0  0  0  0
  1  3  1  0  0  0  0
  2  7  1  0  0  0  0
  3  4  1  0  0  0  0
  3  6  1  0  0  0  0
  4  5  1  0  0  0  0
  7  8  1  0  0  0  0
  7 10  1  0  0  0  0
  8  9  1  0  0  0  0
M  END
> <ID>
10350

> <Formula>
C8H18S2

> <FW>
178.3585

> <DSSTox_CID>
24698

> <DSSTox_RID>
80405

> <DSSTox_GSID>
44698

> <DSSTox_FileID_Sort>
5087

> <TS_ChemName>
Dibutan-2-yl disulfide

> <TS_ChemName_Synonyms>
Dibutan-2-yl disulfide (2-(butan-2-yldisulfanyl)butane) (Disulfide, bis(1-methylpropyl)) (sec-Butyl disulfide)

> <TS_CASRN>
5943-30-6

> <CASRN_ChemName_Relationship>
primary

> <TS_Description>
single chemical compound

> <ChemNote>


> <STRUCTURE_Shown>
tested chemical

> <STRUCTURE_Formula>
C8H18S2

> <STRUCTURE_MW>
178.3585

> <STRUCTURE_ChemType>
defined organic

> <STRUCTURE_DefinedOrganicForm>
parent

> <STRUCTURE_IUPAC>
2-(butan-2-yldisulfanyl)butane

> <STRUCTURE_SMILES>
CC(CC)SSC(C)CC

> <STRUCTURE_SMILES_Desalt>
CC(CC)SSC(C)CC

> <Substance_modify_yyyymmdd>
20091116

$$$$
