59467-96-8
ChemmineR-0915142007XD

 24 26  0  0  0  0  0  0  0  0  1 V2000
    6.5126   -5.5822    0.0000 C    0  0  0  0  0  0  0  0  0  0  0  0
    5.2118   -5.9871    0.0000 C    0  0  0  0  0  0  0  0  0  0  0  0
    4.9448   -7.2707    0.0000 Cl   0  0  0  0  0  0  0  0  0  0  0  0
    4.2814   -5.0395    0.0000 C    0  0  0  0  0  0  0  0  0  0  0  0
    4.5743   -3.7732    0.0000 C    0  0  0  0  0  0  0  0  0  0  0  0
    5.8579   -3.3597    0.0000 C    0  0  0  0  0  0  0  0  0  0  0  0
    6.8055   -4.2987    0.0000 C    0  0  0  0  0  0  0  0  0  0  0  0
    6.3231   -2.1364    0.0000 N    0  0  0  0  0  0  0  0  0  0  0  0
    5.6598   -0.9821    0.0000 C    0  0  0  0  0  0  0  0  0  0  0  0
    4.3331   -0.7753    0.0000 C    0  0  0  0  0  0  0  0  0  0  0  0
    3.3855   -1.7057    0.0000 N    0  0  0  0  0  0  0  0  0  0  0  0
    3.4631   -3.0237    0.0000 C    0  0  0  0  0  0  0  0  0  0  0  0
    2.3087   -3.6784    0.0000 C    0  0  0  0  0  0  0  0  0  0  0  0
    2.3087   -5.0051    0.0000 C    0  0  0  0  0  0  0  0  0  0  0  0
    1.1544   -5.6856    0.0000 C    0  0  0  0  0  0  0  0  0  0  0  0
    0.0000   -5.0051    0.0000 C    0  0  0  0  0  0  0  0  0  0  0  0
    0.0000   -3.6784    0.0000 C    0  0  0  0  0  0  0  0  0  0  0  0
    1.1544   -3.0065    0.0000 C    0  0  0  0  0  0  0  0  0  0  0  0
    1.1544   -1.6712    0.0000 F    0  0  0  0  0  0  0  0  0  0  0  0
    6.5643    0.0000    0.0000 C    0  0  0  0  0  0  0  0  0  0  0  0
    7.7617   -0.5513    0.0000 N    0  0  0  0  0  0  0  0  0  0  0  0
    7.6239   -1.8607    0.0000 C    0  0  0  0  0  0  0  0  0  0  0  0
    8.6146   -2.7653    0.0000 C    0  0  0  0  0  0  0  0  0  0  0  0
    8.0718   -4.9448    0.0000 Cl   0  0  0  0  0  0  0  0  0  0  0  0
  1  2  2  0  0  0  0
  1  7  1  0  0  0  0
  2  3  1  0  0  0  0
  2  4  1  0  0  0  0
  4  5  2  0  0  0  0
  5  6  1  0  0  0  0
  5 12  1  0  0  0  0
  6  7  2  0  0  0  0
  6  8  1  0  0  0  0
  8  9  1  0  0  0  0
  8 22  1  0  0  0  0
  9 10  1  0  0  0  0
  9 20  2  0  0  0  0
 10 11  1  0  0  0  0
 11 12  2  0  0  0  0
 12 13  1  0  0  0  0
 13 14  2  0  0  0  0
 13 18  1  0  0  0  0
 14 15  1  0  0  0  0
 15 16  2  0  0  0  0
 16 17  1  0  0  0  0
 17 18  2  0  0  0  0
 18 19  1  0  0  0  0
 20 21  1  0  0  0  0
 21 22  2  0  0  0  0
 22 23  1  0  0  0  0
M  END
> <ID>
12923

> <Formula>
C18H14Cl2FN3

> <FW>
362.2283 (325.7673+36.4609)

> <DSSTox_CID>
27824

> <DSSTox_RID>
82587

> <DSSTox_GSID>
47846

> <DSSTox_FileID_Sort>
7264

> <TS_ChemName>
Midazolam hydrochloride

> <TS_ChemName_Synonyms>


> <TS_CASRN>
59467-96-8

> <CASRN_ChemName_Relationship>
primary

> <TS_Description>
single chemical compound

> <ChemNote>
parent [59467-70-8]

> <STRUCTURE_Shown>
tested chemical

> <STRUCTURE_Formula>
C18H14Cl2FN3

> <STRUCTURE_MW>
362.2283

> <STRUCTURE_ChemType>
defined organic

> <STRUCTURE_DefinedOrganicForm>
complex

> <STRUCTURE_IUPAC>
8-chloro-6-(2-fluorophenyl)-1-methyl-4H-imidazo[1,5-a][1,4]benzodiazepine hydrochloride (1:1)

> <STRUCTURE_SMILES>
Cl.Fc4ccccc4C2=NCc1cnc(C)n1c3ccc(Cl)cc23

> <STRUCTURE_SMILES_Desalt>
Fc4ccccc4C2=NCc1cnc(C)n1c3ccc(Cl)cc23

> <Substance_modify_yyyymmdd>
20110803

$$$$
