595-33-5
ChemmineR-0915142007XD

 31 34  0  0  1  0  0  0  0  0  1 V2000
    3.4644   -5.7232    0.0000 C   0  0  0  0  0  0  0  0  0  0  0  0
    3.4644   -4.4007    0.0000 C   0  0  0  0  0  0  0  0  0  0  0  0
    6.9405   -2.3759    0.0000 C   0  0  0  0  0  0  0  0  0  0  0  0
    8.1928   -1.9897    0.0000 C   0  0  0  0  0  0  0  0  0  0  0  0
    5.7818   -4.4007    0.0000 C   0  0  0  0  0  0  0  0  0  0  0  0
    5.7818   -5.7232    0.0000 C   0  0  0  0  0  0  0  0  0  0  0  0
    4.6348   -3.7336    0.0000 C   0  0  0  0  0  0  0  0  0  0  0  0
    6.9405   -3.7336    0.0000 C   0  0  0  0  0  0  0  0  0  0  0  0
    4.6348   -6.3787    0.0000 C   0  0  0  0  0  0  0  0  0  0  0  0
    2.3291   -6.3787    0.0000 C   0  0  0  0  0  0  0  0  0  0  0  0
    5.7818   -1.7205    0.0000 C   0  0  0  0  0  0  0  0  0  0  0  0
    8.9652   -3.0781    0.0000 C   0  0  0  0  0  0  0  0  0  0  0  0
    9.3398   -1.3694    0.0000 O   0  0  0  0  0  0  0  0  0  0  0  0
    4.6348   -2.3759    0.0000 C   0  0  0  0  0  0  0  0  0  0  0  0
    8.1928   -4.1198    0.0000 C   0  0  0  0  0  0  0  0  0  0  0  0
    2.3291   -3.7336    0.0000 C   0  0  0  0  0  0  0  0  0  0  0  0
    8.1928   -0.6905    0.0000 C   0  0  0  0  0  0  0  0  0  0  0  0
   10.5219   -1.9897    0.0000 C   0  0  0  0  0  0  0  0  0  0  0  0
    1.1587   -5.7232    0.0000 C   0  0  0  0  0  0  0  0  0  0  0  0
   10.5219   -3.3356    0.0000 O   0  0  0  0  0  0  0  0  0  0  0  0
    9.3632    0.0000    0.0000 O   0  0  0  0  0  0  0  0  0  0  0  0
    0.0000   -6.3904    0.0000 O   0  0  0  0  0  0  0  0  0  0  0  0
    1.1587   -4.4007    0.0000 C   0  0  0  0  0  0  0  0  0  0  0  0
    3.4644   -3.0781    0.0000 C   0  0  0  0  0  0  0  0  0  0  0  0
    6.9405   -1.0417    0.0000 C   0  0  0  0  0  0  0  0  0  0  0  0
    4.6348   -7.7246    0.0000 C   0  0  0  0  0  0  0  0  0  0  0  0
   11.7040   -1.3108    0.0000 C   0  0  0  0  0  0  0  0  0  0  0  0
    7.0575    0.0000    0.0000 C   0  0  0  0  0  0  0  0  0  0  0  0
    5.7818   -3.0781    0.0000 H   0  0  0  0  0  0  0  0  0  0  0  0
    6.9405   -5.0561    0.0000 H   0  0  0  0  0  0  0  0  0  0  0  0
    4.6348   -5.0561    0.0000 H   0  0  0  0  0  0  0  0  0  0  0  0
  1  2  1  0  0  0  0
  1  9  1  0  0  0  0
  1 10  2  0  0  0  0
  2  7  1  0  0  0  0
  2 16  1  0  0  0  0
  2 24  1  1  0  0  0
  3  8  1  0  0  0  0
  3  4  1  0  0  0  0
  3 25  1  1  0  0  0
  3 11  1  0  0  0  0
  4 13  1  6  0  0  0
  4 17  1  1  0  0  0
  4 12  1  0  0  0  0
  5  6  1  0  0  0  0
  5  8  1  0  0  0  0
  5  7  1  0  0  0  0
  5 29  1  1  0  0  0
  6  9  2  0  0  0  0
  7 14  1  0  0  0  0
  7 31  1  6  0  0  0
  8 15  1  0  0  0  0
  8 30  1  6  0  0  0
  9 26  1  0  0  0  0
 10 19  1  0  0  0  0
 11 14  1  0  0  0  0
 12 15  1  0  0  0  0
 13 18  1  0  0  0  0
 16 23  1  0  0  0  0
 17 21  2  0  0  0  0
 17 28  1  0  0  0  0
 18 20  2  0  0  0  0
 18 27  1  0  0  0  0
 19 22  2  0  0  0  0
 19 23  1  0  0  0  0
M  END
> <ID>
7881

> <Formula>
C24H32O4

> <FW>
384.5085

> <DSSTox_CID>
20683

> <DSSTox_RID>
79539

> <DSSTox_GSID>
40683

> <DSSTox_FileID_Sort>
4221

> <TS_ChemName>
Megestrol acetate

> <TS_ChemName_Synonyms>


> <TS_CASRN>
595-33-5

> <CASRN_ChemName_Relationship>
primary

> <TS_Description>
single chemical compound

> <ChemNote>
stereochem

> <STRUCTURE_Shown>
tested chemical

> <STRUCTURE_Formula>
C24H32O4

> <STRUCTURE_MW>
384.5085

> <STRUCTURE_ChemType>
defined organic

> <STRUCTURE_DefinedOrganicForm>
parent

> <STRUCTURE_IUPAC>
6-methyl-3,20-dioxopregna-4,6-dien-17-yl acetate

> <STRUCTURE_SMILES>
CC(=O)[C@@]3(OC(C)=O)CC[C@H]2[C@@H]4C=C(C)C1=CC(=O)CC[C@]1(C)[C@H]4CC[C@@]23C

> <STRUCTURE_SMILES_Desalt>
CC(=O)[C@@]3(OC(C)=O)CC[C@H]2[C@@H]4C=C(C)C1=CC(=O)CC[C@]1(C)[C@H]4CC[C@@]23C

> <Substance_modify_yyyymmdd>
20080429

$$$$
