596-51-0
ChemmineR-0915142007XD

 24 25  0  0  0  0  0  0  0  0  2 V2000
    5.3189   -3.3740    0.0000 C    0  0  0  0  0  0  0  0  0  0  0  0
    3.9865   -3.3740    0.0000 C    0  0  0  0  0  0  0  0  0  0  0  0
    9.3485   -5.1900    0.0000 N    0  3  0  0  0  0  0  0  0  0  0  0
    5.9744   -4.5345    0.0000 O    0  0  0  0  0  0  0  0  0  0  0  0
    5.9744   -2.2243    0.0000 O    0  0  0  0  0  0  0  0  0  0  0  0
    7.3068   -4.5345    0.0000 C    0  0  0  0  0  0  0  0  0  0  0  0
    2.6541   -3.3740    0.0000 C    0  0  0  0  0  0  0  0  0  0  0  0
    8.0912   -5.5983    0.0000 C    0  0  0  0  0  0  0  0  0  0  0  0
    9.3485   -3.8576    0.0000 C    0  0  0  0  0  0  0  0  0  0  0  0
    3.9865   -2.0524    0.0000 C    0  0  0  0  0  0  0  0  0  0  0  0
    8.0912   -3.4600    0.0000 C    0  0  0  0  0  0  0  0  0  0  0  0
    3.9865   -4.7065    0.0000 O    0  0  0  0  0  0  0  0  0  0  0  0
    9.8965   -6.4042    0.0000 C    0  0  0  0  0  0  0  0  0  0  0  0
   10.6809   -5.3297    0.0000 C    0  0  0  0  0  0  0  0  0  0  0  0
    1.9879   -4.5345    0.0000 C    0  0  0  0  0  0  0  0  0  0  0  0
    1.9879   -2.2243    0.0000 C    0  0  0  0  0  0  0  0  0  0  0  0
    2.9120   -1.2680    0.0000 C    0  0  0  0  0  0  0  0  0  0  0  0
    5.0611   -1.2680    0.0000 C    0  0  0  0  0  0  0  0  0  0  0  0
    0.6555   -4.5345    0.0000 C    0  0  0  0  0  0  0  0  0  0  0  0
    0.6555   -2.2243    0.0000 C    0  0  0  0  0  0  0  0  0  0  0  0
    4.6420    0.0000    0.0000 C    0  0  0  0  0  0  0  0  0  0  0  0
    3.3096    0.0000    0.0000 C    0  0  0  0  0  0  0  0  0  0  0  0
    0.0000   -3.3740    0.0000 C    0  0  0  0  0  0  0  0  0  0  0  0
   10.7453   -3.3418    0.0000 Br   0  5  0  0  0  0  0  0  0  0  0  0
  1  2  1  0  0  0  0
  1  4  1  0  0  0  0
  1  5  2  0  0  0  0
  2  7  1  0  0  0  0
  2 10  1  0  0  0  0
  2 12  1  0  0  0  0
  3  8  1  0  0  0  0
  3 13  1  0  0  0  0
  3 14  1  0  0  0  0
  3  9  1  0  0  0  0
  4  6  1  0  0  0  0
  6  8  1  0  0  0  0
  6 11  1  0  0  0  0
  7 15  2  0  0  0  0
  7 16  1  0  0  0  0
  9 11  1  0  0  0  0
 10 17  1  0  0  0  0
 10 18  1  0  0  0  0
 15 19  1  0  0  0  0
 16 20  2  0  0  0  0
 17 22  1  0  0  0  0
 18 21  1  0  0  0  0
 19 23  2  0  0  0  0
 20 23  1  0  0  0  0
 21 22  1  0  0  0  0
M  END
> <ID>
2792

> <Formula>
C19H28BrNO3

> <FW>
398.3345 (318.4300+79.9045)

> <DSSTox_CID>
3109

> <DSSTox_RID>
76878

> <DSSTox_GSID>
23109

> <DSSTox_FileID_Sort>
1562

> <TS_ChemName>
Glycopyrrolate bromide

> <TS_ChemName_Synonyms>


> <TS_CASRN>
596-51-0

> <CASRN_ChemName_Relationship>
primary

> <TS_Description>
single chemical compound

> <ChemNote>
ammonium; parent [13283-82-4]

> <STRUCTURE_Shown>
tested chemical

> <STRUCTURE_Formula>
C19H28BrNO3

> <STRUCTURE_MW>
398.3345

> <STRUCTURE_ChemType>
defined organic

> <STRUCTURE_DefinedOrganicForm>
salt

> <STRUCTURE_IUPAC>
3-{[cyclopentyl(hydroxy)phenylacetyl]oxy}-1,1-dimethylpyrrolidinium bromide

> <STRUCTURE_SMILES>
[Br-].C[N+]3(C)CCC(OC(=O)C(O)(c1ccccc1)C2CCCC2)C3

> <STRUCTURE_SMILES_Desalt>
C[N+]3(C)CCC(OC(=O)C(O)(c1ccccc1)C2CCCC2)C3

> <Substance_modify_yyyymmdd>
20110607

$$$$
