597-09-1
ChemmineR-0915142007XD

 10  9  0  0  0  0  0  0  0  0  2 V2000
    1.1682   -2.6780    0.0000 C   0  0  0  0  0  0  0  0  0  0  0  0
    2.3086   -2.0039    0.0000 C   0  0  0  0  0  0  0  0  0  0  0  0
    2.3086   -0.6741    0.0000 C   0  0  0  0  0  0  0  0  0  0  0  0
    0.0000   -2.0178    0.0000 O   0  0  0  0  0  0  0  0  0  0  0  0
    3.4491    0.0000    0.0000 C   0  0  0  0  0  0  0  0  0  0  0  0
    3.4768   -2.6596    0.0000 C   0  0  0  0  0  0  0  0  0  0  0  0
    4.6173   -1.9854    0.0000 O   0  0  0  0  0  0  0  0  0  0  0  0
    2.3086   -3.3337    0.0000 N   0  3  0  0  0  0  0  0  0  0  0  0
    3.4491   -3.9940    0.0000 O   0  5  0  0  0  0  0  0  0  0  0  0
    1.1543   -4.0078    0.0000 O   0  0  0  0  0  0  0  0  0  0  0  0
  1  2  1  0  0  0  0
  1  4  1  0  0  0  0
  2  3  1  0  0  0  0
  2  6  1  0  0  0  0
  2  8  1  0  0  0  0
  3  5  1  0  0  0  0
  6  7  1  0  0  0  0
  8  9  1  0  0  0  0
  8 10  2  0  0  0  0
M  END
> <ID>
8383

> <Formula>
C5H11NO4

> <FW>
149.1451

> <DSSTox_CID>
21417

> <DSSTox_RID>
79722

> <DSSTox_GSID>
41417

> <DSSTox_FileID_Sort>
4404

> <TS_ChemName>
2-Ethyl-2-nitro-1,3-propanediol

> <TS_ChemName_Synonyms>


> <TS_CASRN>
597-09-1

> <CASRN_ChemName_Relationship>
primary

> <TS_Description>
single chemical compound

> <ChemNote>


> <STRUCTURE_Shown>
tested chemical

> <STRUCTURE_Formula>
C5H11NO4

> <STRUCTURE_MW>
149.1451

> <STRUCTURE_ChemType>
defined organic

> <STRUCTURE_DefinedOrganicForm>
parent

> <STRUCTURE_IUPAC>
2-ethyl-2-nitropropane-1,3-diol

> <STRUCTURE_SMILES>
O=[N+]([O-])C(CC)(CO)CO

> <STRUCTURE_SMILES_Desalt>
O=[N+]([O-])C(CC)(CO)CO

> <Substance_modify_yyyymmdd>
20080825

$$$$
