59703-84-3
ChemmineR-0915142007XD

 39 41  0  0  1  0  0  0  0  0  2 V2000
    7.8517   -5.5157    0.0000 O    0  0  0  0  0  0  0  0  0  0  0  0
   12.2156   -4.2990    0.0000 N    0  0  0  0  0  0  0  0  0  0  0  0
   11.4531   -5.5157    0.0000 C    0  0  0  0  0  0  0  0  0  0  0  0
    3.4878   -4.1205    0.0000 N    0  0  0  0  0  0  0  0  0  0  0  0
   10.9664   -3.5203    0.0000 C    0  0  0  0  0  0  0  0  0  0  0  0
   10.2040   -4.7208    0.0000 C    0  0  0  0  0  0  0  0  0  0  0  0
    2.4009   -3.4392    0.0000 C    0  0  0  0  0  0  0  0  0  0  0  0
   13.6594   -4.6396    0.0000 C    0  0  0  0  0  0  0  0  0  0  0  0
    4.6072   -3.4554    0.0000 C    0  0  0  0  0  0  0  0  0  0  0  0
   12.3940   -6.6837    0.0000 S    0  0  0  0  0  0  0  0  0  0  0  0
   13.7405   -6.1159    0.0000 C    0  0  0  0  0  0  0  0  0  0  0  0
    1.1680   -4.1367    0.0000 C    0  0  0  0  0  0  0  0  0  0  0  0
    8.7602   -3.8285    0.0000 N    0  0  0  0  0  0  0  0  0  0  0  0
    5.7103   -4.1367    0.0000 N    0  0  0  0  0  0  0  0  0  0  0  0
    7.7382   -4.2341    0.0000 C    0  0  0  0  0  0  0  0  0  0  0  0
    1.1680   -5.4183    0.0000 N    0  0  0  0  0  0  0  0  0  0  0  0
    6.7486   -3.6014    0.0000 C    0  0  0  0  0  0  0  0  0  0  0  0
   14.8112   -3.6987    0.0000 C    0  0  0  0  0  0  0  0  0  0  0  0
    3.5041   -5.4346    0.0000 C    0  0  0  0  0  0  0  0  0  0  0  0
   10.7718   -2.2712    0.0000 O    0  0  0  0  0  0  0  0  0  0  0  0
    2.3685   -2.0603    0.0000 O    0  0  0  0  0  0  0  0  0  0  0  0
    4.5585   -2.1738    0.0000 O    0  0  0  0  0  0  0  0  0  0  0  0
    2.3360   -6.1321    0.0000 C    0  0  0  0  0  0  0  0  0  0  0  0
    0.1622   -3.5041    0.0000 O    0  0  0  0  0  0  0  0  0  0  0  0
   16.2225   -4.2016    0.0000 O    0  0  0  0  0  0  0  0  0  0  0  0
    6.7810   -2.4334    0.0000 C    0  0  0  0  0  0  0  0  0  0  0  0
   14.5841   -2.2063    0.0000 O    0  5  0  0  0  0  0  0  0  0  0  0
   13.8703   -7.5922    0.0000 C    0  0  0  0  0  0  0  0  0  0  0  0
   15.1519   -5.6130    0.0000 C    0  0  0  0  0  0  0  0  0  0  0  0
    0.0649   -5.9861    0.0000 C    0  0  0  0  0  0  0  0  0  0  0  0
    5.7752   -1.8007    0.0000 C    0  0  0  0  0  0  0  0  0  0  0  0
    7.8517   -1.8169    0.0000 C    0  0  0  0  0  0  0  0  0  0  0  0
    0.0000   -7.3001    0.0000 C    0  0  0  0  0  0  0  0  0  0  0  0
    7.9004   -0.6327    0.0000 C    0  0  0  0  0  0  0  0  0  0  0  0
    5.8239   -0.6165    0.0000 C    0  0  0  0  0  0  0  0  0  0  0  0
    6.8946    0.0000    0.0000 C    0  0  0  0  0  0  0  0  0  0  0  0
    9.6200   -5.6617    0.0000 H    0  0  0  0  0  0  0  0  0  0  0  0
   10.8691   -6.4566    0.0000 H    0  0  0  0  0  0  0  0  0  0  0  0
    6.5377   -6.6188    0.0000 Na   0  3  0  0  0  0  0  0  0  0  0  0
  1 15  2  0  0  0  0
  2  3  1  0  0  0  0
  2  5  1  0  0  0  0
  2  8  1  0  0  0  0
  3 10  1  0  0  0  0
  3 38  1  1  0  0  0
  3  6  1  0  0  0  0
  4  9  1  0  0  0  0
  4  7  1  0  0  0  0
  4 19  1  0  0  0  0
  5  6  1  0  0  0  0
  5 20  2  0  0  0  0
  6 13  1  6  0  0  0
  6 37  1  1  0  0  0
  7 12  1  0  0  0  0
  7 21  2  0  0  0  0
  8 11  1  0  0  0  0
  8 18  1  6  0  0  0
  9 14  1  0  0  0  0
  9 22  2  0  0  0  0
 10 11  1  0  0  0  0
 11 28  1  0  0  0  0
 11 29  1  0  0  0  0
 12 24  2  0  0  0  0
 12 16  1  0  0  0  0
 13 15  1  0  0  0  0
 14 17  1  0  0  0  0
 15 17  1  0  0  0  0
 16 23  1  0  0  0  0
 16 30  1  0  0  0  0
 17 26  1  6  0  0  0
 18 25  2  0  0  0  0
 18 27  1  0  0  0  0
 19 23  1  0  0  0  0
 26 31  2  0  0  0  0
 26 32  1  0  0  0  0
 30 33  1  0  0  0  0
 31 35  1  0  0  0  0
 32 34  2  0  0  0  0
 34 36  1  0  0  0  0
 35 36  2  0  0  0  0
M  END
> <ID>
13953

> <Formula>
C23H26N5NaO7S

> <FW>
539.5366 (516.5474+22.9892)

> <DSSTox_CID>
28891

> <DSSTox_RID>
83159

> <DSSTox_GSID>
48965

> <DSSTox_FileID_Sort>
7836

> <TS_ChemName>
Piperacillin sodium salt

> <TS_ChemName_Synonyms>


> <TS_CASRN>
59703-84-3

> <CASRN_ChemName_Relationship>
primary

> <TS_Description>
single chemical compound

> <ChemNote>


> <STRUCTURE_Shown>
tested chemical

> <STRUCTURE_Formula>
C23H26N5NaO7S

> <STRUCTURE_MW>
539.5366

> <STRUCTURE_ChemType>
defined organic

> <STRUCTURE_DefinedOrganicForm>
salt

> <STRUCTURE_IUPAC>
sodium (2R,5R,6R)-6-{[(2R)-2-{[(4-ethyl-2,3-dioxopiperazin-1-yl)carbonyl]amino}-2-phenylacetyl]amino}-3,3-dimethyl-7-oxo-4-thia-1-azabicyclo[3.2.0]heptane-2-carboxylate

> <STRUCTURE_SMILES>
[Na+].O=C([O-])[C@H]3N4C(=O)[C@@H](NC(=O)[C@H](NC(=O)N1CCN(CC)C(=O)C1=O)c2ccccc2)[C@H]4SC3(C)C

> <STRUCTURE_SMILES_Desalt>
OC(=O)[C@H]3N4C(=O)[C@@H](NC(=O)[C@H](NC(=O)N1CCN(CC)C(=O)C1=O)c2ccccc2)[C@H]4SC3(C)C

> <Substance_modify_yyyymmdd>
20111204

$$$$
