59719-67-4
ChemmineR-0915142007XD

 34 35  0  0  0  0  0  0  0  0  1 V2000
   22.4480   -0.7023    0.0000 C   0  0  0  0  0  0  0  0  0  0  0  0
   23.7522   -0.4515    0.0000 C   0  0  0  0  0  0  0  0  0  0  0  0
   24.4294   -1.5801    0.0000 O   0  0  0  0  0  0  0  0  0  0  0  0
   23.5515   -2.5834    0.0000 C   0  0  0  0  0  0  0  0  0  0  0  0
   22.3225   -2.0316    0.0000 N   0  0  0  0  0  0  0  0  0  0  0  0
   23.8274   -3.8876    0.0000 C   0  0  0  0  0  0  0  0  0  0  0  0
   22.8242   -4.7655    0.0000 C   0  0  0  0  0  0  0  0  0  0  0  0
   25.0815   -4.2889    0.0000 C   0  0  0  0  0  0  0  0  0  0  0  0
   21.1688   -2.7088    0.0000 C   0  0  0  0  0  0  0  0  0  0  0  0
   20.0150   -2.0316    0.0000 C   0  0  0  0  0  0  0  0  0  0  0  0
   18.8613   -2.7088    0.0000 O   0  0  0  0  0  0  0  0  0  0  0  0
   17.7075   -2.0316    0.0000 C   0  0  0  0  0  0  0  0  0  0  0  0
   16.5538   -2.7088    0.0000 N   0  0  0  0  0  0  0  0  0  0  0  0
   15.4000   -2.0316    0.0000 C   0  0  0  0  0  0  0  0  0  0  0  0
   14.2463   -2.7088    0.0000 C   0  0  0  0  0  0  0  0  0  0  0  0
   13.1176   -2.0567    0.0000 C   0  0  0  0  0  0  0  0  0  0  0  0
   11.9639   -2.7088    0.0000 C   0  0  0  0  0  0  0  0  0  0  0  0
   10.8352   -2.0567    0.0000 C   0  0  0  0  0  0  0  0  0  0  0  0
    9.6815   -2.7339    0.0000 C   0  0  0  0  0  0  0  0  0  0  0  0
   17.7075   -0.7274    0.0000 O   0  0  0  0  0  0  0  0  0  0  0  0
    8.5277   -2.0567    0.0000 N   0  0  0  0  0  0  0  0  0  0  0  0
    7.3740   -2.7339    0.0000 C   0  0  0  0  0  0  0  0  0  0  0  0
    6.2202   -2.0818    0.0000 O   0  0  0  0  0  0  0  0  0  0  0  0
    5.0665   -2.7590    0.0000 C   0  0  0  0  0  0  0  0  0  0  0  0
    3.9127   -2.0818    0.0000 C   0  0  0  0  0  0  0  0  0  0  0  0
    7.3740   -4.0381    0.0000 O   0  0  0  0  0  0  0  0  0  0  0  0
    0.6521   -3.1854    0.0000 O   0  0  0  0  0  0  0  0  0  0  0  0
    1.5551   -2.2072    0.0000 C   0  0  0  0  0  0  0  0  0  0  0  0
    2.7590   -2.7590    0.0000 N   0  0  0  0  0  0  0  0  0  0  0  0
    2.6336   -4.0632    0.0000 C   0  0  0  0  0  0  0  0  0  0  0  0
    1.3293   -4.3391    0.0000 C   0  0  0  0  0  0  0  0  0  0  0  0
    1.2541   -0.9029    0.0000 C   0  0  0  0  0  0  0  0  0  0  0  0
    2.2573    0.0000    0.0000 C   0  0  0  0  0  0  0  0  0  0  0  0
    0.0000   -0.4765    0.0000 C   0  0  0  0  0  0  0  0  0  0  0  0
  1  2  1  0  0  0  0
  1  5  1  0  0  0  0
  2  3  1  0  0  0  0
  3  4  1  0  0  0  0
  4  5  1  0  0  0  0
  4  6  1  0  0  0  0
  5  9  1  0  0  0  0
  6  7  1  0  0  0  0
  6  8  1  0  0  0  0
  9 10  1  0  0  0  0
 10 11  1  0  0  0  0
 11 12  1  0  0  0  0
 12 13  1  0  0  0  0
 12 20  2  0  0  0  0
 13 14  1  0  0  0  0
 14 15  1  0  0  0  0
 15 16  1  0  0  0  0
 16 17  1  0  0  0  0
 17 18  1  0  0  0  0
 18 19  1  0  0  0  0
 19 21  1  0  0  0  0
 21 22  1  0  0  0  0
 22 23  1  0  0  0  0
 22 26  2  0  0  0  0
 23 24  1  0  0  0  0
 24 25  1  0  0  0  0
 25 29  1  0  0  0  0
 27 28  1  0  0  0  0
 27 31  1  0  0  0  0
 28 29  1  0  0  0  0
 28 32  1  0  0  0  0
 29 30  1  0  0  0  0
 30 31  1  0  0  0  0
 32 33  1  0  0  0  0
 32 34  1  0  0  0  0
M  END
> <ID>
10608

> <Formula>
C24H46N4O6

> <FW>
486.6452

> <DSSTox_CID>
24961

> <DSSTox_RID>
80616

> <DSSTox_GSID>
44961

> <DSSTox_FileID_Sort>
5298

> <TS_ChemName>
Bis{2-[2-(propan-2-yl)-1,3-oxazolidin-3-yl]ethyl} hexane-1,6-diylbiscarbamate

> <TS_ChemName_Synonyms>
Bis{2-[2-(propan-2-yl)-1,3-oxazolidin-3-yl]ethyl} hexane-1,6-diylbiscarbamate (Carbamic acid, 1,6-hexanediylbis-, bis[2-[2-(1-methylethyl)-3-oxazolidinyl]ethyl] ester)

> <TS_CASRN>
59719-67-4

> <CASRN_ChemName_Relationship>
primary

> <TS_Description>
single chemical compound

> <ChemNote>


> <STRUCTURE_Shown>
tested chemical

> <STRUCTURE_Formula>
C24H46N4O6

> <STRUCTURE_MW>
486.6452

> <STRUCTURE_ChemType>
defined organic

> <STRUCTURE_DefinedOrganicForm>
parent

> <STRUCTURE_IUPAC>
bis{2-[2-(propan-2-yl)-1,3-oxazolidin-3-yl]ethyl} hexane-1,6-diylbiscarbamate

> <STRUCTURE_SMILES>
CC(C)C2OCCN2CCOC(=O)NCCCCCCNC(=O)OCCN1CCOC1C(C)C

> <STRUCTURE_SMILES_Desalt>
CC(C)C2OCCN2CCOC(=O)NCCCCCCNC(=O)OCCN1CCOC1C(C)C

> <Substance_modify_yyyymmdd>
20091116

$$$$
