59721-29-8
ChemmineR-0915142007XD

 34 34  0  0  0  0  0  0  0  0  1 V2000
   14.9936   -4.6475    0.0000 O   0  0  0  0  0  0  0  0  0  0  0  0
   13.8317   -3.9835    0.0000 C   0  0  0  0  0  0  0  0  0  0  0  0
   12.6699   -4.6475    0.0000 C   0  0  0  0  0  0  0  0  0  0  0  0
   11.5265   -3.9835    0.0000 C   0  0  0  0  0  0  0  0  0  0  0  0
   10.3646   -4.6475    0.0000 C   0  0  0  0  0  0  0  0  0  0  0  0
    9.2212   -3.9835    0.0000 C   0  0  0  0  0  0  0  0  0  0  0  0
    9.2212   -2.6557    0.0000 C   0  0  0  0  0  0  0  0  0  0  0  0
   10.3646   -1.9918    0.0000 C   0  0  0  0  0  0  0  0  0  0  0  0
   11.5265   -2.6557    0.0000 C   0  0  0  0  0  0  0  0  0  0  0  0
    8.0593   -1.9918    0.0000 O   0  0  0  0  0  0  0  0  0  0  0  0
    6.9159   -2.6557    0.0000 C   0  0  0  0  0  0  0  0  0  0  0  0
    6.9159   -3.9835    0.0000 O   0  0  0  0  0  0  0  0  0  0  0  0
    5.7724   -1.9918    0.0000 C   0  0  0  0  0  0  0  0  0  0  0  0
    4.6106   -2.6557    0.0000 C   0  0  0  0  0  0  0  0  0  0  0  0
    3.4487   -1.9918    0.0000 C   0  0  0  0  0  0  0  0  0  0  0  0
    3.4487   -0.6639    0.0000 C   0  0  0  0  0  0  0  0  0  0  0  0
    4.6106    0.0000    0.0000 C   0  0  0  0  0  0  0  0  0  0  0  0
    5.7724   -0.6639    0.0000 C   0  0  0  0  0  0  0  0  0  0  0  0
    2.3053    0.0000    0.0000 N   0  0  0  0  0  0  0  0  0  0  0  0
    1.1434   -0.6639    0.0000 C   0  0  0  0  0  0  0  0  0  0  0  0
    1.1434   -1.9918    0.0000 N   0  0  0  0  0  0  0  0  0  0  0  0
    0.0000    0.0000    0.0000 N   0  0  0  0  0  0  0  0  0  0  0  0
   13.8317   -2.6557    0.0000 O   0  0  0  0  0  0  0  0  0  0  0  0
   14.9936   -1.9918    0.0000 C   0  0  0  0  0  0  0  0  0  0  0  0
   16.1370   -2.6557    0.0000 C   0  0  0  0  0  0  0  0  0  0  0  0
   16.1370   -3.9835    0.0000 O   0  0  0  0  0  0  0  0  0  0  0  0
   17.2805   -1.9918    0.0000 N   0  0  0  0  0  0  0  0  0  0  0  0
   17.2805   -0.6639    0.0000 C   0  0  0  0  0  0  0  0  0  0  0  0
   18.4423   -2.6557    0.0000 C   0  0  0  0  0  0  0  0  0  0  0  0
    9.1843   -8.6495    0.0000 O   0  0  0  0  0  0  0  0  0  0  0  0
    9.1843   -7.3216    0.0000 S   0  0  0  0  0  0  0  0  0  0  0  0
    9.1843   -5.9938    0.0000 O   0  0  0  0  0  0  0  0  0  0  0  0
    7.8564   -7.3216    0.0000 C   0  0  0  0  0  0  0  0  0  0  0  0
   10.5121   -7.3216    0.0000 O   0  0  0  0  0  0  0  0  0  0  0  0
  1  2  2  0  0  0  0
  2  3  1  0  0  0  0
  2 23  1  0  0  0  0
  3  4  1  0  0  0  0
  4  5  2  0  0  0  0
  4  9  1  0  0  0  0
  5  6  1  0  0  0  0
  6  7  2  0  0  0  0
  7  8  1  0  0  0  0
  7 10  1  0  0  0  0
  8  9  2  0  0  0  0
 10 11  1  0  0  0  0
 11 12  2  0  0  0  0
 11 13  1  0  0  0  0
 13 14  2  0  0  0  0
 13 18  1  0  0  0  0
 14 15  1  0  0  0  0
 15 16  2  0  0  0  0
 16 17  1  0  0  0  0
 16 19  1  0  0  0  0
 17 18  2  0  0  0  0
 19 20  1  0  0  0  0
 20 21  2  0  0  0  0
 20 22  1  0  0  0  0
 23 24  1  0  0  0  0
 24 25  1  0  0  0  0
 25 26  2  0  0  0  0
 25 27  1  0  0  0  0
 27 28  1  0  0  0  0
 27 29  1  0  0  0  0
 30 31  2  0  0  0  0
 31 32  2  0  0  0  0
 31 33  1  0  0  0  0
 31 34  1  0  0  0  0
M  END
> <ID>
234

> <Formula>
C21H26N4O8S

> <FW>
494.5181 (398.4125+96.1057)

> <DSSTox_CID>
238

> <DSSTox_RID>
75452

> <DSSTox_GSID>
20238

> <DSSTox_FileID_Sort>
136

> <TS_ChemName>
Camostat mesylate

> <TS_ChemName_Synonyms>


> <TS_CASRN>
59721-29-8

> <CASRN_ChemName_Relationship>
primary

> <TS_Description>
single chemical compound

> <ChemNote>
parent [59721-28-7]

> <STRUCTURE_Shown>
tested chemical

> <STRUCTURE_Formula>
C21H26N4O8S

> <STRUCTURE_MW>
494.5181

> <STRUCTURE_ChemType>
defined organic

> <STRUCTURE_DefinedOrganicForm>
complex

> <STRUCTURE_IUPAC>
4-{2-[2-(dimethylamino)-2-oxoethoxy]-2-oxoethyl}phenyl 4-carbamimidamidobenzoate methanesulfonate (1:1)

> <STRUCTURE_SMILES>
O=C(Oc1ccc(cc1)CC(=O)OCC(=O)N(C)C)c2ccc(NC(=N)N)cc2.CS(=O)(=O)O

> <STRUCTURE_SMILES_Desalt>
O=C(Oc1ccc(cc1)CC(=O)OCC(=O)N(C)C)c2ccc(NC(=N)N)cc2

> <Substance_modify_yyyymmdd>
20080429

$$$$
