5973-71-7
ChemmineR-0915142007XD

 10 10  0  0  0  0  0  0  0  0  1 V2000
    4.6203   -1.3306    0.0000 C   0  0  0  0  0  0  0  0  0  0  0  0
    4.6203    0.0000    0.0000 O   0  0  0  0  0  0  0  0  0  0  0  0
    3.4652   -1.9867    0.0000 C   0  0  0  0  0  0  0  0  0  0  0  0
    2.3102   -1.3306    0.0000 C   0  0  0  0  0  0  0  0  0  0  0  0
    3.4652   -3.3220    0.0000 C   0  0  0  0  0  0  0  0  0  0  0  0
    1.1551   -1.9867    0.0000 C   0  0  0  0  0  0  0  0  0  0  0  0
    2.3102   -3.9781    0.0000 C   0  0  0  0  0  0  0  0  0  0  0  0
    1.1551   -3.3220    0.0000 C   0  0  0  0  0  0  0  0  0  0  0  0
    0.0000   -1.3306    0.0000 C   0  0  0  0  0  0  0  0  0  0  0  0
    0.0000   -3.9781    0.0000 C   0  0  0  0  0  0  0  0  0  0  0  0
  1  2  2  0  0  0  0
  1  3  1  0  0  0  0
  3  4  2  0  0  0  0
  3  5  1  0  0  0  0
  4  6  1  0  0  0  0
  5  7  2  0  0  0  0
  6  8  2  0  0  0  0
  6  9  1  0  0  0  0
  7  8  1  0  0  0  0
  8 10  1  0  0  0  0
M  END
> <ID>
8586

> <Formula>
C9H10O

> <FW>
134.1751

> <DSSTox_CID>
21626

> <DSSTox_RID>
79794

> <DSSTox_GSID>
41626

> <DSSTox_FileID_Sort>
4476

> <TS_ChemName>
3,4-Dimethylbenzaldehyde

> <TS_ChemName_Synonyms>
Benzaldehyde, 3,4-dimethyl-

> <TS_CASRN>
5973-71-7

> <CASRN_ChemName_Relationship>
primary

> <TS_Description>
single chemical compound

> <ChemNote>


> <STRUCTURE_Shown>
tested chemical

> <STRUCTURE_Formula>
C9H10O

> <STRUCTURE_MW>
134.1751

> <STRUCTURE_ChemType>
defined organic

> <STRUCTURE_DefinedOrganicForm>
parent

> <STRUCTURE_IUPAC>
3,4-dimethylbenzaldehyde

> <STRUCTURE_SMILES>
Cc1ccc(C=O)cc1C

> <STRUCTURE_SMILES_Desalt>
Cc1ccc(C=O)cc1C

> <Substance_modify_yyyymmdd>
20080825

$$$$
