59756-60-4
ChemmineR-0915142007XD

 24 26  0  0  0  0  0  0  0  0  1 V2000
    7.1245   -5.7544    0.0000 N   0  0  0  0  0  0  0  0  0  0  0  0
    5.8033   -5.7544    0.0000 C   0  0  0  0  0  0  0  0  0  0  0  0
    7.7998   -4.5996    0.0000 C   0  0  0  0  0  0  0  0  0  0  0  0
    7.1245   -3.4448    0.0000 C   0  0  0  0  0  0  0  0  0  0  0  0
    5.1379   -4.5996    0.0000 C   0  0  0  0  0  0  0  0  0  0  0  0
    5.8033   -3.4448    0.0000 C   0  0  0  0  0  0  0  0  0  0  0  0
    5.1379   -2.3096    0.0000 O   0  0  0  0  0  0  0  0  0  0  0  0
    7.7998   -6.9092    0.0000 C   0  0  0  0  0  0  0  0  0  0  0  0
    7.7998   -2.3096    0.0000 C   0  0  0  0  0  0  0  0  0  0  0  0
    7.1245   -1.1548    0.0000 C   0  0  0  0  0  0  0  0  0  0  0  0
    9.1307   -2.3096    0.0000 C   0  0  0  0  0  0  0  0  0  0  0  0
    7.7998    0.0000    0.0000 C   0  0  0  0  0  0  0  0  0  0  0  0
    9.7864   -1.1548    0.0000 C   0  0  0  0  0  0  0  0  0  0  0  0
    9.1307    0.0000    0.0000 C   0  0  0  0  0  0  0  0  0  0  0  0
    3.8069   -4.5996    0.0000 C   0  0  0  0  0  0  0  0  0  0  0  0
    3.1414   -5.7544    0.0000 C   0  0  0  0  0  0  0  0  0  0  0  0
    3.1414   -3.4448    0.0000 C   0  0  0  0  0  0  0  0  0  0  0  0
    1.8105   -5.7544    0.0000 C   0  0  0  0  0  0  0  0  0  0  0  0
    1.8105   -3.4448    0.0000 C   0  0  0  0  0  0  0  0  0  0  0  0
    1.1450   -4.5996    0.0000 C   0  0  0  0  0  0  0  0  0  0  0  0
    1.1450   -6.9092    0.0000 C   0  0  0  0  0  0  0  0  0  0  0  0
    0.4795   -8.0640    0.0000 F   0  0  0  0  0  0  0  0  0  0  0  0
    2.2900   -7.5649    0.0000 F   0  0  0  0  0  0  0  0  0  0  0  0
    0.0000   -6.2535    0.0000 F   0  0  0  0  0  0  0  0  0  0  0  0
  1  2  1  0  0  0  0
  1  3  1  0  0  0  0
  1  8  1  0  0  0  0
  2  5  2  0  0  0  0
  3  4  2  0  0  0  0
  4  6  1  0  0  0  0
  4  9  1  0  0  0  0
  5  6  1  0  0  0  0
  5 15  1  0  0  0  0
  6  7  2  0  0  0  0
  9 10  2  0  0  0  0
  9 11  1  0  0  0  0
 10 12  1  0  0  0  0
 11 13  2  0  0  0  0
 12 14  2  0  0  0  0
 13 14  1  0  0  0  0
 15 16  2  0  0  0  0
 15 17  1  0  0  0  0
 16 18  1  0  0  0  0
 17 19  2  0  0  0  0
 18 20  2  0  0  0  0
 18 21  1  0  0  0  0
 19 20  1  0  0  0  0
 21 22  1  0  0  0  0
 21 23  1  0  0  0  0
 21 24  1  0  0  0  0
M  END
> <ID>
3506

> <Formula>
C19H14F3NO

> <FW>
329.3158

> <DSSTox_CID>
4107

> <DSSTox_RID>
77292

> <DSSTox_GSID>
24107

> <DSSTox_FileID_Sort>
1975

> <TS_ChemName>
Fluridone

> <TS_ChemName_Synonyms>


> <TS_CASRN>
59756-60-4

> <CASRN_ChemName_Relationship>
primary

> <TS_Description>
single chemical compound

> <ChemNote>


> <STRUCTURE_Shown>
tested chemical

> <STRUCTURE_Formula>
C19H14F3NO

> <STRUCTURE_MW>
329.3158

> <STRUCTURE_ChemType>
defined organic

> <STRUCTURE_DefinedOrganicForm>
parent

> <STRUCTURE_IUPAC>
1-methyl-3-phenyl-5-[3-(trifluoromethyl)phenyl]pyridin-4(1H)-one

> <STRUCTURE_SMILES>
CN1C=C(C(=O)C(=C1)c2cc(ccc2)C(F)(F)F)c3ccccc3

> <STRUCTURE_SMILES_Desalt>
CN1C=C(C(=O)C(=C1)c2cc(ccc2)C(F)(F)F)c3ccccc3

> <Substance_modify_yyyymmdd>
20080429

$$$$
