598-78-7
ChemmineR-0915142007XD

  6  5  0  0  0  0  0  0  0  0  1 V2000
    3.3250   -1.1509    0.0000 C    0  0  0  0  0  0  0  0  0  0  0  0
    1.9943   -1.1509    0.0000 C    0  0  0  0  0  0  0  0  0  0  0  0
    1.3307    0.0000    0.0000 Cl   0  0  0  0  0  0  0  0  0  0  0  0
    1.3307   -2.3053    0.0000 C    0  0  0  0  0  0  0  0  0  0  0  0
    1.9943   -3.4563    0.0000 O    0  0  0  0  0  0  0  0  0  0  0  0
    0.0000   -2.3053    0.0000 O    0  0  0  0  0  0  0  0  0  0  0  0
  1  2  1  0  0  0  0
  2  3  1  0  0  0  0
  2  4  1  0  0  0  0
  4  5  1  0  0  0  0
  4  6  2  0  0  0  0
M  END
> <ID>
1484

> <Formula>
C3H5ClO2

> <FW>
108.5236

> <DSSTox_CID>
1545

> <DSSTox_RID>
76203

> <DSSTox_GSID>
21545

> <DSSTox_FileID_Sort>
887

> <TS_ChemName>
2-Chloropropanoic acid

> <TS_ChemName_Synonyms>


> <TS_CASRN>
598-78-7

> <CASRN_ChemName_Relationship>
primary

> <TS_Description>
single chemical compound

> <ChemNote>


> <STRUCTURE_Shown>
tested chemical

> <STRUCTURE_Formula>
C3H5ClO2

> <STRUCTURE_MW>
108.5236

> <STRUCTURE_ChemType>
defined organic

> <STRUCTURE_DefinedOrganicForm>
parent

> <STRUCTURE_IUPAC>
2-chloropropanoic acid

> <STRUCTURE_SMILES>
CC(Cl)C(=O)O

> <STRUCTURE_SMILES_Desalt>
CC(Cl)C(=O)O

> <Substance_modify_yyyymmdd>
20080429

$$$$
