598-72-1
ChemmineR-0915142007XD

  6  5  0  0  0  0  0  0  0  0  1 V2000
    0.6725   -1.1510    0.0000 C    0  0  0  0  0  0  0  0  0  0  0  0
    2.0016   -1.1510    0.0000 C    0  0  0  0  0  0  0  0  0  0  0  0
    2.6582    0.0000    0.0000 C    0  0  0  0  0  0  0  0  0  0  0  0
    0.0000    0.0000    0.0000 O    0  0  0  0  0  0  0  0  0  0  0  0
    0.0000   -2.3046    0.0000 O    0  0  0  0  0  0  0  0  0  0  0  0
    2.6582   -2.3046    0.0000 Br   0  0  0  0  0  0  0  0  0  0  0  0
  1  2  1  0  0  0  0
  1  5  1  0  0  0  0
  1  4  2  0  0  0  0
  2  3  1  0  0  0  0
  2  6  1  0  0  0  0
M  END
> <ID>
5013

> <Formula>
C3H5BrO2

> <FW>
152.9746

> <DSSTox_CID>
7233

> <DSSTox_RID>
78360

> <DSSTox_GSID>
27233

> <DSSTox_FileID_Sort>
3043

> <TS_ChemName>
2-Bromopropionic acid

> <TS_ChemName_Synonyms>


> <TS_CASRN>
598-72-1

> <CASRN_ChemName_Relationship>
primary

> <TS_Description>
single chemical compound

> <ChemNote>


> <STRUCTURE_Shown>
tested chemical

> <STRUCTURE_Formula>
C3H5BrO2

> <STRUCTURE_MW>
152.9746

> <STRUCTURE_ChemType>
defined organic

> <STRUCTURE_DefinedOrganicForm>
parent

> <STRUCTURE_IUPAC>
2-bromopropanoic acid

> <STRUCTURE_SMILES>
BrC(C)C(=O)O

> <STRUCTURE_SMILES_Desalt>
BrC(C)C(=O)O

> <Substance_modify_yyyymmdd>
20080429

$$$$
