59804-37-4
ChemmineR-0915142007XD

 22 24  0  0  0  0  0  0  0  0  1 V2000
    3.1695   -1.1608    0.0000 S   0  0  0  0  0  0  0  0  0  0  0  0
    2.0390   -1.8169    0.0000 C   0  0  0  0  0  0  0  0  0  0  0  0
    4.3303   -3.1291    0.0000 C   0  0  0  0  0  0  0  0  0  0  0  0
    4.3303   -1.8169    0.0000 N   0  0  0  0  0  0  0  0  0  0  0  0
    3.1695   -3.8054    0.0000 C   0  0  0  0  0  0  0  0  0  0  0  0
    2.0390   -3.1291    0.0000 C   0  0  0  0  0  0  0  0  0  0  0  0
    5.4810   -3.8155    0.0000 C   0  0  0  0  0  0  0  0  0  0  0  0
    6.6518   -3.1594    0.0000 N   0  0  0  0  0  0  0  0  0  0  0  0
    0.7671   -1.3930    0.0000 C   0  0  0  0  0  0  0  0  0  0  0  0
    0.7671   -3.5429    0.0000 S   0  0  0  0  0  0  0  0  0  0  0  0
    2.2711   -0.1615    0.0000 O   0  0  0  0  0  0  0  0  0  0  0  0
    3.8458    0.0000    0.0000 O   0  0  0  0  0  0  0  0  0  0  0  0
    0.0000   -2.4831    0.0000 C   0  0  0  0  0  0  0  0  0  0  0  0
    7.8025   -3.8155    0.0000 C   0  0  0  0  0  0  0  0  0  0  0  0
    5.4608   -5.1680    0.0000 O   0  0  0  0  0  0  0  0  0  0  0  0
    7.8025   -5.1680    0.0000 N   0  0  0  0  0  0  0  0  0  0  0  0
    3.1695   -5.1277    0.0000 O   0  0  0  0  0  0  0  0  0  0  0  0
    5.4810   -1.1305    0.0000 C   0  0  0  0  0  0  0  0  0  0  0  0
    8.9532   -5.8040    0.0000 C   0  0  0  0  0  0  0  0  0  0  0  0
    8.9532   -3.1594    0.0000 C   0  0  0  0  0  0  0  0  0  0  0  0
   10.0938   -5.1680    0.0000 C   0  0  0  0  0  0  0  0  0  0  0  0
   10.0938   -3.8155    0.0000 C   0  0  0  0  0  0  0  0  0  0  0  0
  1  2  1  0  0  0  0
  1  4  1  0  0  0  0
  1 11  2  0  0  0  0
  1 12  2  0  0  0  0
  2  6  2  0  0  0  0
  2  9  1  0  0  0  0
  3  4  1  0  0  0  0
  3  5  2  0  0  0  0
  3  7  1  0  0  0  0
  4 18  1  0  0  0  0
  5 17  1  0  0  0  0
  5  6  1  0  0  0  0
  6 10  1  0  0  0  0
  7  8  1  0  0  0  0
  7 15  2  0  0  0  0
  8 14  1  0  0  0  0
  9 13  2  0  0  0  0
 10 13  1  0  0  0  0
 14 16  1  0  0  0  0
 14 20  2  0  0  0  0
 16 19  2  0  0  0  0
 19 21  1  0  0  0  0
 20 22  1  0  0  0  0
 21 22  2  0  0  0  0
M  END
> <ID>
10977

> <Formula>
C13H11N3O4S2

> <FW>
337.3741

> <DSSTox_CID>
25486

> <DSSTox_RID>
80909

> <DSSTox_GSID>
45486

> <DSSTox_FileID_Sort>
5590

> <TS_ChemName>
Tenoxicam

> <TS_ChemName_Synonyms>


> <TS_CASRN>
59804-37-4

> <CASRN_ChemName_Relationship>
primary

> <TS_Description>
single chemical compound

> <ChemNote>
tautomers

> <STRUCTURE_Shown>
tested chemical

> <STRUCTURE_Formula>
C13H11N3O4S2

> <STRUCTURE_MW>
337.3741

> <STRUCTURE_ChemType>
defined organic

> <STRUCTURE_DefinedOrganicForm>
parent

> <STRUCTURE_IUPAC>
4-hydroxy-2-methyl-N-(pyridin-2-yl)-2H-thieno[2,3-e][1,2]thiazine-3-carboxamide 1,1-dioxide

> <STRUCTURE_SMILES>
OC=2c1sccc1S(=O)(=O)N(C)C=2C(=O)Nc3ccccn3

> <STRUCTURE_SMILES_Desalt>
OC=2c1sccc1S(=O)(=O)N(C)C=2C(=O)Nc3ccccn3

> <Substance_modify_yyyymmdd>
20100107

$$$$
