5982-61-6
ChemmineR-0915142007XD

 20 20  0  0  0  0  0  0  0  0  1 V2000
    2.6943   -3.5175    0.0000 C    0  0  0  0  0  0  0  0  0  0  0  0
    4.0331   -3.5175    0.0000 C    0  0  0  0  0  0  0  0  0  0  0  0
    2.9853   -2.2535    0.0000 C    0  0  0  0  0  0  0  0  0  0  0  0
    0.8232   -1.1975    0.0000 N    0  0  0  0  0  0  0  0  0  0  0  0
    2.6943   -4.8646    0.0000 C    0  0  0  0  0  0  0  0  0  0  0  0
    4.7482   -2.3700    0.0000 O    0  0  0  0  0  0  0  0  0  0  0  0
    2.1704   -1.1975    0.0000 C    0  0  0  0  0  0  0  0  0  0  0  0
    4.6983   -4.6817    0.0000 O    0  0  0  0  0  0  0  0  0  0  0  0
    1.4885   -4.0830    0.0000 C    0  0  0  0  0  0  0  0  0  0  0  0
    0.0000   -2.2535    0.0000 C    0  0  0  0  0  0  0  0  0  0  0  0
    0.2578    0.0000    0.0000 C    0  0  0  0  0  0  0  0  0  0  0  0
    0.2910   -3.5175    0.0000 C    0  0  0  0  0  0  0  0  0  0  0  0
    1.5717   -5.4966    0.0000 C    0  0  0  0  0  0  0  0  0  0  0  0
    3.8917   -5.4966    0.0000 C    0  0  0  0  0  0  0  0  0  0  0  0
    6.0122   -4.7150    0.0000 C    0  0  0  0  0  0  0  0  0  0  0  0
    6.6442   -5.8708    0.0000 C    0  0  0  0  0  0  0  0  0  0  0  0
    3.8917   -6.8438    0.0000 C    0  0  0  0  0  0  0  0  0  0  0  0
    1.5717   -6.8438    0.0000 C    0  0  0  0  0  0  0  0  0  0  0  0
    2.6943   -7.4924    0.0000 C    0  0  0  0  0  0  0  0  0  0  0  0
    4.2160   -8.3156    0.0000 Cl   0  0  0  0  0  0  0  0  0  0  0  0
  1  2  1  0  0  0  0
  1  3  1  0  0  0  0
  1  5  1  0  0  0  0
  1  9  1  0  0  0  0
  2  6  2  0  0  0  0
  2  8  1  0  0  0  0
  3  7  1  0  0  0  0
  4  7  1  0  0  0  0
  4 11  1  0  0  0  0
  4 10  1  0  0  0  0
  5 13  2  0  0  0  0
  5 14  1  0  0  0  0
  8 15  1  0  0  0  0
  9 12  1  0  0  0  0
 10 12  1  0  0  0  0
 13 18  1  0  0  0  0
 14 17  2  0  0  0  0
 15 16  1  0  0  0  0
 17 19  1  0  0  0  0
 18 19  2  0  0  0  0
M  END
> <ID>
13752

> <Formula>
C16H24ClNO2

> <FW>
297.8203 (261.3593+36.4609)

> <DSSTox_CID>
28688

> <DSSTox_RID>
82958

> <DSSTox_GSID>
48762

> <DSSTox_FileID_Sort>
7635

> <TS_ChemName>
Ethoheptazine hydrochloride

> <TS_ChemName_Synonyms>


> <TS_CASRN>
5982-61-6

> <CASRN_ChemName_Relationship>
primary

> <TS_Description>
single chemical compound

> <ChemNote>
hydrochloride dihydrate [99614-01-4]

> <STRUCTURE_Shown>
tested chemical

> <STRUCTURE_Formula>
C16H24ClNO2

> <STRUCTURE_MW>
297.8203

> <STRUCTURE_ChemType>
defined organic

> <STRUCTURE_DefinedOrganicForm>
complex

> <STRUCTURE_IUPAC>
ethyl 1-methyl-4-phenylazepane-4-carboxylate hydrochloride (1:1)

> <STRUCTURE_SMILES>
Cl.CN1CCCC(CC1)(C(=O)OCC)c2ccccc2

> <STRUCTURE_SMILES_Desalt>
CN1CCCC(CC1)(C(=O)OCC)c2ccccc2

> <Substance_modify_yyyymmdd>
20111204

$$$$
