5985-00-2
ChemmineR-0915142007XD

 17 18  0  0  0  0  0  0  0  0  1 V2000
    2.0354    0.0000    0.0000 C    0  0  0  0  0  0  0  0  0  0  0  0
    3.1896   -0.6551    0.0000 O    0  0  0  0  0  0  0  0  0  0  0  0
    3.1896   -1.9886    0.0000 C    0  0  0  0  0  0  0  0  0  0  0  0
    4.3516   -2.6593    0.0000 C    0  0  0  0  0  0  0  0  0  0  0  0
    5.5058   -1.9886    0.0000 C    0  0  0  0  0  0  0  0  0  0  0  0
    6.6443   -2.6593    0.0000 N    0  0  0  0  0  0  0  0  0  0  0  0
    7.7985   -1.9886    0.0000 C    0  0  0  0  0  0  0  0  0  0  0  0
    6.6443   -3.9928    0.0000 C    0  0  0  0  0  0  0  0  0  0  0  0
    5.5058   -4.6557    0.0000 C    0  0  0  0  0  0  0  0  0  0  0  0
    4.3516   -3.9928    0.0000 C    0  0  0  0  0  0  0  0  0  0  0  0
    3.1896   -4.6557    0.0000 C    0  0  0  0  0  0  0  0  0  0  0  0
    2.0354   -3.9928    0.0000 C    0  0  0  0  0  0  0  0  0  0  0  0
    2.0354   -2.6593    0.0000 C    0  0  0  0  0  0  0  0  0  0  0  0
    0.7877   -2.2460    0.0000 O    0  0  0  0  0  0  0  0  0  0  0  0
    0.0000   -3.3222    0.0000 C    0  0  0  0  0  0  0  0  0  0  0  0
    0.7877   -4.3984    0.0000 O    0  0  0  0  0  0  0  0  0  0  0  0
    3.0960   -5.8723    0.0000 Br   0  0  0  0  0  0  0  0  0  0  0  0
  1  2  1  0  0  0  0
  2  3  1  0  0  0  0
  3  4  2  0  0  0  0
  3 13  1  0  0  0  0
  4  5  1  0  0  0  0
  4 10  1  0  0  0  0
  5  6  1  0  0  0  0
  6  7  1  0  0  0  0
  6  8  1  0  0  0  0
  8  9  1  0  0  0  0
  9 10  1  0  0  0  0
 10 11  2  0  0  0  0
 11 12  1  0  0  0  0
 12 13  2  0  0  0  0
 12 16  1  0  0  0  0
 13 14  1  0  0  0  0
 14 15  1  0  0  0  0
 15 16  1  0  0  0  0
M  END
> <ID>
10920

> <Formula>
C12H16BrNO3

> <FW>
302.1643 (221.2524+80.9119)

> <DSSTox_CID>
25392

> <DSSTox_RID>
80849

> <DSSTox_GSID>
45392

> <DSSTox_FileID_Sort>
5530

> <TS_ChemName>
Hydrocotarnine hydrobromide

> <TS_ChemName_Synonyms>


> <TS_CASRN>
5985-00-2

> <CASRN_ChemName_Relationship>
primary

> <TS_Description>
single chemical compound

> <ChemNote>


> <STRUCTURE_Shown>
tested chemical

> <STRUCTURE_Formula>
C12H16BrNO3

> <STRUCTURE_MW>
302.1643

> <STRUCTURE_ChemType>
defined organic

> <STRUCTURE_DefinedOrganicForm>
complex

> <STRUCTURE_IUPAC>
4-methoxy-6-methyl-5,6,7,8-tetrahydro[1,3]dioxolo[4,5-g]isoquinoline hydrobromide (1:1)

> <STRUCTURE_SMILES>
Br.CN1Cc2c(OC)c3OCOc3cc2CC1

> <STRUCTURE_SMILES_Desalt>
CN1Cc2c(OC)c3OCOc3cc2CC1

> <Substance_modify_yyyymmdd>
20100107

$$$$
