59865-13-3
ChemmineR-0915142007XD

 86 86  0  0  1  0  0  0  0  0  1 V2000
   12.5911   -5.9979    0.0000 C   0  0  0  0  0  0  0  0  0  0  0  0
   11.4885   -6.6594    0.0000 N   0  0  0  0  0  0  0  0  0  0  0  0
   13.8039   -6.6594    0.0000 C   0  0  0  0  0  0  0  0  0  0  0  0
   12.6131   -4.6748    0.0000 C   0  0  0  0  0  0  0  0  0  0  0  0
   10.3419   -5.9979    0.0000 C   0  0  0  0  0  0  0  0  0  0  0  0
   11.4885   -8.0045    0.0000 C   0  0  0  0  0  0  0  0  0  0  0  0
   14.9285   -5.9979    0.0000 N   0  0  0  0  0  0  0  0  0  0  0  0
   13.7818   -8.0045    0.0000 O   0  0  0  0  0  0  0  0  0  0  0  0
   13.7818   -4.0133    0.0000 C   0  0  0  0  0  0  0  0  0  0  0  0
   11.4885   -4.0133    0.0000 O   0  0  0  0  0  0  0  0  0  0  0  0
    9.1952   -6.6594    0.0000 C   0  0  0  0  0  0  0  0  0  0  0  0
   10.3419   -4.6748    0.0000 O   0  0  0  0  0  0  0  0  0  0  0  0
   16.0751   -6.6594    0.0000 C   0  0  0  0  0  0  0  0  0  0  0  0
   13.7818   -2.6902    0.0000 C   0  0  0  0  0  0  0  0  0  0  0  0
   14.9285   -4.6748    0.0000 C   0  0  0  0  0  0  0  0  0  0  0  0
    8.0486   -5.9979    0.0000 N   0  0  0  0  0  0  0  0  0  0  0  0
    9.1952   -8.0045    0.0000 C   0  0  0  0  0  0  0  0  0  0  0  0
   17.2438   -5.9979    0.0000 C   0  0  0  0  0  0  0  0  0  0  0  0
   16.0751   -8.0045    0.0000 C   0  0  0  0  0  0  0  0  0  0  0  0
   12.6352   -2.0066    0.0000 C   0  0  0  0  0  0  0  0  0  0  0  0
    6.9019   -6.6594    0.0000 C   0  0  0  0  0  0  0  0  0  0  0  0
    8.0486   -4.6748    0.0000 C   0  0  0  0  0  0  0  0  0  0  0  0
    8.0486   -8.6881    0.0000 C   0  0  0  0  0  0  0  0  0  0  0  0
   10.3198   -8.6660    0.0000 C   0  0  0  0  0  0  0  0  0  0  0  0
   18.3684   -6.6594    0.0000 N   0  0  0  0  0  0  0  0  0  0  0  0
   17.2438   -4.6748    0.0000 O   0  0  0  0  0  0  0  0  0  0  0  0
   15.5680   -8.7101    0.0000 C   0  0  0  0  0  0  0  0  0  0  0  0
   12.6793   -0.6836    0.0000 C   0  0  0  0  0  0  0  0  0  0  0  0
    5.7553   -5.9979    0.0000 C   0  0  0  0  0  0  0  0  0  0  0  0
    6.9019   -8.0045    0.0000 O   0  0  0  0  0  0  0  0  0  0  0  0
   18.3684   -8.3132    0.0000 C   0  0  0  0  0  0  0  0  0  0  0  0
   19.5151   -5.9979    0.0000 C   0  0  0  0  0  0  0  0  0  0  0  0
   11.5767    0.0000    0.0000 C   0  0  0  0  0  0  0  0  0  0  0  0
    4.5866   -6.6594    0.0000 N   0  0  0  0  0  0  0  0  0  0  0  0
    5.7332   -4.6748    0.0000 C   0  0  0  0  0  0  0  0  0  0  0  0
   19.4710   -9.5701    0.0000 C   0  0  0  0  0  0  0  0  0  0  0  0
    4.5866   -8.0045    0.0000 C   0  0  0  0  0  0  0  0  0  0  0  0
    3.4399   -5.9979    0.0000 C   0  0  0  0  0  0  0  0  0  0  0  0
    4.5866   -4.0574    0.0000 C   0  0  0  0  0  0  0  0  0  0  0  0
   18.6771  -11.0696    0.0000 N   0  0  0  0  0  0  0  0  0  0  0  0
   20.5735   -9.5260    0.0000 O   0  0  0  0  0  0  0  0  0  0  0  0
    3.4179   -8.6440    0.0000 C   0  0  0  0  0  0  0  0  0  0  0  0
    5.7553   -8.6881    0.0000 O   0  0  0  0  0  0  0  0  0  0  0  0
    3.4399   -4.7410    0.0000 C   0  0  0  0  0  0  0  0  0  0  0  0
    4.5425   -2.7784    0.0000 C   0  0  0  0  0  0  0  0  0  0  0  0
   18.6771  -12.3706    0.0000 C   0  0  0  0  0  0  0  0  0  0  0  0
   17.6187  -10.3198    0.0000 C   0  0  0  0  0  0  0  0  0  0  0  0
    3.4399   -9.9891    0.0000 N   0  0  0  0  0  0  0  0  0  0  0  0
    2.2933   -8.0045    0.0000 C   0  0  0  0  0  0  0  0  0  0  0  0
   17.5305  -13.0321    0.0000 C   0  0  0  0  0  0  0  0  0  0  0  0
   19.8017  -13.0542    0.0000 C   0  0  0  0  0  0  0  0  0  0  0  0
    4.5866  -10.6506    0.0000 C   0  0  0  0  0  0  0  0  0  0  0  0
    2.3153  -10.6947    0.0000 C   0  0  0  0  0  0  0  0  0  0  0  0
    1.1466   -8.7101    0.0000 C   0  0  0  0  0  0  0  0  0  0  0  0
   16.4059  -12.3926    0.0000 N   0  0  0  0  0  0  0  0  0  0  0  0
   17.5084  -14.3111    0.0000 O   0  0  0  0  0  0  0  0  0  0  0  0
   20.9484  -12.4147    0.0000 C   0  0  0  0  0  0  0  0  0  0  0  0
    4.5866  -11.9737    0.0000 C   0  0  0  0  0  0  0  0  0  0  0  0
    5.7553   -9.9891    0.0000 O   0  0  0  0  0  0  0  0  0  0  0  0
    0.0000   -8.0706    0.0000 C   0  0  0  0  0  0  0  0  0  0  0  0
    1.1687  -10.0111    0.0000 C   0  0  0  0  0  0  0  0  0  0  0  0
   15.2813  -13.0762    0.0000 C   0  0  0  0  0  0  0  0  0  0  0  0
   22.0509  -13.0762    0.0000 C   0  0  0  0  0  0  0  0  0  0  0  0
   20.9484  -11.1137    0.0000 C   0  0  0  0  0  0  0  0  0  0  0  0
    6.0640  -13.0321    0.0000 N   0  0  0  0  0  0  0  0  0  0  0  0
    3.4840  -12.5911    0.0000 C   0  0  0  0  0  0  0  0  0  0  0  0
   14.1346  -12.4367    0.0000 C   0  0  0  0  0  0  0  0  0  0  0  0
   15.3254  -14.3772    0.0000 C   0  0  0  0  0  0  0  0  0  0  0  0
    7.2107  -12.3926    0.0000 C   0  0  0  0  0  0  0  0  0  0  0  0
   12.9880  -13.0321    0.0000 N   0  0  0  0  0  0  0  0  0  0  0  0
   14.1346  -11.1137    0.0000 O   0  0  0  0  0  0  0  0  0  0  0  0
   16.4500  -15.0167    0.0000 C   0  0  0  0  0  0  0  0  0  0  0  0
   14.2449  -15.0608    0.0000 C   0  0  0  0  0  0  0  0  0  0  0  0
    8.3794  -12.9880    0.0000 C   0  0  0  0  0  0  0  0  0  0  0  0
    7.2107  -11.0475    0.0000 O   0  0  0  0  0  0  0  0  0  0  0  0
   11.8414  -12.3926    0.0000 C   0  0  0  0  0  0  0  0  0  0  0  0
   12.9880  -14.3772    0.0000 C   0  0  0  0  0  0  0  0  0  0  0  0
    9.5701  -12.3926    0.0000 N   0  0  0  0  0  0  0  0  0  0  0  0
    8.3794  -14.3772    0.0000 C   0  0  0  0  0  0  0  0  0  0  0  0
   10.6727  -13.0321    0.0000 C   0  0  0  0  0  0  0  0  0  0  0  0
   11.8634  -11.0916    0.0000 C   0  0  0  0  0  0  0  0  0  0  0  0
   10.6727  -14.3772    0.0000 O   0  0  0  0  0  0  0  0  0  0  0  0
   13.0101  -10.4301    0.0000 C   0  0  0  0  0  0  0  0  0  0  0  0
   13.0762   -9.0850    0.0000 C   0  0  0  0  0  0  0  0  0  0  0  0
   14.2449  -10.2757    0.0000 C   0  0  0  0  0  0  0  0  0  0  0  0
   13.5172   -5.0717    0.0000 H   0  0  0  0  0  0  0  0  0  0  0  0
  1  2  1  0  0  0  0
  1  3  1  0  0  0  0
  1  4  1  0  0  0  0
  1 86  1  6  0  0  0
  2  5  1  0  0  0  0
  2  6  1  0  0  0  0
  3  7  1  0  0  0  0
  3  8  2  0  0  0  0
  4  9  1  0  0  0  0
  4 10  1  6  0  0  0
  5 11  1  0  0  0  0
  5 12  2  0  0  0  0
  7 13  1  0  0  0  0
  9 14  1  0  0  0  0
  9 15  1  1  0  0  0
 11 16  1  0  0  0  0
 11 17  1  6  0  0  0
 13 18  1  0  0  0  0
 13 19  1  6  0  0  0
 14 20  1  0  0  0  0
 16 21  1  0  0  0  0
 16 22  1  0  0  0  0
 17 23  1  0  0  0  0
 17 24  1  0  0  0  0
 18 25  1  0  0  0  0
 18 26  2  0  0  0  0
 19 27  1  0  0  0  0
 20 28  2  0  0  0  0
 21 29  1  0  0  0  0
 21 30  2  0  0  0  0
 25 31  1  0  0  0  0
 25 32  1  0  0  0  0
 28 33  1  0  0  0  0
 29 34  1  0  0  0  0
 29 35  1  1  0  0  0
 31 36  1  0  0  0  0
 34 37  1  0  0  0  0
 34 38  1  0  0  0  0
 35 39  1  0  0  0  0
 36 40  1  0  0  0  0
 36 41  2  0  0  0  0
 37 42  1  0  0  0  0
 37 43  2  0  0  0  0
 39 44  1  0  0  0  0
 39 45  1  0  0  0  0
 40 46  1  0  0  0  0
 40 47  1  0  0  0  0
 42 48  1  0  0  0  0
 42 49  1  1  0  0  0
 46 50  1  0  0  0  0
 46 51  1  1  0  0  0
 48 52  1  0  0  0  0
 48 53  1  0  0  0  0
 49 54  1  0  0  0  0
 50 55  1  0  0  0  0
 50 56  2  0  0  0  0
 51 57  1  0  0  0  0
 52 58  1  0  0  0  0
 52 59  2  0  0  0  0
 54 60  1  0  0  0  0
 54 61  1  0  0  0  0
 55 62  1  0  0  0  0
 57 63  1  0  0  0  0
 57 64  1  0  0  0  0
 58 65  1  0  0  0  0
 58 66  1  6  0  0  0
 62 67  1  0  0  0  0
 62 68  1  1  0  0  0
 65 69  1  0  0  0  0
 67 70  1  0  0  0  0
 67 71  2  0  0  0  0
 68 72  1  0  0  0  0
 68 73  1  0  0  0  0
 69 74  1  0  0  0  0
 69 75  2  0  0  0  0
 70 76  1  0  0  0  0
 70 77  1  0  0  0  0
 74 78  1  0  0  0  0
 74 79  1  1  0  0  0
 76 80  1  0  0  0  0
 76 81  1  6  0  0  0
 78 80  1  0  0  0  0
 80 82  2  0  0  0  0
 81 83  1  0  0  0  0
 83 84  1  0  0  0  0
 83 85  1  0  0  0  0
M  END
> <ID>
355

> <Formula>
C62H111N11O12

> <FW>
1202.6112

> <DSSTox_CID>
365

> <DSSTox_RID>
75541

> <DSSTox_GSID>
20365

> <DSSTox_FileID_Sort>
225

> <TS_ChemName>
Cyclosporin A

> <TS_ChemName_Synonyms>


> <TS_CASRN>
59865-13-3

> <CASRN_ChemName_Relationship>
primary

> <TS_Description>
single chemical compound

> <ChemNote>
stereochem

> <STRUCTURE_Shown>
tested chemical

> <STRUCTURE_Formula>
C62H111N11O12

> <STRUCTURE_MW>
1202.6112

> <STRUCTURE_ChemType>
defined organic

> <STRUCTURE_DefinedOrganicForm>
parent

> <STRUCTURE_IUPAC>
(3S,6S,9S,12R,15S,18S,21S,24S,30S,33S)-30-ethyl-33-[(1R,2R,4E)-1-hydroxy-2-methylhex-4-en-1-yl]-1,4,7,10,12,15,19,25,28-nonamethyl-6,9,18,24-tetrakis(2-methylpropyl)-3,21-di(propan-2-yl)-1,4,7,10,13,16,19,22,25,28,31-undecaazacyclotritriacontane-2,5,8,11,

> <STRUCTURE_SMILES>
C[C@H](C\C=C\C)[C@@H](O)[C@H]1C(=O)N[C@@H](CC)C(=O)N(C)CC(=O)N(C)[C@@H](CC(C)C)C(=O)N[C@H](C(=O)N(C)[C@@H](CC(C)C)C(=O)N[C@@H](C)C(=O)N[C@H](C)C(=O)N(C)[C@@H](CC(C)C)C(=O)N(C)[C@@H](CC(C)C)C(=O)N(C)[C@@H](C(C)C)C(=O)N1C)C(C)C

> <STRUCTURE_SMILES_Desalt>
C[C@H](C\C=C\C)[C@@H](O)[C@H]1C(=O)N[C@@H](CC)C(=O)N(C)CC(=O)N(C)[C@@H](CC(C)C)C(=O)N[C@H](C(=O)N(C)[C@@H](CC(C)C)C(=O)N[C@@H](C)C(=O)N[C@H](C)C(=O)N(C)[C@@H](CC(C)C)C(=O)N(C)[C@@H](CC(C)C)C(=O)N(C)[C@@H](C(C)C)C(=O)N1C)C(C)C

> <Substance_modify_yyyymmdd>
20080429

$$$$
