5987-82-6
ChemmineR-0915142007XD

 23 22  0  0  0  0  0  0  0  0  1 V2000
    4.4901   -5.9386    0.0000 Cl   0  0  0  0  0  0  0  0  0  0  0  0
    1.1507   -0.6518    0.0000 C    0  0  0  0  0  0  0  0  0  0  0  0
    1.1507   -2.0117    0.0000 C    0  0  0  0  0  0  0  0  0  0  0  0
    2.3014   -2.6474    0.0000 C    0  0  0  0  0  0  0  0  0  0  0  0
    2.3014   -4.0073    0.0000 C    0  0  0  0  0  0  0  0  0  0  0  0
    1.1507   -4.6591    0.0000 C    0  0  0  0  0  0  0  0  0  0  0  0
    0.0000    0.0000    0.0000 O    0  0  0  0  0  0  0  0  0  0  0  0
    0.0000   -2.6474    0.0000 C    0  0  0  0  0  0  0  0  0  0  0  0
    0.0000   -4.0073    0.0000 C    0  0  0  0  0  0  0  0  0  0  0  0
    2.3014    0.0000    0.0000 O    0  0  0  0  0  0  0  0  0  0  0  0
    1.1507   -6.0030    0.0000 N    0  0  0  0  0  0  0  0  0  0  0  0
    5.7455   -0.6840    0.0000 N    0  0  0  0  0  0  0  0  0  0  0  0
    3.4521   -4.6913    0.0000 O    0  0  0  0  0  0  0  0  0  0  0  0
    3.4521   -0.6840    0.0000 C    0  0  0  0  0  0  0  0  0  0  0  0
    4.5948   -0.0483    0.0000 C    0  0  0  0  0  0  0  0  0  0  0  0
    5.7455   -2.0439    0.0000 C    0  0  0  0  0  0  0  0  0  0  0  0
    6.8962   -0.0483    0.0000 C    0  0  0  0  0  0  0  0  0  0  0  0
    4.5948   -4.0395    0.0000 C    0  0  0  0  0  0  0  0  0  0  0  0
    5.6972   -4.7074    0.0000 C    0  0  0  0  0  0  0  0  0  0  0  0
    6.8479   -4.0073    0.0000 C    0  0  0  0  0  0  0  0  0  0  0  0
    4.5948   -2.6957    0.0000 C    0  0  0  0  0  0  0  0  0  0  0  0
    8.0469   -0.7484    0.0000 C    0  0  0  0  0  0  0  0  0  0  0  0
    7.9986   -4.6591    0.0000 C    0  0  0  0  0  0  0  0  0  0  0  0
  2  3  1  0  0  0  0
  2  7  2  0  0  0  0
  2 10  1  0  0  0  0
  3  4  1  0  0  0  0
  3  8  2  0  0  0  0
  4  5  2  0  0  0  0
  5 13  1  0  0  0  0
  5  6  1  0  0  0  0
  6  9  2  0  0  0  0
  6 11  1  0  0  0  0
  8  9  1  0  0  0  0
 10 14  1  0  0  0  0
 12 15  1  0  0  0  0
 12 16  1  0  0  0  0
 12 17  1  0  0  0  0
 13 18  1  0  0  0  0
 14 15  1  0  0  0  0
 16 21  1  0  0  0  0
 17 22  1  0  0  0  0
 18 19  1  0  0  0  0
 19 20  1  0  0  0  0
 20 23  1  0  0  0  0
M  END
> <ID>
10921

> <Formula>
C17H29ClN2O3

> <FW>
344.8768 (36.4609+308.4158)

> <DSSTox_CID>
25393

> <DSSTox_RID>
80850

> <DSSTox_GSID>
45393

> <DSSTox_FileID_Sort>
5531

> <TS_ChemName>
Benoxinate hydrochloride

> <TS_ChemName_Synonyms>


> <TS_CASRN>
5987-82-6

> <CASRN_ChemName_Relationship>
primary

> <TS_Description>
single chemical compound

> <ChemNote>
parent [99-43-4]

> <STRUCTURE_Shown>
tested chemical

> <STRUCTURE_Formula>
C17H29ClN2O3

> <STRUCTURE_MW>
344.8768

> <STRUCTURE_ChemType>
defined organic

> <STRUCTURE_DefinedOrganicForm>
complex

> <STRUCTURE_IUPAC>
2-(diethylamino)ethyl 4-amino-3-butoxybenzoate hydrochloride (1:1)

> <STRUCTURE_SMILES>
Cl.CCN(CC)CCOC(=O)c1cc(OCCCC)c(N)cc1

> <STRUCTURE_SMILES_Desalt>
CCN(CC)CCOC(=O)c1cc(OCCCC)c(N)cc1

> <Substance_modify_yyyymmdd>
20100107

$$$$
