5989-27-5
ChemmineR-0915142007XD

 10 10  0  0  1  0  0  0  0  0  1 V2000
    0.0000   -5.9795    0.0000 C   0  0  0  0  0  0  0  0  0  0  0  0
    1.1540   -5.3098    0.0000 C   0  0  0  0  0  0  0  0  0  0  0  0
    2.3021   -5.9795    0.0000 C   0  0  0  0  0  0  0  0  0  0  0  0
    1.1540   -3.9823    0.0000 C   0  0  0  0  0  0  0  0  0  0  0  0
    0.0000   -3.3246    0.0000 C   0  0  0  0  0  0  0  0  0  0  0  0
    0.0000   -1.9852    0.0000 C   0  0  0  0  0  0  0  0  0  0  0  0
    1.1540   -1.3274    0.0000 C   0  0  0  0  0  0  0  0  0  0  0  0
    2.3021   -1.9852    0.0000 C   0  0  0  0  0  0  0  0  0  0  0  0
    2.3021   -3.3246    0.0000 C   0  0  0  0  0  0  0  0  0  0  0  0
    1.1540    0.0000    0.0000 C   0  0  0  0  0  0  0  0  0  0  0  0
  1  2  1  0  0  0  0
  2  3  2  0  0  0  0
  4  2  1  6  0  0  0
  4  5  1  0  0  0  0
  4  9  1  0  0  0  0
  5  6  1  0  0  0  0
  6  7  1  0  0  0  0
  7  8  2  0  0  0  0
  7 10  1  0  0  0  0
  8  9  1  0  0  0  0
M  END
> <ID>
748

> <Formula>
C10H16

> <FW>
136.234

> <DSSTox_CID>
778

> <DSSTox_RID>
75785

> <DSSTox_GSID>
20778

> <DSSTox_FileID_Sort>
469

> <TS_ChemName>
D-Limonene

> <TS_ChemName_Synonyms>
(4R)-1-methyl-4-(prop-1-en-2-yl)cyclohexene (D-Limonene) (Cyclohexene, 1-methyl-4-(1-methylethenyl)-, (4R)-) (d-Limonene)

> <TS_CASRN>
5989-27-5

> <CASRN_ChemName_Relationship>
primary

> <TS_Description>
single chemical compound

> <ChemNote>
stereochem

> <STRUCTURE_Shown>
tested chemical

> <STRUCTURE_Formula>
C10H16

> <STRUCTURE_MW>
136.234

> <STRUCTURE_ChemType>
defined organic

> <STRUCTURE_DefinedOrganicForm>
parent

> <STRUCTURE_IUPAC>
(4R)-1-methyl-4-(prop-1-en-2-yl)cyclohexene

> <STRUCTURE_SMILES>
CC1=CC[C@@H](CC1)C(C)=C

> <STRUCTURE_SMILES_Desalt>
CC1=CC[C@@H](CC1)C(C)=C

> <Substance_modify_yyyymmdd>
20080429

$$$$
