599-88-2
ChemmineR-0915142007XD

 18 19  0  0  0  0  0  0  0  0  1 V2000
    9.3053   -5.9368    0.0000 C   0  0  0  0  0  0  0  0  0  0  0  0
    8.6447   -4.7829    0.0000 C   0  0  0  0  0  0  0  0  0  0  0  0
    9.3053   -3.6384    0.0000 C   0  0  0  0  0  0  0  0  0  0  0  0
    8.6447   -2.4845    0.0000 N   0  0  0  0  0  0  0  0  0  0  0  0
    7.3140   -2.4845    0.0000 C   0  0  0  0  0  0  0  0  0  0  0  0
    6.6440   -1.3307    0.0000 N   0  0  0  0  0  0  0  0  0  0  0  0
    5.3133   -1.3307    0.0000 S   0  0  0  0  0  0  0  0  0  0  0  0
    5.3133    0.0000    0.0000 O   0  0  0  0  0  0  0  0  0  0  0  0
    5.3133   -2.6613    0.0000 O   0  0  0  0  0  0  0  0  0  0  0  0
    3.9920   -1.3307    0.0000 C   0  0  0  0  0  0  0  0  0  0  0  0
    3.3220   -0.1768    0.0000 C   0  0  0  0  0  0  0  0  0  0  0  0
    1.9913   -0.1768    0.0000 C   0  0  0  0  0  0  0  0  0  0  0  0
    1.3307   -1.3307    0.0000 C   0  0  0  0  0  0  0  0  0  0  0  0
    0.0000   -1.3307    0.0000 N   0  0  0  0  0  0  0  0  0  0  0  0
    1.9913   -2.4845    0.0000 C   0  0  0  0  0  0  0  0  0  0  0  0
    3.3220   -2.4845    0.0000 C   0  0  0  0  0  0  0  0  0  0  0  0
    6.6440   -3.6384    0.0000 N   0  0  0  0  0  0  0  0  0  0  0  0
    7.3140   -4.7829    0.0000 C   0  0  0  0  0  0  0  0  0  0  0  0
  1  2  1  0  0  0  0
  2  3  2  0  0  0  0
  2 18  1  0  0  0  0
  3  4  1  0  0  0  0
  4  5  2  0  0  0  0
  5  6  1  0  0  0  0
  5 17  1  0  0  0  0
  6  7  1  0  0  0  0
  7  8  2  0  0  0  0
  7  9  2  0  0  0  0
  7 10  1  0  0  0  0
 10 11  2  0  0  0  0
 10 16  1  0  0  0  0
 11 12  1  0  0  0  0
 12 13  2  0  0  0  0
 13 14  1  0  0  0  0
 13 15  1  0  0  0  0
 15 16  2  0  0  0  0
 17 18  2  0  0  0  0
M  END
> <ID>
16181

> <Formula>
C11H12N4O2S

> <FW>
264.3036

> <DSSTox_CID>
31571

> <DSSTox_RID>
97456

> <DSSTox_GSID>
57782

> <DSSTox_FileID_Sort>
8523

> <TS_ChemName>
Sulfaperin

> <TS_ChemName_Synonyms>


> <TS_CASRN>
599-88-2

> <CASRN_ChemName_Relationship>
primary

> <TS_Description>
single chemical compound

> <ChemNote>


> <STRUCTURE_Shown>
tested chemical

> <STRUCTURE_Formula>
C11H12N4O2S

> <STRUCTURE_MW>
264.3036

> <STRUCTURE_ChemType>
defined organic

> <STRUCTURE_DefinedOrganicForm>
parent

> <STRUCTURE_IUPAC>
4-amino-N-(5-methylpyrimidin-2-yl)benzenesulfonamide

> <STRUCTURE_SMILES>
O=S(=O)(Nc1ncc(C)cn1)c2ccc(N)cc2

> <STRUCTURE_SMILES_Desalt>
O=S(=O)(Nc1ncc(C)cn1)c2ccc(N)cc2

> <Substance_modify_yyyymmdd>
20131121

$$$$
