599-61-1
ChemmineR-0915142007XD

 17 18  0  0  0  0  0  0  0  0  1 V2000
    1.6159   -4.1006    0.0000 C   0  0  0  0  0  0  0  0  0  0  0  0
    0.3354   -3.7500    0.0000 C   0  0  0  0  0  0  0  0  0  0  0  0
    0.0000   -2.4543    0.0000 C   0  0  0  0  0  0  0  0  0  0  0  0
    0.9451   -1.5244    0.0000 C   0  0  0  0  0  0  0  0  0  0  0  0
    2.2256   -1.8750    0.0000 C   0  0  0  0  0  0  0  0  0  0  0  0
    2.5610   -3.1555    0.0000 C   0  0  0  0  0  0  0  0  0  0  0  0
    1.9665   -5.3811    0.0000 N   0  0  0  0  0  0  0  0  0  0  0  0
    6.3263   -2.5000    0.0000 C   0  0  0  0  0  0  0  0  0  0  0  0
    5.9909   -3.7805    0.0000 C   0  0  0  0  0  0  0  0  0  0  0  0
    4.6951   -4.1159    0.0000 C   0  0  0  0  0  0  0  0  0  0  0  0
    3.7653   -3.1708    0.0000 C   0  0  0  0  0  0  0  0  0  0  0  0
    4.1159   -1.8903    0.0000 C   0  0  0  0  0  0  0  0  0  0  0  0
    5.3964   -1.5549    0.0000 C   0  0  0  0  0  0  0  0  0  0  0  0
    7.6220   -2.1494    0.0000 N   0  0  0  0  0  0  0  0  0  0  0  0
    3.1708   -0.9451    0.0000 S   0  0  0  0  0  0  0  0  0  0  0  0
    2.2409    0.0000    0.0000 O   0  0  0  0  0  0  0  0  0  0  0  0
    4.1159    0.0000    0.0000 O   0  0  0  0  0  0  0  0  0  0  0  0
  1  2  2  0  0  0  0
  1  6  1  0  0  0  0
  1  7  1  0  0  0  0
  2  3  1  0  0  0  0
  3  4  2  0  0  0  0
  4  5  1  0  0  0  0
  5  6  2  0  0  0  0
  5 15  1  0  0  0  0
  8  9  2  0  0  0  0
  8 13  1  0  0  0  0
  8 14  1  0  0  0  0
  9 10  1  0  0  0  0
 10 11  2  0  0  0  0
 11 12  1  0  0  0  0
 12 13  2  0  0  0  0
 12 15  1  0  0  0  0
 15 16  2  0  0  0  0
 15 17  2  0  0  0  0
M  END
> <ID>
10609

> <Formula>
C12H12N2O2S

> <FW>
248.3009

> <DSSTox_CID>
24962

> <DSSTox_RID>
80617

> <DSSTox_GSID>
44962

> <DSSTox_FileID_Sort>
5299

> <TS_ChemName>
3,3'-Sulphonyldianiline

> <TS_ChemName_Synonyms>
3,3'-Sulfonyldianiline (Benzenamine, 3,3'-sulfonylbis-)

> <TS_CASRN>
599-61-1

> <CASRN_ChemName_Relationship>
primary

> <TS_Description>
single chemical compound

> <ChemNote>


> <STRUCTURE_Shown>
tested chemical

> <STRUCTURE_Formula>
C12H12N2O2S

> <STRUCTURE_MW>
248.3009

> <STRUCTURE_ChemType>
defined organic

> <STRUCTURE_DefinedOrganicForm>
parent

> <STRUCTURE_IUPAC>
3,3'-sulfonyldianiline

> <STRUCTURE_SMILES>
Nc1cc(ccc1)S(=O)(=O)c2cc(N)ccc2

> <STRUCTURE_SMILES_Desalt>
Nc1cc(ccc1)S(=O)(=O)c2cc(N)ccc2

> <Substance_modify_yyyymmdd>
20091116

$$$$
