59917-39-4
ChemmineR-0915142007XD

 62 69  0  0  1  0  0  0  0  0  1 V2000
    9.6730   -3.9199    0.0000 S   0  0  0  0  0  0  0  0  0  0  0  0
   10.9548   -3.9199    0.0000 O   0  0  0  0  0  0  0  0  0  0  0  0
    8.3912   -3.9199    0.0000 O   0  0  0  0  0  0  0  0  0  0  0  0
    9.6730   -5.2017    0.0000 O   0  0  0  0  0  0  0  0  0  0  0  0
    9.6730   -2.6381    0.0000 O   0  0  0  0  0  0  0  0  0  0  0  0
   12.6688   -8.5999    0.0000 C   0  0  0  0  0  0  0  0  0  0  0  0
   12.6688   -9.8668    0.0000 C   0  0  0  0  0  0  0  0  0  0  0  0
   11.5659   -7.9441    0.0000 C   0  0  0  0  0  0  0  0  0  0  0  0
   11.5659  -10.5226    0.0000 C   0  0  0  0  0  0  0  0  0  0  0  0
   10.4630   -8.5999    0.0000 C   0  0  0  0  0  0  0  0  0  0  0  0
   10.4630   -9.8668    0.0000 C   0  0  0  0  0  0  0  0  0  0  0  0
   13.8016   -7.9441    0.0000 C   0  0  0  0  0  0  0  0  0  0  0  0
   13.8016   -6.6623    0.0000 C   0  0  0  0  0  0  0  0  0  0  0  0
   11.5659   -6.6623    0.0000 N   0  0  0  0  0  0  0  0  0  0  0  0
   12.6688   -6.0065    0.0000 C   0  0  0  0  0  0  0  0  0  0  0  0
    9.5836   -7.3181    0.0000 C   0  0  0  0  0  0  0  0  0  0  0  0
   10.3288   -6.2599    0.0000 C   0  0  0  0  0  0  0  0  0  0  0  0
    9.0768   -8.1230    0.0000 C   0  0  0  0  0  0  0  0  0  0  0  0
    8.4210   -9.2557    0.0000 C   0  0  0  0  0  0  0  0  0  0  0  0
    9.2259  -10.2692    0.0000 N   0  0  0  0  0  0  0  0  0  0  0  0
    8.4210   -7.0200    0.0000 C   0  0  0  0  0  0  0  0  0  0  0  0
    7.1393   -7.0200    0.0000 C   0  0  0  0  0  0  0  0  0  0  0  0
    7.1393   -9.2557    0.0000 C   0  0  0  0  0  0  0  0  0  0  0  0
    6.4984   -8.1230    0.0000 C   0  0  0  0  0  0  0  0  0  0  0  0
    5.2166   -8.1230    0.0000 O   0  0  0  0  0  0  0  0  0  0  0  0
   13.8016   -9.2408    0.0000 C   0  0  0  0  0  0  0  0  0  0  0  0
   14.9045   -8.5850    0.0000 C   0  0  0  0  0  0  0  0  0  0  0  0
   13.8016  -10.5226    0.0000 O   0  0  0  0  0  0  0  0  0  0  0  0
   12.2068  -11.6553    0.0000 O   0  0  0  0  0  0  0  0  0  0  0  0
   10.9399  -11.7000    0.0000 C   0  0  0  0  0  0  0  0  0  0  0  0
    9.6581  -11.7000    0.0000 O   0  0  0  0  0  0  0  0  0  0  0  0
   11.6404  -12.7582    0.0000 N   0  0  0  0  0  0  0  0  0  0  0  0
   10.1052  -11.1486    0.0000 H   0  0  0  0  0  0  0  0  0  0  0  0
    8.8235  -11.5063    0.0000 C   0  0  0  0  0  0  0  0  0  0  0  0
    4.5608   -9.2557    0.0000 C   0  0  0  0  0  0  0  0  0  0  0  0
   11.5659   -9.2408    0.0000 H   0  0  0  0  0  0  0  0  0  0  0  0
    7.2734   -0.6558    0.0000 C   0  0  0  0  0  0  0  0  0  0  0  0
    7.2734   -1.9227    0.0000 C   0  0  0  0  0  0  0  0  0  0  0  0
    6.1705    0.0000    0.0000 C   0  0  0  0  0  0  0  0  0  0  0  0
    6.1705   -2.5785    0.0000 C   0  0  0  0  0  0  0  0  0  0  0  0
    5.0675   -0.6558    0.0000 N   0  0  0  0  0  0  0  0  0  0  0  0
    5.0675   -1.9227    0.0000 C   0  0  0  0  0  0  0  0  0  0  0  0
    6.1705   -3.8603    0.0000 C   0  0  0  0  0  0  0  0  0  0  0  0
    5.0675   -4.5012    0.0000 C   0  0  0  0  0  0  0  0  0  0  0  0
    3.9348   -2.5785    0.0000 C   0  0  0  0  0  0  0  0  0  0  0  0
    3.9348   -3.8603    0.0000 C   0  0  0  0  0  0  0  0  0  0  0  0
    3.8305   -0.2534    0.0000 C   0  0  0  0  0  0  0  0  0  0  0  0
    3.0703   -1.2818    0.0000 C   0  0  0  0  0  0  0  0  0  0  0  0
    2.5785   -2.1015    0.0000 C   0  0  0  0  0  0  0  0  0  0  0  0
    1.9376   -3.2343    0.0000 C   0  0  0  0  0  0  0  0  0  0  0  0
    2.6977   -4.2627    0.0000 N   0  0  0  0  0  0  0  0  0  0  0  0
    1.9376   -0.9986    0.0000 C   0  0  0  0  0  0  0  0  0  0  0  0
    0.6558   -0.9986    0.0000 C   0  0  0  0  0  0  0  0  0  0  0  0
    0.6558   -3.2343    0.0000 C   0  0  0  0  0  0  0  0  0  0  0  0
    0.0000   -2.1015    0.0000 C   0  0  0  0  0  0  0  0  0  0  0  0
    8.4061    0.0000    0.0000 C   0  0  0  0  0  0  0  0  0  0  0  0
    9.5091   -0.6260    0.0000 C   0  0  0  0  0  0  0  0  0  0  0  0
    8.4061   -1.2818    0.0000 O   0  0  0  0  0  0  0  0  0  0  0  0
    4.4266   -5.6041    0.0000 C   0  0  0  0  0  0  0  0  0  0  0  0
    3.1448   -5.6041    0.0000 O   0  0  0  0  0  0  0  0  0  0  0  0
    5.0824   -6.7070    0.0000 O   0  0  0  0  0  0  0  0  0  0  0  0
    4.4415   -7.8398    0.0000 C   0  0  0  0  0  0  0  0  0  0  0  0
  1  2  2  0  0  0  0
  1  3  2  0  0  0  0
  1  4  1  0  0  0  0
  1  5  1  0  0  0  0
  6  7  1  0  0  0  0
  6 12  1  0  0  0  0
  6  8  1  0  0  0  0
  6 26  1  6  0  0  0
  7  9  1  0  0  0  0
  7 28  1  1  0  0  0
  8 10  1  0  0  0  0
  8 14  1  0  0  0  0
  8 36  1  6  0  0  0
  9 11  1  0  0  0  0
  9 29  1  1  0  0  0
  9 30  1  0  0  0  0
 10 16  1  1  0  0  0
 10 18  1  0  0  0  0
 10 11  1  0  0  0  0
 11 20  1  0  0  0  0
 11 33  1  1  0  0  0
 12 13  2  0  0  0  0
 13 15  1  0  0  0  0
 14 15  1  0  0  0  0
 14 17  1  0  0  0  0
 16 17  1  0  0  0  0
 18 21  1  0  0  0  0
 18 19  2  0  0  0  0
 19 20  1  0  0  0  0
 19 23  1  0  0  0  0
 20 34  1  0  0  0  0
 21 22  2  0  0  0  0
 22 24  1  0  0  0  0
 22 44  1  0  0  0  0
 23 24  2  0  0  0  0
 24 25  1  0  0  0  0
 25 35  1  0  0  0  0
 26 27  1  0  0  0  0
 30 31  2  0  0  0  0
 30 32  1  0  0  0  0
 37 38  1  0  0  0  0
 37 39  1  0  0  0  0
 37 56  1  0  0  0  0
 37 58  1  1  0  0  0
 38 40  1  0  0  0  0
 39 41  1  0  0  0  0
 40 43  1  0  0  0  0
 40 42  1  6  0  0  0
 41 47  1  0  0  0  0
 41 42  1  6  0  0  0
 43 44  1  0  0  0  0
 44 46  1  0  0  0  0
 44 59  1  1  0  0  0
 45 48  1  0  0  0  0
 45 49  1  0  0  0  0
 45 46  2  0  0  0  0
 46 51  1  0  0  0  0
 47 48  1  0  0  0  0
 49 52  1  0  0  0  0
 49 50  2  0  0  0  0
 50 51  1  0  0  0  0
 50 54  1  0  0  0  0
 52 53  2  0  0  0  0
 53 55  1  0  0  0  0
 54 55  2  0  0  0  0
 56 57  1  0  0  0  0
 59 60  2  0  0  0  0
 59 61  1  0  0  0  0
 61 62  1  0  0  0  0
M  END
> <ID>
14058

> <Formula>
C43H57N5O11S

> <FW>
852.0046 (98.0785+753.9261)

> <DSSTox_CID>
29000

> <DSSTox_RID>
83265

> <DSSTox_GSID>
49074

> <DSSTox_FileID_Sort>
7940

> <TS_ChemName>
Vindesine sulfate salt

> <TS_ChemName_Synonyms>


> <TS_CASRN>
59917-39-4

> <CASRN_ChemName_Relationship>
primary

> <TS_Description>
single chemical compound

> <ChemNote>


> <STRUCTURE_Shown>
tested chemical

> <STRUCTURE_Formula>
C43H57N5O11S

> <STRUCTURE_MW>
852.0046

> <STRUCTURE_ChemType>
defined organic

> <STRUCTURE_DefinedOrganicForm>
complex

> <STRUCTURE_IUPAC>
methyl (5S,7S,9S)-9-[(2beta,3beta,4beta,5alpha,12beta,19alpha)-3-carbamoyl-3,4-dihydroxy-16-methoxy-1-methyl-6,7-didehydroaspidospermidin-15-yl]-5-ethyl-5-hydroxy-1,4,5,6,7,8,9,10-octahydro-2H-3,7-methanoazacycloundecino[5,4-b]indole-9-carboxylate sulfate

> <STRUCTURE_SMILES>
O=S(=O)(O)O.O=C(OC)[C@@]2(C[C@H]4C[C@@](O)(CC)C[N@@](CCc1c3ccccc3nc12)C4)c5cc9c(cc5OC)N(C)[C@@H]6[C@]98CCN7CC=C[C@@](CC)([C@@H](O)[C@]6(O)C(N)=O)[C@H]78

> <STRUCTURE_SMILES_Desalt>
O=C(OC)[C@@]2(C[C@H]4C[C@@](O)(CC)C[N@@](CCc1c3ccccc3nc12)C4)c5cc9c(cc5OC)N(C)[C@@H]6[C@]98CCN7CC=C[C@@](CC)([C@@H](O)[C@]6(O)C(N)=O)[C@H]78

> <Substance_modify_yyyymmdd>
20111204

$$$$
