599179-03-0
ChemmineR-0915142007XD

 47 49  0  0  1  0  0  0  0  0  1 V2000
    7.1215   -4.4178    0.0000 C   0  0  0  0  0  0  0  0  0  0  0  0
   10.6892   -3.8186    0.0000 C   0  0  0  0  0  0  0  0  0  0  0  0
    2.3274   -3.3587    0.0000 C   0  0  0  0  0  0  0  0  0  0  0  0
    4.6548   -6.0345    0.0000 C   0  0  0  0  0  0  0  0  0  0  0  0
   11.6090   -2.0068    0.0000 C   0  0  0  0  0  0  0  0  0  0  0  0
   12.7797   -1.3379    0.0000 C   0  0  0  0  0  0  0  0  0  0  0  0
   13.9364   -2.0068    0.0000 N   0  0  0  0  0  0  0  0  0  0  0  0
   13.9364   -3.3587    0.0000 C   0  0  0  0  0  0  0  0  0  0  0  0
   12.7797   -4.0137    0.0000 N   0  0  0  0  0  0  0  0  0  0  0  0
   11.6090   -3.3587    0.0000 C   0  0  0  0  0  0  0  0  0  0  0  0
   12.7797    0.0000    0.0000 C   0  0  0  0  0  0  0  0  0  0  0  0
   10.4523   -1.3379    0.0000 C   0  0  0  0  0  0  0  0  0  0  0  0
   10.4523    0.0000    0.0000 O   0  0  0  0  0  0  0  0  0  0  0  0
    9.2816   -2.0068    0.0000 N   0  0  0  0  0  0  0  0  0  0  0  0
    9.2816   -3.3587    0.0000 C   0  0  0  0  0  0  0  0  0  0  0  0
    8.1249   -4.0137    0.0000 C   0  0  0  0  0  0  0  0  0  0  0  0
    6.9543   -3.3587    0.0000 C   0  0  0  0  0  0  0  0  0  0  0  0
    6.9543   -2.0068    0.0000 C   0  0  0  0  0  0  0  0  0  0  0  0
    8.1249   -1.3379    0.0000 C   0  0  0  0  0  0  0  0  0  0  0  0
    5.7975   -4.0137    0.0000 N   0  0  0  0  0  0  0  0  0  0  0  0
    4.6548   -3.3587    0.0000 C   0  0  0  0  0  0  0  0  0  0  0  0
    3.4841   -4.0137    0.0000 C   0  0  0  0  0  0  0  0  0  0  0  0
    3.4841   -5.3516    0.0000 N   0  0  0  0  0  0  0  0  0  0  0  0
    5.7975   -5.3516    0.0000 C   0  0  0  0  0  0  0  0  0  0  0  0
    2.3274   -6.0345    0.0000 C   0  0  0  0  0  0  0  0  0  0  0  0
    1.6445   -4.8777    0.0000 H   0  0  0  0  0  0  0  0  0  0  0  0
    2.9824   -7.1912    0.0000 C   0  0  0  0  0  0  0  0  0  0  0  0
    4.3342   -7.1912    0.0000 C   0  0  0  0  0  0  0  0  0  0  0  0
    5.0032   -8.3479    0.0000 C   0  0  0  0  0  0  0  0  0  0  0  0
    4.3342   -9.5046    0.0000 C   0  0  0  0  0  0  0  0  0  0  0  0
    2.9824   -9.5046    0.0000 C   0  0  0  0  0  0  0  0  0  0  0  0
    2.3274   -8.3479    0.0000 C   0  0  0  0  0  0  0  0  0  0  0  0
    5.0032  -10.6753    0.0000 C   0  0  0  0  0  0  0  0  0  0  0  0
    3.8464  -11.3442    0.0000 F   0  0  0  0  0  0  0  0  0  0  0  0
    6.1738  -10.0063    0.0000 F   0  0  0  0  0  0  0  0  0  0  0  0
    5.6721  -11.8320    0.0000 F   0  0  0  0  0  0  0  0  0  0  0  0
    1.1567   -6.7034    0.0000 C   0  0  0  0  0  0  0  0  0  0  0  0
    1.1567   -8.0413    0.0000 O   0  0  0  0  0  0  0  0  0  0  0  0
    0.0000   -8.7102    0.0000 C   0  0  0  0  0  0  0  0  0  0  0  0
   12.2362   -7.4420    0.0000 C   0  0  0  0  0  0  0  0  0  0  0  0
    9.8948   -8.8078    0.0000 C   0  0  0  0  0  0  0  0  0  0  0  0
    9.8948   -7.4699    0.0000 C   0  0  0  0  0  0  0  0  0  0  0  0
   11.0934   -6.7731    0.0000 C   0  0  0  0  0  0  0  0  0  0  0  0
   12.2362   -8.7799    0.0000 O   0  0  0  0  0  0  0  0  0  0  0  0
   11.0655   -9.4767    0.0000 O   0  0  0  0  0  0  0  0  0  0  0  0
   13.4347   -6.7731    0.0000 O   0  0  0  0  0  0  0  0  0  0  0  0
    8.7242   -9.5046    0.0000 O   0  0  0  0  0  0  0  0  0  0  0  0
  1 17  1  0  0  0  0
  2 10  1  0  0  0  0
 22  3  1  6  0  0  0
  4 23  1  0  0  0  0
  4 24  1  0  0  0  0
  5  6  1  0  0  0  0
  5 10  2  0  0  0  0
  5 12  1  0  0  0  0
  6  7  2  0  0  0  0
  6 11  1  0  0  0  0
  7  8  1  0  0  0  0
  8  9  2  0  0  0  0
  9 10  1  0  0  0  0
 12 13  2  0  0  0  0
 12 14  1  0  0  0  0
 14 15  1  0  0  0  0
 14 19  1  0  0  0  0
 15 16  1  0  0  0  0
 16 17  1  0  0  0  0
 17 18  1  0  0  0  0
 17 20  1  0  0  0  0
 18 19  1  0  0  0  0
 20 21  1  0  0  0  0
 20 24  1  0  0  0  0
 21 22  1  0  0  0  0
 22 23  1  0  0  0  0
 23 25  1  0  0  0  0
 25 26  1  6  0  0  0
 25 27  1  0  0  0  0
 25 37  1  0  0  0  0
 27 28  1  0  0  0  0
 27 32  2  0  0  0  0
 28 29  2  0  0  0  0
 29 30  1  0  0  0  0
 30 31  2  0  0  0  0
 30 33  1  0  0  0  0
 31 32  1  0  0  0  0
 33 34  1  0  0  0  0
 33 35  1  0  0  0  0
 33 36  1  0  0  0  0
 37 38  1  0  0  0  0
 38 39  1  0  0  0  0
 40 43  1  0  0  0  0
 40 44  2  0  0  0  0
 40 46  1  0  0  0  0
 41 42  1  0  0  0  0
 41 45  2  0  0  0  0
 41 47  1  0  0  0  0
 42 43  2  0  0  0  0
M  END
> <ID>
13651

> <Formula>
C32H42F3N5O6

> <FW>
649.7010 (533.6288+116.0722)

> <DSSTox_CID>
28582

> <DSSTox_RID>
82853

> <DSSTox_GSID>
48656

> <DSSTox_FileID_Sort>
7530

> <TS_ChemName>
Vicriviroc maleate

> <TS_ChemName_Synonyms>


> <TS_CASRN>
599179-03-0

> <CASRN_ChemName_Relationship>
primary

> <TS_Description>
single chemical compound

> <ChemNote>


> <STRUCTURE_Shown>
tested chemical

> <STRUCTURE_Formula>
C32H42F3N5O6

> <STRUCTURE_MW>
649.701

> <STRUCTURE_ChemType>
defined organic

> <STRUCTURE_DefinedOrganicForm>
complex

> <STRUCTURE_IUPAC>
(4,6-dimethylpyrimidin-5-yl){4-[(3R)-4-{(1S)-2-methoxy-1-[4-(trifluoromethyl)phenyl]ethyl}-3-methylpiperazin-1-yl]-4-methylpiperidin-1-yl}methanone (2Z)-but-2-enedioate (1:1)

> <STRUCTURE_SMILES>
O=C(O)/C=C\C(=O)O.FC(F)(F)c1ccc(cc1)[C@@H](COC)N2CCN(C[C@H]2C)C3(C)CCN(CC3)C(=O)c4c(C)ncnc4C

> <STRUCTURE_SMILES_Desalt>
FC(F)(F)c1ccc(cc1)[C@@H](COC)N2CCN(C[C@H]2C)C3(C)CCN(CC3)C(=O)c4c(C)ncnc4C

> <Substance_modify_yyyymmdd>
20111204

$$$$
