59939-16-1
ChemmineR-0915142007XD

 16 18  0  0  0  0  0  0  0  0  1 V2000
    0.0000   -1.6378    0.0000 C   0  0  0  0  0  0  0  0  0  0  0  0
    1.2685   -1.2364    0.0000 N   0  0  0  0  0  0  0  0  0  0  0  0
    2.0553   -2.2962    0.0000 C   0  0  0  0  0  0  0  0  0  0  0  0
    1.2685   -3.3880    0.0000 N   0  0  0  0  0  0  0  0  0  0  0  0
    0.0000   -2.9706    0.0000 C   0  0  0  0  0  0  0  0  0  0  0  0
    3.3880   -2.2962    0.0000 C   0  0  0  0  0  0  0  0  0  0  0  0
    4.0303   -1.1561    0.0000 O   0  0  0  0  0  0  0  0  0  0  0  0
    5.3631   -1.1561    0.0000 C   0  0  0  0  0  0  0  0  0  0  0  0
    6.0375    0.0000    0.0000 C   0  0  0  0  0  0  0  0  0  0  0  0
    7.3702    0.0000    0.0000 C   0  0  0  0  0  0  0  0  0  0  0  0
    8.0286   -1.1561    0.0000 C   0  0  0  0  0  0  0  0  0  0  0  0
    7.3702   -2.2962    0.0000 C   0  0  0  0  0  0  0  0  0  0  0  0
    6.0375   -2.2962    0.0000 C   0  0  0  0  0  0  0  0  0  0  0  0
    5.3631   -3.4683    0.0000 C   0  0  0  0  0  0  0  0  0  0  0  0
    5.3631   -4.8011    0.0000 C   0  0  0  0  0  0  0  0  0  0  0  0
    4.2230   -4.1267    0.0000 C   0  0  0  0  0  0  0  0  0  0  0  0
  1  5  1  0  0  0  0
  1  2  1  0  0  0  0
  2  3  2  0  0  0  0
  3  4  1  0  0  0  0
  3  6  1  0  0  0  0
  4  5  1  0  0  0  0
  6  7  1  0  0  0  0
  7  8  1  0  0  0  0
  8  9  1  0  0  0  0
  8 13  2  0  0  0  0
  9 10  2  0  0  0  0
 10 11  1  0  0  0  0
 11 12  2  0  0  0  0
 12 13  1  0  0  0  0
 13 14  1  0  0  0  0
 14 15  1  0  0  0  0
 14 16  1  0  0  0  0
 15 16  1  0  0  0  0
M  END
> <ID>
10760

> <Formula>
C13H16N2O

> <FW>
216.2789

> <DSSTox_CID>
25131

> <DSSTox_RID>
80692

> <DSSTox_GSID>
45131

> <DSSTox_FileID_Sort>
5374

> <TS_ChemName>
Cirazoline

> <TS_ChemName_Synonyms>


> <TS_CASRN>
59939-16-1

> <CASRN_ChemName_Relationship>
primary

> <TS_Description>
single chemical compound

> <ChemNote>


> <STRUCTURE_Shown>
tested chemical

> <STRUCTURE_Formula>
C13H16N2O

> <STRUCTURE_MW>
216.2789

> <STRUCTURE_ChemType>
defined organic

> <STRUCTURE_DefinedOrganicForm>
parent

> <STRUCTURE_IUPAC>
2-[(2-cyclopropylphenoxy)methyl]-4,5-dihydro-1H-imidazole

> <STRUCTURE_SMILES>
O(CC1=NCCN1)c2ccccc2C3CC3

> <STRUCTURE_SMILES_Desalt>
O(CC1=NCCN1)c2ccccc2C3CC3

> <Substance_modify_yyyymmdd>
20100107

$$$$
