59937-28-9
ChemmineR-0915142007XD

 18 18  0  0  0  0  0  0  0  0  1 V2000
    4.6154   -3.3784    0.0000 C   0  0  0  0  0  0  0  0  0  0  0  0
    3.4800   -4.0523    0.0000 C   0  0  0  0  0  0  0  0  0  0  0  0
    5.7507   -4.0523    0.0000 C   0  0  0  0  0  0  0  0  0  0  0  0
    4.6154   -2.0492    0.0000 C   0  0  0  0  0  0  0  0  0  0  0  0
    5.6861   -1.2646    0.0000 S   0  0  0  0  0  0  0  0  0  0  0  0
    3.5446   -1.2831    0.0000 S   0  0  0  0  0  0  0  0  0  0  0  0
    6.9230   -3.3784    0.0000 O   0  0  0  0  0  0  0  0  0  0  0  0
    2.3077   -3.3784    0.0000 O   0  0  0  0  0  0  0  0  0  0  0  0
    5.7507   -5.3815    0.0000 O   0  0  0  0  0  0  0  0  0  0  0  0
    3.4800   -5.3815    0.0000 O   0  0  0  0  0  0  0  0  0  0  0  0
    5.2523    0.0000    0.0000 C   0  0  0  0  0  0  0  0  0  0  0  0
    3.9600   -0.0092    0.0000 C   0  0  0  0  0  0  0  0  0  0  0  0
    8.0769   -4.0523    0.0000 C   0  0  0  0  0  0  0  0  0  0  0  0
    1.1538   -4.0708    0.0000 C   0  0  0  0  0  0  0  0  0  0  0  0
    9.2307   -3.3784    0.0000 C   0  0  0  0  0  0  0  0  0  0  0  0
    1.1538   -5.3815    0.0000 C   0  0  0  0  0  0  0  0  0  0  0  0
    8.0769   -5.3815    0.0000 C   0  0  0  0  0  0  0  0  0  0  0  0
    0.0000   -3.3969    0.0000 C   0  0  0  0  0  0  0  0  0  0  0  0
  1  2  1  0  0  0  0
  1  3  1  0  0  0  0
  1  4  2  0  0  0  0
  2  8  1  0  0  0  0
  2 10  2  0  0  0  0
  3  7  1  0  0  0  0
  3  9  2  0  0  0  0
  4  5  1  0  0  0  0
  4  6  1  0  0  0  0
  5 11  1  0  0  0  0
  6 12  1  0  0  0  0
  7 13  1  0  0  0  0
  8 14  1  0  0  0  0
 11 12  2  0  0  0  0
 13 15  1  0  0  0  0
 13 17  1  0  0  0  0
 14 16  1  0  0  0  0
 14 18  1  0  0  0  0
M  END
> <ID>
11703

> <Formula>
C12H16O4S2

> <FW>
288.383

> <DSSTox_CID>
26463

> <DSSTox_RID>
81637

> <DSSTox_GSID>
46463

> <DSSTox_FileID_Sort>
6318

> <TS_ChemName>
Malotilate

> <TS_ChemName_Synonyms>


> <TS_CASRN>
59937-28-9

> <CASRN_ChemName_Relationship>
primary

> <TS_Description>
single chemical compound

> <ChemNote>


> <STRUCTURE_Shown>
tested chemical

> <STRUCTURE_Formula>
C12H16O4S2

> <STRUCTURE_MW>
288.383

> <STRUCTURE_ChemType>
defined organic

> <STRUCTURE_DefinedOrganicForm>
parent

> <STRUCTURE_IUPAC>
dipropan-2-yl 1,3-dithiol-2-ylidenepropanedioate

> <STRUCTURE_SMILES>
CC(C)OC(=O)C(/C(=O)OC(C)C)=C1/SC=CS1

> <STRUCTURE_SMILES_Desalt>
CC(C)OC(=O)C(/C(=O)OC(C)C)=C1/SC=CS1

> <Substance_modify_yyyymmdd>
20110812

$$$$
