59973-80-7
ChemmineR-0915142007XD

 27 29  0  0  0  0  0  0  0  0  1 V2000
    5.7232   -5.3452    0.0000 C   0  0  0  0  0  0  0  0  0  0  0  0
    5.7232   -7.4510    0.0000 C   0  0  0  0  0  0  0  0  0  0  0  0
    6.4899   -6.4251    0.0000 C   0  0  0  0  0  0  0  0  0  0  0  0
    4.4382   -7.0730    0.0000 C   0  0  0  0  0  0  0  0  0  0  0  0
    4.4382   -5.7232    0.0000 C   0  0  0  0  0  0  0  0  0  0  0  0
    5.7232   -3.9954    0.0000 C   0  0  0  0  0  0  0  0  0  0  0  0
    1.1878   -1.3498    0.0000 S   0  0  0  0  0  0  0  0  0  0  0  0
    5.7232   -8.8008    0.0000 C   0  0  0  0  0  0  0  0  0  0  0  0
    3.3043   -5.0753    0.0000 C   0  0  0  0  0  0  0  0  0  0  0  0
    6.8678   -9.4487    0.0000 C   0  0  0  0  0  0  0  0  0  0  0  0
    3.3043   -7.7209    0.0000 C   0  0  0  0  0  0  0  0  0  0  0  0
    2.3109   -1.9977    0.0000 C   0  0  0  0  0  0  0  0  0  0  0  0
    1.1878    0.0000    0.0000 O   0  0  0  0  0  0  0  0  0  0  0  0
    6.8678  -10.7985    0.0000 O   0  0  0  0  0  0  0  0  0  0  0  0
    4.6002   -3.3475    0.0000 C   0  0  0  0  0  0  0  0  0  0  0  0
    3.4663   -1.3498    0.0000 C   0  0  0  0  0  0  0  0  0  0  0  0
    2.3109   -3.3475    0.0000 C   0  0  0  0  0  0  0  0  0  0  0  0
    2.1165   -7.0730    0.0000 C   0  0  0  0  0  0  0  0  0  0  0  0
    2.1165   -5.7232    0.0000 C   0  0  0  0  0  0  0  0  0  0  0  0
    7.7749   -6.4251    0.0000 C   0  0  0  0  0  0  0  0  0  0  0  0
    8.0341   -8.8008    0.0000 O   0  0  0  0  0  0  0  0  0  0  0  0
    4.6002   -1.9977    0.0000 C   0  0  0  0  0  0  0  0  0  0  0  0
    3.4663   -3.9954    0.0000 C   0  0  0  0  0  0  0  0  0  0  0  0
    0.9611   -7.7209    0.0000 F   0  0  0  0  0  0  0  0  0  0  0  0
    0.0000   -1.9977    0.0000 C   0  0  0  0  0  0  0  0  0  0  0  0
    6.9110   -3.3475    0.0000 H   0  0  0  0  0  0  0  0  0  0  0  0
    1.2202   -2.6996    0.0000 O   0  0  0  0  0  0  0  0  0  0  0  0
  1  3  1  0  0  0  0
  1  5  1  0  0  0  0
  1  6  2  0  0  0  0
  2  3  2  0  0  0  0
  2  8  1  0  0  0  0
  2  4  1  0  0  0  0
  3 20  1  0  0  0  0
  4  5  2  0  0  0  0
  4 11  1  0  0  0  0
  5  9  1  0  0  0  0
  6 15  1  0  0  0  0
  6 26  1  0  0  0  0
  7 12  1  0  0  0  0
  7 13  2  0  0  0  0
  7 25  1  0  0  0  0
  7 27  2  0  0  0  0
  8 10  1  0  0  0  0
  9 19  2  0  0  0  0
 10 14  2  0  0  0  0
 10 21  1  0  0  0  0
 11 18  2  0  0  0  0
 12 17  1  0  0  0  0
 12 16  2  0  0  0  0
 15 22  2  0  0  0  0
 15 23  1  0  0  0  0
 16 22  1  0  0  0  0
 17 23  2  0  0  0  0
 18 19  1  0  0  0  0
 18 24  1  0  0  0  0
M  END
> <ID>
7631

> <Formula>
C20H17FO4S

> <FW>
372.41

> <DSSTox_CID>
20246

> <DSSTox_RID>
79458

> <DSSTox_GSID>
40246

> <DSSTox_FileID_Sort>
4140

> <TS_ChemName>
Sulindac sulfone

> <TS_ChemName_Synonyms>


> <TS_CASRN>
59973-80-7

> <CASRN_ChemName_Relationship>
primary

> <TS_Description>
single chemical compound

> <ChemNote>
stereochem

> <STRUCTURE_Shown>
tested chemical

> <STRUCTURE_Formula>
C20H17FO4S

> <STRUCTURE_MW>
372.41

> <STRUCTURE_ChemType>
defined organic

> <STRUCTURE_DefinedOrganicForm>
parent

> <STRUCTURE_IUPAC>
{(1Z)-5-fluoro-2-methyl-1-[4-(methylsulfonyl)benzylidene]-1H-inden-3-yl}acetic acid

> <STRUCTURE_SMILES>
CS(=O)(=O)c1ccc(cc1)/C=C3\c2ccc(F)cc2C(CC(=O)O)=C3C

> <STRUCTURE_SMILES_Desalt>
CS(=O)(=O)c1ccc(cc1)/C=C3\c2ccc(F)cc2C(CC(=O)O)=C3C

> <Substance_modify_yyyymmdd>
20080429

$$$$
