60-09-3
ChemmineR-0915142007XD

 15 16  0  0  0  0  0  0  0  0  1 V2000
    4.6587   -2.3044    0.0000 N   0  0  0  0  0  0  0  0  0  0  0  0
    3.9903   -1.1472    0.0000 N   0  0  0  0  0  0  0  0  0  0  0  0
    2.6635   -1.1472    0.0000 C   0  0  0  0  0  0  0  0  0  0  0  0
    1.9952   -2.3044    0.0000 C   0  0  0  0  0  0  0  0  0  0  0  0
    0.6684   -2.3044    0.0000 C   0  0  0  0  0  0  0  0  0  0  0  0
    0.0000   -1.1472    0.0000 C   0  0  0  0  0  0  0  0  0  0  0  0
    0.6684    0.0000    0.0000 C   0  0  0  0  0  0  0  0  0  0  0  0
    1.9952    0.0000    0.0000 C   0  0  0  0  0  0  0  0  0  0  0  0
    5.9855   -2.3044    0.0000 C   0  0  0  0  0  0  0  0  0  0  0  0
    6.6538   -1.1472    0.0000 C   0  0  0  0  0  0  0  0  0  0  0  0
    7.9806   -1.1472    0.0000 C   0  0  0  0  0  0  0  0  0  0  0  0
    8.6490   -2.3044    0.0000 C   0  0  0  0  0  0  0  0  0  0  0  0
    9.9758   -2.3044    0.0000 N   0  0  0  0  0  0  0  0  0  0  0  0
    7.9806   -3.4516    0.0000 C   0  0  0  0  0  0  0  0  0  0  0  0
    6.6538   -3.4516    0.0000 C   0  0  0  0  0  0  0  0  0  0  0  0
  1  2  2  0  0  0  0
  1  9  1  0  0  0  0
  2  3  1  0  0  0  0
  3  4  2  0  0  0  0
  3  8  1  0  0  0  0
  4  5  1  0  0  0  0
  5  6  2  0  0  0  0
  6  7  1  0  0  0  0
  7  8  2  0  0  0  0
  9 10  2  0  0  0  0
  9 15  1  0  0  0  0
 10 11  1  0  0  0  0
 11 12  2  0  0  0  0
 12 13  1  0  0  0  0
 12 14  1  0  0  0  0
 14 15  2  0  0  0  0
M  END
> <ID>
3687

> <Formula>
C12H11N3

> <FW>
197.2358

> <DSSTox_CID>
4460

> <DSSTox_RID>
77407

> <DSSTox_GSID>
24460

> <DSSTox_FileID_Sort>
2090

> <TS_ChemName>
4-Aminoazobenzene

> <TS_ChemName_Synonyms>


> <TS_CASRN>
60-09-3

> <CASRN_ChemName_Relationship>
primary

> <TS_Description>
single chemical compound

> <ChemNote>


> <STRUCTURE_Shown>
tested chemical

> <STRUCTURE_Formula>
C12H11N3

> <STRUCTURE_MW>
197.2358

> <STRUCTURE_ChemType>
defined organic

> <STRUCTURE_DefinedOrganicForm>
parent

> <STRUCTURE_IUPAC>
4-[(E)-phenyldiazenyl]aniline

> <STRUCTURE_SMILES>
Nc2ccc(/N=N/c1ccccc1)cc2

> <STRUCTURE_SMILES_Desalt>
Nc2ccc(/N=N/c1ccccc1)cc2

> <Substance_modify_yyyymmdd>
20080429

$$$$
