60-02-6
ChemmineR-0915142007XD

 24 22  0  0  0  0  0  0  0  0  1 V2000
    1.3252   -1.9975    0.0000 S   0  0  0  0  0  0  0  0  0  0  0  0
    2.6505   -1.9975    0.0000 O   0  0  0  0  0  0  0  0  0  0  0  0
    0.0000   -1.9975    0.0000 O   0  0  0  0  0  0  0  0  0  0  0  0
    1.3252   -3.3227    0.0000 O   0  0  0  0  0  0  0  0  0  0  0  0
    1.3252   -0.6722    0.0000 O   0  0  0  0  0  0  0  0  0  0  0  0
   11.5047   -1.8438    0.0000 C   0  0  0  0  0  0  0  0  0  0  0  0
   12.8107   -1.8438    0.0000 C   0  0  0  0  0  0  0  0  0  0  0  0
   13.7710   -2.7849    0.0000 C   0  0  0  0  0  0  0  0  0  0  0  0
   13.7710   -4.1294    0.0000 C   0  0  0  0  0  0  0  0  0  0  0  0
   12.8107   -5.0705    0.0000 C   0  0  0  0  0  0  0  0  0  0  0  0
   11.4663   -5.0705    0.0000 C   0  0  0  0  0  0  0  0  0  0  0  0
   10.5251   -4.1102    0.0000 N   0  0  0  0  0  0  0  0  0  0  0  0
    9.3151   -4.5903    0.0000 C   0  0  0  0  0  0  0  0  0  0  0  0
    8.2780   -3.7837    0.0000 C   0  0  0  0  0  0  0  0  0  0  0  0
    7.0488   -4.2638    0.0000 N   0  0  0  0  0  0  0  0  0  0  0  0
    6.0116   -3.4572    0.0000 C   0  0  0  0  0  0  0  0  0  0  0  0
    6.0116   -2.0935    0.0000 N   0  0  0  0  0  0  0  0  0  0  0  0
    4.7824   -3.9565    0.0000 N   0  0  0  0  0  0  0  0  0  0  0  0
   10.5251   -2.7657    0.0000 C   0  0  0  0  0  0  0  0  0  0  0  0
   17.8812   -1.3252    0.0000 S   0  0  0  0  0  0  0  0  0  0  0  0
   19.2065   -1.3252    0.0000 O   0  0  0  0  0  0  0  0  0  0  0  0
   16.5560   -1.3252    0.0000 O   0  0  0  0  0  0  0  0  0  0  0  0
   17.8812   -2.6505    0.0000 O   0  0  0  0  0  0  0  0  0  0  0  0
   17.8812    0.0000    0.0000 O   0  0  0  0  0  0  0  0  0  0  0  0
  1  2  2  0  0  0  0
  1  3  2  0  0  0  0
  1  4  1  0  0  0  0
  1  5  1  0  0  0  0
  6  7  1  0  0  0  0
  6 19  1  0  0  0  0
  7  8  1  0  0  0  0
  8  9  1  0  0  0  0
  9 10  1  0  0  0  0
 10 11  1  0  0  0  0
 11 12  1  0  0  0  0
 12 13  1  0  0  0  0
 12 19  1  0  0  0  0
 13 14  1  0  0  0  0
 14 15  1  0  0  0  0
 15 16  1  0  0  0  0
 16 17  1  0  0  0  0
 16 18  2  0  0  0  0
 20 21  2  0  0  0  0
 20 22  2  0  0  0  0
 20 23  1  0  0  0  0
 20 24  1  0  0  0  0
M  END
> <ID>
12123

> <Formula>
C10H26N4O8S2

> <FW>
394.4654 (98.0785+198.3085+98.0785)

> <DSSTox_CID>
26966

> <DSSTox_RID>
82028

> <DSSTox_GSID>
46966

> <DSSTox_FileID_Sort>
6709

> <TS_ChemName>
Guanethidine sulfate

> <TS_ChemName_Synonyms>


> <TS_CASRN>
60-02-6

> <CASRN_ChemName_Relationship>
primary

> <TS_Description>
single chemical compound

> <ChemNote>
parent [55-65-2]

> <STRUCTURE_Shown>
tested chemical

> <STRUCTURE_Formula>
C10H26N4O8S2

> <STRUCTURE_MW>
394.4654

> <STRUCTURE_ChemType>
defined organic

> <STRUCTURE_DefinedOrganicForm>
complex

> <STRUCTURE_IUPAC>
1-[2-(azocan-1-yl)ethyl]guanidine sulfate (1:2)

> <STRUCTURE_SMILES>
O=S(=O)(O)O.O=S(=O)(O)O.N=C(N)NCCN1CCCCCCC1

> <STRUCTURE_SMILES_Desalt>
N=C(N)NCCN1CCCCCCC1

> <Substance_modify_yyyymmdd>
20100107

$$$$
