60-11-7
ChemmineR-0915142007XD

 17 18  0  0  0  0  0  0  0  0  1 V2000
    0.0000   -2.3164    0.0000 C   0  0  0  0  0  0  0  0  0  0  0  0
    0.6634   -1.1582    0.0000 N   0  0  0  0  0  0  0  0  0  0  0  0
    2.0015   -1.1582    0.0000 C   0  0  0  0  0  0  0  0  0  0  0  0
    2.6762    0.0000    0.0000 C   0  0  0  0  0  0  0  0  0  0  0  0
    4.0143    0.0000    0.0000 C   0  0  0  0  0  0  0  0  0  0  0  0
    4.6890   -1.1582    0.0000 C   0  0  0  0  0  0  0  0  0  0  0  0
    4.0143   -2.3164    0.0000 C   0  0  0  0  0  0  0  0  0  0  0  0
    2.6762   -2.3164    0.0000 C   0  0  0  0  0  0  0  0  0  0  0  0
    6.0271   -1.1582    0.0000 N   0  0  0  0  0  0  0  0  0  0  0  0
    7.2303   -1.1582    0.0000 N   0  0  0  0  0  0  0  0  0  0  0  0
    8.5684   -1.1582    0.0000 C   0  0  0  0  0  0  0  0  0  0  0  0
    9.2431    0.0000    0.0000 C   0  0  0  0  0  0  0  0  0  0  0  0
   10.5700    0.0000    0.0000 C   0  0  0  0  0  0  0  0  0  0  0  0
   11.2446   -1.1582    0.0000 C   0  0  0  0  0  0  0  0  0  0  0  0
   10.5700   -2.3164    0.0000 C   0  0  0  0  0  0  0  0  0  0  0  0
    9.2431   -2.3164    0.0000 C   0  0  0  0  0  0  0  0  0  0  0  0
    0.0000    0.0000    0.0000 C   0  0  0  0  0  0  0  0  0  0  0  0
  1  2  1  0  0  0  0
  2  3  1  0  0  0  0
  2 17  1  0  0  0  0
  3  4  2  0  0  0  0
  3  8  1  0  0  0  0
  4  5  1  0  0  0  0
  5  6  2  0  0  0  0
  6  7  1  0  0  0  0
  6  9  1  0  0  0  0
  7  8  2  0  0  0  0
  9 10  2  0  0  0  0
 10 11  1  0  0  0  0
 11 12  2  0  0  0  0
 11 16  1  0  0  0  0
 12 13  1  0  0  0  0
 13 14  2  0  0  0  0
 14 15  1  0  0  0  0
 15 16  2  0  0  0  0
M  END
> <ID>
474

> <Formula>
C14H15N3

> <FW>
225.289

> <DSSTox_CID>
491

> <DSSTox_RID>
75620

> <DSSTox_GSID>
20491

> <DSSTox_FileID_Sort>
304

> <TS_ChemName>
4-(Dimethylamino)azobenzene

> <TS_ChemName_Synonyms>
4-(Dimethylamino)azobenzene (N,N-Dimethyl-4-aminoazobenzene)

> <TS_CASRN>
60-11-7

> <CASRN_ChemName_Relationship>
primary

> <TS_Description>
single chemical compound

> <ChemNote>


> <STRUCTURE_Shown>
tested chemical

> <STRUCTURE_Formula>
C14H15N3

> <STRUCTURE_MW>
225.289

> <STRUCTURE_ChemType>
defined organic

> <STRUCTURE_DefinedOrganicForm>
parent

> <STRUCTURE_IUPAC>
N,N-dimethyl-4-(phenyldiazenyl)aniline

> <STRUCTURE_SMILES>
CN(C)c2ccc(/N=N/c1ccccc1)cc2

> <STRUCTURE_SMILES_Desalt>
CN(C)c2ccc(/N=N/c1ccccc1)cc2

> <Substance_modify_yyyymmdd>
20080429

$$$$
