60-27-5
ChemmineR-0915142007XD

  8  8  0  0  0  0  0  0  0  0  1 V2000
    3.4450   -2.3499    0.0000 C   0  0  0  0  0  0  0  0  0  0  0  0
    2.3499   -3.1207    0.0000 N   0  0  0  0  0  0  0  0  0  0  0  0
    3.0267   -1.0763    0.0000 N   0  0  0  0  0  0  0  0  0  0  0  0
    1.2737   -2.3170    0.0000 C   0  0  0  0  0  0  0  0  0  0  0  0
    1.7061   -1.0763    0.0000 C   0  0  0  0  0  0  0  0  0  0  0  0
    4.6999   -2.7494    0.0000 N   0  0  0  0  0  0  0  0  0  0  0  0
    0.0000   -2.7024    0.0000 O   0  0  0  0  0  0  0  0  0  0  0  0
    3.8163    0.0000    0.0000 C   0  0  0  0  0  0  0  0  0  0  0  0
  1  2  1  0  0  0  0
  1  3  1  0  0  0  0
  1  6  2  0  0  0  0
  2  4  1  0  0  0  0
  3  5  1  0  0  0  0
  3  8  1  0  0  0  0
  4  7  2  0  0  0  0
  4  5  1  0  0  0  0
M  END
> <ID>
11342

> <Formula>
C4H7N3O

> <FW>
113.1179

> <DSSTox_CID>
25987

> <DSSTox_RID>
81274

> <DSSTox_GSID>
45987

> <DSSTox_FileID_Sort>
5955

> <TS_ChemName>
Creatinine

> <TS_ChemName_Synonyms>


> <TS_CASRN>
60-27-5

> <CASRN_ChemName_Relationship>
primary

> <TS_Description>
single chemical compound

> <ChemNote>
tautomers

> <STRUCTURE_Shown>
tested chemical

> <STRUCTURE_Formula>
C4H7N3O

> <STRUCTURE_MW>
113.1179

> <STRUCTURE_ChemType>
defined organic

> <STRUCTURE_DefinedOrganicForm>
parent

> <STRUCTURE_IUPAC>
2-imino-1-methylimidazolidin-4-one

> <STRUCTURE_SMILES>
N=C1NC(=O)CN1C

> <STRUCTURE_SMILES_Desalt>
N=C1NC(=O)CN1C

> <Substance_modify_yyyymmdd>
20110825

$$$$
