60-26-4
ChemmineR-0915142007XD

 14 13  0  0  0  0  0  0  0  0  2 V2000
    9.2690   -1.8142    0.0000 N   0  3  0  0  0  0  0  0  0  0  0  0
    1.1573   -1.1782    0.0000 N   0  3  0  0  0  0  0  0  0  0  0  0
    8.0908   -1.1782    0.0000 C   0  0  0  0  0  0  0  0  0  0  0  0
    2.3355   -1.8142    0.0000 C   0  0  0  0  0  0  0  0  0  0  0  0
   10.4263   -2.4815    0.0000 C   0  0  0  0  0  0  0  0  0  0  0  0
    8.6122   -2.9924    0.0000 C   0  0  0  0  0  0  0  0  0  0  0  0
    1.8142    0.0000    0.0000 C   0  0  0  0  0  0  0  0  0  0  0  0
    0.5005   -2.3355    0.0000 C   0  0  0  0  0  0  0  0  0  0  0  0
    0.0000   -0.5005    0.0000 C   0  0  0  0  0  0  0  0  0  0  0  0
    9.9259   -0.6569    0.0000 C   0  0  0  0  0  0  0  0  0  0  0  0
    3.4928   -1.1782    0.0000 C   0  0  0  0  0  0  0  0  0  0  0  0
    6.9648   -1.8142    0.0000 C   0  0  0  0  0  0  0  0  0  0  0  0
    5.7553   -1.1782    0.0000 C   0  0  0  0  0  0  0  0  0  0  0  0
    4.6293   -1.8142    0.0000 C   0  0  0  0  0  0  0  0  0  0  0  0
  1  3  1  0  0  0  0
  1  5  1  0  0  0  0
  1  6  1  0  0  0  0
  1 10  1  0  0  0  0
  2  4  1  0  0  0  0
  2  7  1  0  0  0  0
  2  8  1  0  0  0  0
  2  9  1  0  0  0  0
  3 12  1  0  0  0  0
  4 11  1  0  0  0  0
 11 14  1  0  0  0  0
 12 13  1  0  0  0  0
 13 14  1  0  0  0  0
M  END
> <ID>
10698

> <Formula>
C12H30N2

> <FW>
202.3789

> <DSSTox_CID>
25053

> <DSSTox_RID>
80651

> <DSSTox_GSID>
45053

> <DSSTox_FileID_Sort>
5333

> <TS_ChemName>
N,N,N,N',N',N'-Hexamethylhexane-1,6-diaminium

> <TS_ChemName_Synonyms>


> <TS_CASRN>
60-26-4

> <CASRN_ChemName_Relationship>
primary

> <TS_Description>
single chemical compound

> <ChemNote>
parent of [60-25-3]

> <STRUCTURE_Shown>
tested chemical

> <STRUCTURE_Formula>
C12H30N2

> <STRUCTURE_MW>
202.3789

> <STRUCTURE_ChemType>
defined organic

> <STRUCTURE_DefinedOrganicForm>
parent

> <STRUCTURE_IUPAC>
N,N,N,N',N',N'-hexamethylhexane-1,6-diaminium

> <STRUCTURE_SMILES>
C[N+](C)(C)CCCCCC[N+](C)(C)C

> <STRUCTURE_SMILES_Desalt>
C[N+](C)(C)CCCCCC[N+](C)(C)C

> <Substance_modify_yyyymmdd>
20091116

$$$$
