60-35-5
ChemmineR-0915142007XD

  4  3  0  0  0  0  0  0  0  0  1 V2000
    1.9950    0.0000    0.0000 C   0  0  0  0  0  0  0  0  0  0  0  0
    1.3292   -1.1518    0.0000 C   0  0  0  0  0  0  0  0  0  0  0  0
    1.9950   -2.3037    0.0000 O   0  0  0  0  0  0  0  0  0  0  0  0
    0.0000   -1.1518    0.0000 N   0  0  0  0  0  0  0  0  0  0  0  0
  1  2  1  0  0  0  0
  2  3  2  0  0  0  0
  2  4  1  0  0  0  0
M  END
> <ID>
5

> <Formula>
C2H5NO

> <FW>
59.0672

> <DSSTox_CID>
5

> <DSSTox_RID>
75317

> <DSSTox_GSID>
20005

> <DSSTox_FileID_Sort>
1

> <TS_ChemName>
Acetamide

> <TS_ChemName_Synonyms>


> <TS_CASRN>
60-35-5

> <CASRN_ChemName_Relationship>
primary

> <TS_Description>
single chemical compound

> <ChemNote>


> <STRUCTURE_Shown>
tested chemical

> <STRUCTURE_Formula>
C2H5NO

> <STRUCTURE_MW>
59.0672

> <STRUCTURE_ChemType>
defined organic

> <STRUCTURE_DefinedOrganicForm>
parent

> <STRUCTURE_IUPAC>
acetamide

> <STRUCTURE_SMILES>
CC(N)=O

> <STRUCTURE_SMILES_Desalt>
CC(N)=O

> <Substance_modify_yyyymmdd>
20080429

$$$$
