60-33-3
ChemmineR-0915142007XD

 20 19  0  0  0  0  0  0  0  0  1 V2000
    1.1535   -1.3310    0.0000 C   0  0  0  0  0  0  0  0  0  0  0  0
    0.0000   -1.9901    0.0000 O   0  0  0  0  0  0  0  0  0  0  0  0
    6.9084   -9.9760    0.0000 C   0  0  0  0  0  0  0  0  0  0  0  0
    9.2154   -9.9760    0.0000 C   0  0  0  0  0  0  0  0  0  0  0  0
   10.3689   -9.3168    0.0000 C   0  0  0  0  0  0  0  0  0  0  0  0
    5.7676   -9.3168    0.0000 C   0  0  0  0  0  0  0  0  0  0  0  0
    1.1535    0.0000    0.0000 O   0  0  0  0  0  0  0  0  0  0  0  0
    8.0619   -9.3168    0.0000 C   0  0  0  0  0  0  0  0  0  0  0  0
    2.3070   -1.9901    0.0000 C   0  0  0  0  0  0  0  0  0  0  0  0
   10.3689   -7.9859    0.0000 C   0  0  0  0  0  0  0  0  0  0  0  0
    5.7676   -7.9859    0.0000 C   0  0  0  0  0  0  0  0  0  0  0  0
    2.3070   -3.3211    0.0000 C   0  0  0  0  0  0  0  0  0  0  0  0
    4.6141   -7.3140    0.0000 C   0  0  0  0  0  0  0  0  0  0  0  0
   11.5225   -7.3140    0.0000 C   0  0  0  0  0  0  0  0  0  0  0  0
   12.6760   -5.3239    0.0000 C   0  0  0  0  0  0  0  0  0  0  0  0
   11.5225   -5.9831    0.0000 C   0  0  0  0  0  0  0  0  0  0  0  0
    3.4605   -3.9929    0.0000 C   0  0  0  0  0  0  0  0  0  0  0  0
    4.6141   -5.9831    0.0000 C   0  0  0  0  0  0  0  0  0  0  0  0
    3.4605   -5.3239    0.0000 C   0  0  0  0  0  0  0  0  0  0  0  0
   12.6760   -3.9929    0.0000 C   0  0  0  0  0  0  0  0  0  0  0  0
  1  2  2  0  0  0  0
  1  7  1  0  0  0  0
  1  9  1  0  0  0  0
  3  6  2  0  0  0  0
  3  8  1  0  0  0  0
  4  8  1  0  0  0  0
  4  5  2  0  0  0  0
  5 10  1  0  0  0  0
  6 11  1  0  0  0  0
  9 12  1  0  0  0  0
 10 14  1  0  0  0  0
 11 13  1  0  0  0  0
 12 17  1  0  0  0  0
 13 18  1  0  0  0  0
 14 16  1  0  0  0  0
 15 16  1  0  0  0  0
 15 20  1  0  0  0  0
 17 19  1  0  0  0  0
 18 19  1  0  0  0  0
M  END
> <ID>
4236

> <Formula>
C18H32O2

> <FW>
280.4455

> <DSSTox_CID>
5505

> <DSSTox_RID>
77814

> <DSSTox_GSID>
25505

> <DSSTox_FileID_Sort>
2497

> <TS_ChemName>
Linoleic acid

> <TS_ChemName_Synonyms>
Linoleic acid (LA) (9,12-Octadecadienoic acid (9Z,12Z)-)

> <TS_CASRN>
60-33-3

> <CASRN_ChemName_Relationship>
primary

> <TS_Description>
single chemical compound

> <ChemNote>
stereochem

> <STRUCTURE_Shown>
tested chemical

> <STRUCTURE_Formula>
C18H32O2

> <STRUCTURE_MW>
280.4455

> <STRUCTURE_ChemType>
defined organic

> <STRUCTURE_DefinedOrganicForm>
parent

> <STRUCTURE_IUPAC>
(9Z,12Z)-octadeca-9,12-dienoic acid

> <STRUCTURE_SMILES>
O=C(O)CCCCCCC/C=C\C/C=C\CCCCC

> <STRUCTURE_SMILES_Desalt>
O=C(O)CCCCCCC/C=C\C/C=C\CCCCC

> <Substance_modify_yyyymmdd>
20080429

$$$$
