60-54-8
ChemmineR-0915142007XD

 34 37  0  0  1  0  0  0  0  0  1 V2000
    6.9195   -3.9969    0.0000 C   0  0  0  0  0  0  0  0  0  0  0  0
    4.6207   -3.9969    0.0000 C   0  0  0  0  0  0  0  0  0  0  0  0
    9.2298   -3.9969    0.0000 C   0  0  0  0  0  0  0  0  0  0  0  0
    5.7758   -4.6669    0.0000 C   0  0  0  0  0  0  0  0  0  0  0  0
    8.0746   -4.6669    0.0000 C   0  0  0  0  0  0  0  0  0  0  0  0
    6.9195   -2.6569    0.0000 C   0  0  0  0  0  0  0  0  0  0  0  0
    9.2298   -2.6569    0.0000 C   0  0  0  0  0  0  0  0  0  0  0  0
    3.4540   -4.6669    0.0000 C   0  0  0  0  0  0  0  0  0  0  0  0
    4.6207   -2.6569    0.0000 C   0  0  0  0  0  0  0  0  0  0  0  0
    2.3219   -3.9969    0.0000 C   0  0  0  0  0  0  0  0  0  0  0  0
    3.4540   -2.0100    0.0000 C   0  0  0  0  0  0  0  0  0  0  0  0
    2.3219   -2.6569    0.0000 C   0  0  0  0  0  0  0  0  0  0  0  0
    8.0746   -2.0100    0.0000 C   0  0  0  0  0  0  0  0  0  0  0  0
    5.7758   -2.0100    0.0000 C   0  0  0  0  0  0  0  0  0  0  0  0
   10.3734   -4.6669    0.0000 C   0  0  0  0  0  0  0  0  0  0  0  0
    8.0746   -5.9838    0.0000 O   0  0  0  0  0  0  0  0  0  0  0  0
    3.4540   -5.9838    0.0000 O   0  0  0  0  0  0  0  0  0  0  0  0
    8.0746   -0.6584    0.0000 N   0  0  0  0  0  0  0  0  0  0  0  0
    1.1552   -4.6669    0.0000 C   0  0  0  0  0  0  0  0  0  0  0  0
    6.9772   -5.3946    0.0000 O   0  0  0  0  0  0  0  0  0  0  0  0
   10.3734   -6.0184    0.0000 O   0  0  0  0  0  0  0  0  0  0  0  0
    5.7758   -5.9838    0.0000 O   0  0  0  0  0  0  0  0  0  0  0  0
   10.3734   -1.9984    0.0000 O   0  0  0  0  0  0  0  0  0  0  0  0
    2.5414   -1.0281    0.0000 O   0  0  0  0  0  0  0  0  0  0  0  0
   11.5517   -4.0084    0.0000 N   0  0  0  0  0  0  0  0  0  0  0  0
    1.1552   -2.0100    0.0000 C   0  0  0  0  0  0  0  0  0  0  0  0
    4.2626   -0.9010    0.0000 C   0  0  0  0  0  0  0  0  0  0  0  0
    1.1552   -5.9838    0.0000 O   0  0  0  0  0  0  0  0  0  0  0  0
    0.0000   -2.6569    0.0000 C   0  0  0  0  0  0  0  0  0  0  0  0
    0.0000   -3.9969    0.0000 C   0  0  0  0  0  0  0  0  0  0  0  0
    6.9195    0.0000    0.0000 C   0  0  0  0  0  0  0  0  0  0  0  0
    9.2298    0.0000    0.0000 C   0  0  0  0  0  0  0  0  0  0  0  0
    6.9195   -1.3169    0.0000 H   0  0  0  0  0  0  0  0  0  0  0  0
    4.6207   -1.4786    0.0000 H   0  0  0  0  0  0  0  0  0  0  0  0
  1  4  1  0  0  0  0
  1  5  1  0  0  0  0
  1  6  1  0  0  0  0
  1 20  1  6  0  0  0
  2  4  2  0  0  0  0
  2  8  1  0  0  0  0
  2  9  1  0  0  0  0
  3  5  1  0  0  0  0
  3 15  1  0  0  0  0
  3  7  2  0  0  0  0
  4 22  1  0  0  0  0
  5 16  2  0  0  0  0
  6 13  1  0  0  0  0
  6 14  1  0  0  0  0
  6 33  1  6  0  0  0
  7 13  1  0  0  0  0
  7 23  1  0  0  0  0
  8 10  1  0  0  0  0
  8 17  2  0  0  0  0
  9 14  1  0  0  0  0
  9 11  1  0  0  0  0
  9 34  1  6  0  0  0
 10 19  1  0  0  0  0
 10 12  2  0  0  0  0
 11 12  1  0  0  0  0
 11 24  1  1  0  0  0
 11 27  1  6  0  0  0
 12 26  1  0  0  0  0
 13 18  1  6  0  0  0
 15 21  2  0  0  0  0
 15 25  1  0  0  0  0
 18 31  1  0  0  0  0
 18 32  1  0  0  0  0
 19 28  1  0  0  0  0
 19 30  2  0  0  0  0
 26 29  2  0  0  0  0
 29 30  1  0  0  0  0
M  END
> <ID>
3258

> <Formula>
C22H24N2O8

> <FW>
444.4346

> <DSSTox_CID>
3645

> <DSSTox_RID>
77127

> <DSSTox_GSID>
23645

> <DSSTox_FileID_Sort>
1810

> <TS_ChemName>
Tetracycline

> <TS_ChemName_Synonyms>


> <TS_CASRN>
60-54-8

> <CASRN_ChemName_Relationship>
primary

> <TS_Description>
single chemical compound

> <ChemNote>
stereochem; tautomers

> <STRUCTURE_Shown>
tested chemical

> <STRUCTURE_Formula>
C22H24N2O8

> <STRUCTURE_MW>
444.4346

> <STRUCTURE_ChemType>
defined organic

> <STRUCTURE_DefinedOrganicForm>
parent

> <STRUCTURE_IUPAC>
(4S,4aS,5aS,6S,12aS)-4-(dimethylamino)-3,6,10,12,12a-pentahydroxy-6-methyl-1,11-dioxo-1,4,4a,5,5a,6,11,12a-octahydrotetracene-2-carboxamide

> <STRUCTURE_SMILES>
NC(=O)C1=C(O)[C@@H](N(C)C)[C@@H]2C[C@H]4C(=C(O)[C@]2(O)C1=O)C(=O)c3c(O)cccc3[C@@]4(C)O

> <STRUCTURE_SMILES_Desalt>
NC(=O)C1=C(O)[C@@H](N(C)C)[C@@H]2C[C@H]4C(=C(O)[C@]2(O)C1=O)C(=O)c3c(O)cccc3[C@@]4(C)O

> <Substance_modify_yyyymmdd>
20080429

$$$$
