60-79-7
ChemmineR-0915142007XD

 25 28  0  0  1  0  0  0  0  0  1 V2000
    3.2948   -3.9340    0.0000 C   0  0  0  0  0  0  0  0  0  0  0  0
    3.2948   -6.4906    0.0000 C   0  0  0  0  0  0  0  0  0  0  0  0
    4.3661   -4.5822    0.0000 C   0  0  0  0  0  0  0  0  0  0  0  0
    3.2948   -2.6647    0.0000 C   0  0  0  0  0  0  0  0  0  0  0  0
    2.1695   -4.5822    0.0000 C   0  0  0  0  0  0  0  0  0  0  0  0
    4.3661   -2.0525    0.0000 C   0  0  0  0  0  0  0  0  0  0  0  0
    5.4734   -3.9340    0.0000 N   0  0  0  0  0  0  0  0  0  0  0  0
    2.1695   -5.8605    0.0000 C   0  0  0  0  0  0  0  0  0  0  0  0
    4.3301   -0.6752    0.0000 C   0  0  0  0  0  0  0  0  0  0  0  0
    4.3661   -5.8605    0.0000 C   0  0  0  0  0  0  0  0  0  0  0  0
    3.2948   -7.7690    0.0000 C   0  0  0  0  0  0  0  0  0  0  0  0
    1.0983   -7.7690    0.0000 N   0  0  0  0  0  0  0  0  0  0  0  0
    5.4734   -2.6647    0.0000 C   0  0  0  0  0  0  0  0  0  0  0  0
    5.5004    0.0000    0.0000 N   0  0  0  0  0  0  0  0  0  0  0  0
    1.0983   -6.4906    0.0000 C   0  0  0  0  0  0  0  0  0  0  0  0
    3.1598    0.0000    0.0000 O   0  0  0  0  0  0  0  0  0  0  0  0
    1.0983   -3.9340    0.0000 C   0  0  0  0  0  0  0  0  0  0  0  0
    6.5987   -4.5912    0.0000 C   0  0  0  0  0  0  0  0  0  0  0  0
    6.6707   -0.6752    0.0000 C   0  0  0  0  0  0  0  0  0  0  0  0
    9.0023   -0.6752    0.0000 O   0  0  0  0  0  0  0  0  0  0  0  0
    0.0000   -4.5822    0.0000 C   0  0  0  0  0  0  0  0  0  0  0  0
    0.0000   -5.8605    0.0000 C   0  0  0  0  0  0  0  0  0  0  0  0
    7.8320    0.0000    0.0000 C   0  0  0  0  0  0  0  0  0  0  0  0
    6.6707   -2.0345    0.0000 C   0  0  0  0  0  0  0  0  0  0  0  0
    4.3121   -3.1598    0.0000 H   0  0  0  0  0  0  0  0  0  0  0  0
  1  3  1  0  0  0  0
  1  4  2  0  0  0  0
  1  5  1  0  0  0  0
  2  8  1  0  0  0  0
  2 11  2  0  0  0  0
  2 10  1  0  0  0  0
  3  7  1  0  0  0  0
  3 10  1  0  0  0  0
  3 25  1  1  0  0  0
  4  6  1  0  0  0  0
  5  8  2  0  0  0  0
  5 17  1  0  0  0  0
  6  9  1  1  0  0  0
  6 13  1  0  0  0  0
  7 18  1  0  0  0  0
  7 13  1  0  0  0  0
  8 15  1  0  0  0  0
  9 14  1  0  0  0  0
  9 16  2  0  0  0  0
 11 12  1  0  0  0  0
 12 15  1  0  0  0  0
 14 19  1  0  0  0  0
 15 22  2  0  0  0  0
 17 21  2  0  0  0  0
 19 23  1  0  0  0  0
 19 24  1  6  0  0  0
 20 23  1  0  0  0  0
 21 22  1  0  0  0  0
M  END
> <ID>
11606

> <Formula>
C19H23N3O2

> <FW>
325.4048

> <DSSTox_CID>
26323

> <DSSTox_RID>
81539

> <DSSTox_GSID>
46323

> <DSSTox_FileID_Sort>
6220

> <TS_ChemName>
Ergonovine

> <TS_ChemName_Synonyms>


> <TS_CASRN>
60-79-7

> <CASRN_ChemName_Relationship>
primary

> <TS_Description>
single chemical compound

> <ChemNote>
stereochem

> <STRUCTURE_Shown>
tested chemical

> <STRUCTURE_Formula>
C19H23N3O2

> <STRUCTURE_MW>
325.4048

> <STRUCTURE_ChemType>
defined organic

> <STRUCTURE_DefinedOrganicForm>
parent

> <STRUCTURE_IUPAC>
(8beta)-N-[(2S)-1-hydroxypropan-2-yl]-6-methyl-9,10-didehydroergoline-8-carboxamide

> <STRUCTURE_SMILES>
C[C@@H](CO)NC(=O)[C@@H]2C=C1c3cccc4ncc(C[C@H]1N(C)C2)c34

> <STRUCTURE_SMILES_Desalt>
C[C@@H](CO)NC(=O)[C@@H]2C=C1c3cccc4ncc(C[C@H]1N(C)C2)c34

> <Substance_modify_yyyymmdd>
20110815

$$$$
