60-80-0
ChemmineR-0915142007XD

 14 15  0  0  0  0  0  0  0  0  1 V2000
    4.8193   -4.5221    0.0000 C   0  0  0  0  0  0  0  0  0  0  0  0
    4.8917   -3.1959    0.0000 N   0  0  0  0  0  0  0  0  0  0  0  0
    3.8554   -2.3553    0.0000 N   0  0  0  0  0  0  0  0  0  0  0  0
    2.5727   -2.7031    0.0000 C   0  0  0  0  0  0  0  0  0  0  0  0
    2.2248   -3.9859    0.0000 C   0  0  0  0  0  0  0  0  0  0  0  0
    0.9421   -4.3265    0.0000 C   0  0  0  0  0  0  0  0  0  0  0  0
    0.0000   -3.3916    0.0000 C   0  0  0  0  0  0  0  0  0  0  0  0
    0.3479   -2.1016    0.0000 C   0  0  0  0  0  0  0  0  0  0  0  0
    1.6306   -1.7610    0.0000 C   0  0  0  0  0  0  0  0  0  0  0  0
    4.3337   -1.1160    0.0000 C   0  0  0  0  0  0  0  0  0  0  0  0
    3.6090    0.0000    0.0000 O   0  0  0  0  0  0  0  0  0  0  0  0
    5.6599   -1.1813    0.0000 C   0  0  0  0  0  0  0  0  0  0  0  0
    6.0078   -2.4712    0.0000 C   0  0  0  0  0  0  0  0  0  0  0  0
    7.2470   -2.9423    0.0000 C   0  0  0  0  0  0  0  0  0  0  0  0
  1  2  1  0  0  0  0
  2  3  1  0  0  0  0
  2 13  1  0  0  0  0
  3  4  1  0  0  0  0
  3 10  1  0  0  0  0
  4  5  2  0  0  0  0
  4  9  1  0  0  0  0
  5  6  1  0  0  0  0
  6  7  2  0  0  0  0
  7  8  1  0  0  0  0
  8  9  2  0  0  0  0
 10 11  2  0  0  0  0
 10 12  1  0  0  0  0
 12 13  2  0  0  0  0
 13 14  1  0  0  0  0
M  END
> <ID>
1073

> <Formula>
C11H12N2O

> <FW>
188.2258

> <DSSTox_CID>
1117

> <DSSTox_RID>
75949

> <DSSTox_GSID>
21117

> <DSSTox_FileID_Sort>
633

> <TS_ChemName>
Phenazone

> <TS_ChemName_Synonyms>


> <TS_CASRN>
60-80-0

> <CASRN_ChemName_Relationship>
primary

> <TS_Description>
single chemical compound

> <ChemNote>


> <STRUCTURE_Shown>
tested chemical

> <STRUCTURE_Formula>
C11H12N2O

> <STRUCTURE_MW>
188.2258

> <STRUCTURE_ChemType>
defined organic

> <STRUCTURE_DefinedOrganicForm>
parent

> <STRUCTURE_IUPAC>
1,5-dimethyl-2-phenyl-1,2-dihydro-3H-pyrazol-3-one

> <STRUCTURE_SMILES>
O=C2C=C(C)N(C)N2c1ccccc1

> <STRUCTURE_SMILES_Desalt>
O=C2C=C(C)N(C)N2c1ccccc1

> <Substance_modify_yyyymmdd>
20080429

$$$$
