60-82-2
ChemmineR-0915142007XD

 20 21  0  0  0  0  0  0  0  0  1 V2000
    8.0655   -1.9933    0.0000 C   0  0  0  0  0  0  0  0  0  0  0  0
    9.2177   -1.3250    0.0000 C   0  0  0  0  0  0  0  0  0  0  0  0
   10.3699   -1.9933    0.0000 C   0  0  0  0  0  0  0  0  0  0  0  0
   10.3699   -3.3184    0.0000 C   0  0  0  0  0  0  0  0  0  0  0  0
    9.2177   -3.9866    0.0000 C   0  0  0  0  0  0  0  0  0  0  0  0
    8.0655   -3.3184    0.0000 C   0  0  0  0  0  0  0  0  0  0  0  0
    6.9132   -3.9866    0.0000 O   0  0  0  0  0  0  0  0  0  0  0  0
   11.5221   -3.9866    0.0000 O   0  0  0  0  0  0  0  0  0  0  0  0
    9.2177    0.0000    0.0000 O   0  0  0  0  0  0  0  0  0  0  0  0
    6.9132   -1.3250    0.0000 C   0  0  0  0  0  0  0  0  0  0  0  0
    6.9132    0.0000    0.0000 O   0  0  0  0  0  0  0  0  0  0  0  0
    5.7610   -1.9933    0.0000 C   0  0  0  0  0  0  0  0  0  0  0  0
    4.6088   -1.3250    0.0000 C   0  0  0  0  0  0  0  0  0  0  0  0
    3.4566   -1.9933    0.0000 C   0  0  0  0  0  0  0  0  0  0  0  0
    3.4566   -3.3184    0.0000 C   0  0  0  0  0  0  0  0  0  0  0  0
    2.3044   -3.9866    0.0000 C   0  0  0  0  0  0  0  0  0  0  0  0
    1.1522   -3.3184    0.0000 C   0  0  0  0  0  0  0  0  0  0  0  0
    1.1522   -1.9933    0.0000 C   0  0  0  0  0  0  0  0  0  0  0  0
    2.3044   -1.3250    0.0000 C   0  0  0  0  0  0  0  0  0  0  0  0
    0.0000   -3.9866    0.0000 O   0  0  0  0  0  0  0  0  0  0  0  0
  1  2  2  0  0  0  0
  1  6  1  0  0  0  0
  1 10  1  0  0  0  0
  2  3  1  0  0  0  0
  2  9  1  0  0  0  0
  3  4  2  0  0  0  0
  4  5  1  0  0  0  0
  4  8  1  0  0  0  0
  5  6  2  0  0  0  0
  6  7  1  0  0  0  0
 10 11  2  0  0  0  0
 10 12  1  0  0  0  0
 12 13  1  0  0  0  0
 13 14  1  0  0  0  0
 14 15  2  0  0  0  0
 14 19  1  0  0  0  0
 15 16  1  0  0  0  0
 16 17  2  0  0  0  0
 17 18  1  0  0  0  0
 17 20  1  0  0  0  0
 18 19  2  0  0  0  0
M  END
> <ID>
2195

> <Formula>
C15H14O5

> <FW>
274.2687

> <DSSTox_CID>
2393

> <DSSTox_RID>
76569

> <DSSTox_GSID>
22393

> <DSSTox_FileID_Sort>
1253

> <TS_ChemName>
Phloretin

> <TS_ChemName_Synonyms>


> <TS_CASRN>
60-82-2

> <CASRN_ChemName_Relationship>
primary

> <TS_Description>
single chemical compound

> <ChemNote>


> <STRUCTURE_Shown>
tested chemical

> <STRUCTURE_Formula>
C15H14O5

> <STRUCTURE_MW>
274.2687

> <STRUCTURE_ChemType>
defined organic

> <STRUCTURE_DefinedOrganicForm>
parent

> <STRUCTURE_IUPAC>
3-(4-hydroxyphenyl)-1-(2,4,6-trihydroxyphenyl)propan-1-one

> <STRUCTURE_SMILES>
O=C(CCc1ccc(O)cc1)c2c(O)cc(O)cc2O

> <STRUCTURE_SMILES_Desalt>
O=C(CCc1ccc(O)cc1)c2c(O)cc(O)cc2O

> <Substance_modify_yyyymmdd>
20080429

$$$$
