60-89-9
ChemmineR-0915142007XD

 22 25  0  0  0  0  0  0  0  0  1 V2000
    4.6207   -2.6611    0.0000 N   0  0  0  0  0  0  0  0  0  0  0  0
    4.6207    0.0000    0.0000 S   0  0  0  0  0  0  0  0  0  0  0  0
    5.7658   -1.9918    0.0000 C   0  0  0  0  0  0  0  0  0  0  0  0
    3.4756   -1.9918    0.0000 C   0  0  0  0  0  0  0  0  0  0  0  0
    5.7658   -0.6532    0.0000 C   0  0  0  0  0  0  0  0  0  0  0  0
    3.4756   -0.6532    0.0000 C   0  0  0  0  0  0  0  0  0  0  0  0
    4.6207   -3.9997    0.0000 C   0  0  0  0  0  0  0  0  0  0  0  0
    1.1773   -4.6529    0.0000 N   0  0  0  0  0  0  0  0  0  0  0  0
    3.4756   -4.6529    0.0000 C   0  0  0  0  0  0  0  0  0  0  0  0
    2.3305   -3.9997    0.0000 C   0  0  0  0  0  0  0  0  0  0  0  0
    2.3305   -2.6611    0.0000 C   0  0  0  0  0  0  0  0  0  0  0  0
    6.9189   -2.6611    0.0000 C   0  0  0  0  0  0  0  0  0  0  0  0
    1.1773   -5.9915    0.0000 C   0  0  0  0  0  0  0  0  0  0  0  0
    6.9189    0.0000    0.0000 C   0  0  0  0  0  0  0  0  0  0  0  0
    2.3305    0.0000    0.0000 C   0  0  0  0  0  0  0  0  0  0  0  0
    0.0000   -3.9675    0.0000 C   0  0  0  0  0  0  0  0  0  0  0  0
    2.3305   -6.6609    0.0000 C   0  0  0  0  0  0  0  0  0  0  0  0
    3.4756   -5.9915    0.0000 C   0  0  0  0  0  0  0  0  0  0  0  0
    1.1773   -1.9918    0.0000 C   0  0  0  0  0  0  0  0  0  0  0  0
    8.0640   -1.9918    0.0000 C   0  0  0  0  0  0  0  0  0  0  0  0
    1.1773   -0.6532    0.0000 C   0  0  0  0  0  0  0  0  0  0  0  0
    8.0640   -0.6532    0.0000 C   0  0  0  0  0  0  0  0  0  0  0  0
  1  3  1  0  0  0  0
  1  4  1  0  0  0  0
  1  7  1  0  0  0  0
  2  6  1  0  0  0  0
  2  5  1  0  0  0  0
  3  5  2  0  0  0  0
  3 12  1  0  0  0  0
  4  6  2  0  0  0  0
  4 11  1  0  0  0  0
  5 14  1  0  0  0  0
  6 15  1  0  0  0  0
  7  9  1  0  0  0  0
  8 10  1  0  0  0  0
  8 16  1  0  0  0  0
  8 13  1  0  0  0  0
  9 10  1  0  0  0  0
  9 18  1  0  0  0  0
 11 19  2  0  0  0  0
 12 20  2  0  0  0  0
 13 17  1  0  0  0  0
 14 22  2  0  0  0  0
 15 21  2  0  0  0  0
 17 18  1  0  0  0  0
 19 21  1  0  0  0  0
 20 22  1  0  0  0  0
M  END
> <ID>
11475

> <Formula>
C19H22N2S

> <FW>
310.4564

> <DSSTox_CID>
26177

> <DSSTox_RID>
81408

> <DSSTox_GSID>
46177

> <DSSTox_FileID_Sort>
6089

> <TS_ChemName>
Pecazine

> <TS_ChemName_Synonyms>


> <TS_CASRN>
60-89-9

> <CASRN_ChemName_Relationship>
primary

> <TS_Description>
single chemical compound

> <ChemNote>


> <STRUCTURE_Shown>
tested chemical

> <STRUCTURE_Formula>
C19H22N2S

> <STRUCTURE_MW>
310.4564

> <STRUCTURE_ChemType>
defined organic

> <STRUCTURE_DefinedOrganicForm>
parent

> <STRUCTURE_IUPAC>
10-[(1-methylpiperidin-3-yl)methyl]-10H-phenothiazine

> <STRUCTURE_SMILES>
CN1CCCC(C1)CN2c4ccccc4Sc3ccccc23

> <STRUCTURE_SMILES_Desalt>
CN1CCCC(C1)CN2c4ccccc4Sc3ccccc23

> <Substance_modify_yyyymmdd>
20110818

$$$$
