60-92-4
ChemmineR-0915142007XD

 22 25  0  0  1  0  0  0  0  0  1 V2000
    5.0020   -3.5164    0.0000 N   0  0  0  0  0  0  0  0  0  0  0  0
    3.8361   -3.1403    0.0000 C   0  0  0  0  0  0  0  0  0  0  0  0
    3.8361   -1.8804    0.0000 C   0  0  0  0  0  0  0  0  0  0  0  0
    5.0020   -1.5044    0.0000 N   0  0  0  0  0  0  0  0  0  0  0  0
    5.7260   -2.5104    0.0000 C   0  0  0  0  0  0  0  0  0  0  0  0
    2.7266   -1.2411    0.0000 C   0  0  0  0  0  0  0  0  0  0  0  0
    2.7266   -3.7703    0.0000 N   0  0  0  0  0  0  0  0  0  0  0  0
    1.6548   -1.8804    0.0000 N   0  0  0  0  0  0  0  0  0  0  0  0
    1.6548   -3.1403    0.0000 C   0  0  0  0  0  0  0  0  0  0  0  0
    2.7266    0.0000    0.0000 N   0  0  0  0  0  0  0  0  0  0  0  0
    5.0020   -5.9422    0.0000 C   0  0  0  0  0  0  0  0  0  0  0  0
    2.8865   -5.9422    0.0000 C   0  0  0  0  0  0  0  0  0  0  0  0
    3.9489   -5.1712    0.0000 O   0  0  0  0  0  0  0  0  0  0  0  0
    3.3002   -7.1927    0.0000 C   0  0  0  0  0  0  0  0  0  0  0  0
    4.5977   -7.1927    0.0000 C   0  0  0  0  0  0  0  0  0  0  0  0
    2.6044   -8.0953    0.0000 O   0  0  0  0  0  0  0  0  0  0  0  0
    5.3499   -8.2363    0.0000 O   0  0  0  0  0  0  0  0  0  0  0  0
    1.8522   -5.2370    0.0000 C   0  0  0  0  0  0  0  0  0  0  0  0
    1.3069   -6.7978    0.0000 O   0  0  0  0  0  0  0  0  0  0  0  0
    1.3069   -9.4022    0.0000 O   0  0  0  0  0  0  0  0  0  0  0  0
    1.3069   -8.0953    0.0000 P   0  0  0  0  0  0  0  0  0  0  0  0
    0.0000   -8.0953    0.0000 O   0  0  0  0  0  0  0  0  0  0  0  0
  1  2  1  0  0  0  0
  1  5  1  0  0  0  0
 11  1  1  1  0  0  0
  2  3  2  0  0  0  0
  2  7  1  0  0  0  0
  3  6  1  0  0  0  0
  3  4  1  0  0  0  0
  4  5  2  0  0  0  0
  6 10  1  0  0  0  0
  6  8  2  0  0  0  0
  7  9  2  0  0  0  0
  8  9  1  0  0  0  0
 11 13  1  0  0  0  0
 11 15  1  0  0  0  0
 12 13  1  0  0  0  0
 12 14  1  0  0  0  0
 12 18  1  1  0  0  0
 14 15  1  0  0  0  0
 14 16  1  6  0  0  0
 15 17  1  6  0  0  0
 16 21  1  0  0  0  0
 18 19  1  0  0  0  0
 19 21  1  0  0  0  0
 20 21  1  0  0  0  0
 21 22  2  0  0  0  0
M  END
> <ID>
7757

> <Formula>
C10H12N5O6P

> <FW>
329.2059

> <DSSTox_CID>
20436

> <DSSTox_RID>
79492

> <DSSTox_GSID>
40436

> <DSSTox_FileID_Sort>
4174

> <TS_ChemName>
cAMP

> <TS_ChemName_Synonyms>


> <TS_CASRN>
60-92-4

> <CASRN_ChemName_Relationship>
primary

> <TS_Description>
single chemical compound

> <ChemNote>
stereochem

> <STRUCTURE_Shown>
tested chemical

> <STRUCTURE_Formula>
C10H12N5O6P

> <STRUCTURE_MW>
329.2059

> <STRUCTURE_ChemType>
defined organic

> <STRUCTURE_DefinedOrganicForm>
parent

> <STRUCTURE_IUPAC>
(4aR,6R,7R,7aS)-6-(6-amino-9H-purin-9-yl)tetrahydro-4H-furo[3,2-d][1,3,2]dioxaphosphinine-2,7-diol 2-oxide

> <STRUCTURE_SMILES>
Nc4ncnc3c4ncn3[C@@H]2O[C@@H]1COP(=O)(O)O[C@H]1[C@H]2O

> <STRUCTURE_SMILES_Desalt>
Nc4ncnc3c4ncn3[C@@H]2O[C@@H]1COP(=O)(O)O[C@H]1[C@H]2O

> <Substance_modify_yyyymmdd>
20080429

$$$$
