600-05-5
ChemmineR-0915142007XD

  7  6  0  0  0  0  0  0  0  0  1 V2000
    3.4389   -1.3269    0.0000 C    0  0  0  0  0  0  0  0  0  0  0  0
    3.4389    0.0000    0.0000 O    0  0  0  0  0  0  0  0  0  0  0  0
    4.5913   -2.0018    0.0000 O    0  0  0  0  0  0  0  0  0  0  0  0
    2.3048   -2.0018    0.0000 C    0  0  0  0  0  0  0  0  0  0  0  0
    1.1524   -1.3269    0.0000 C    0  0  0  0  0  0  0  0  0  0  0  0
    2.3048   -3.3287    0.0000 Br   0  0  0  0  0  0  0  0  0  0  0  0
    0.0000   -2.0018    0.0000 Br   0  0  0  0  0  0  0  0  0  0  0  0
  1  2  2  0  0  0  0
  1  3  1  0  0  0  0
  1  4  1  0  0  0  0
  4  5  1  0  0  0  0
  4  6  1  0  0  0  0
  5  7  1  0  0  0  0
M  END
> <ID>
6587

> <Formula>
C3H4Br2O2

> <FW>
231.8707

> <DSSTox_CID>
12832

> <DSSTox_RID>
79040

> <DSSTox_GSID>
32832

> <DSSTox_FileID_Sort>
3722

> <TS_ChemName>
2,3-Dibromopropionic acid

> <TS_ChemName_Synonyms>


> <TS_CASRN>
600-05-5

> <CASRN_ChemName_Relationship>
primary

> <TS_Description>
single chemical compound

> <ChemNote>


> <STRUCTURE_Shown>
tested chemical

> <STRUCTURE_Formula>
C3H4Br2O2

> <STRUCTURE_MW>
231.8707

> <STRUCTURE_ChemType>
defined organic

> <STRUCTURE_DefinedOrganicForm>
parent

> <STRUCTURE_IUPAC>
2,3-dibromopropanoic acid

> <STRUCTURE_SMILES>
BrC(CBr)C(=O)O

> <STRUCTURE_SMILES_Desalt>
BrC(CBr)C(=O)O

> <Substance_modify_yyyymmdd>
20080429

$$$$
