6000-74-4
ChemmineR-0915142007XD

 35 36  0  0  1  0  0  0  0  0  2 V2000
    6.9413   -6.2359    0.0000 C    0  0  0  0  0  0  0  0  0  0  0  0
    3.4757   -8.2395    0.0000 C    0  0  0  0  0  0  0  0  0  0  0  0
    8.2089   -5.8372    0.0000 C    0  0  0  0  0  0  0  0  0  0  0  0
    5.7963   -8.2395    0.0000 C    0  0  0  0  0  0  0  0  0  0  0  0
    6.9413   -7.5853    0.0000 C    0  0  0  0  0  0  0  0  0  0  0  0
    4.6207   -7.5648    0.0000 C    0  0  0  0  0  0  0  0  0  0  0  0
    3.4757   -9.5685    0.0000 C    0  0  0  0  0  0  0  0  0  0  0  0
    5.7759   -5.5816    0.0000 C    0  0  0  0  0  0  0  0  0  0  0  0
    4.6207   -6.2359    0.0000 C    0  0  0  0  0  0  0  0  0  0  0  0
    2.3308  -10.2228    0.0000 C    0  0  0  0  0  0  0  0  0  0  0  0
    8.2089   -4.5082    0.0000 C    0  0  0  0  0  0  0  0  0  0  0  0
    8.9551   -6.8901    0.0000 C    0  0  0  0  0  0  0  0  0  0  0  0
    8.2089   -7.9635    0.0000 C    0  0  0  0  0  0  0  0  0  0  0  0
    5.7963   -9.5481    0.0000 C    0  0  0  0  0  0  0  0  0  0  0  0
    2.3308   -7.5648    0.0000 C    0  0  0  0  0  0  0  0  0  0  0  0
    4.6207  -10.2228    0.0000 C    0  0  0  0  0  0  0  0  0  0  0  0
    1.1858   -9.5481    0.0000 C    0  0  0  0  0  0  0  0  0  0  0  0
    9.3538   -3.8438    0.0000 O    0  0  0  0  0  0  0  0  0  0  0  0
    0.0000  -10.1921    0.0000 O    0  0  0  0  0  0  0  0  0  0  0  0
    9.5378   -5.8883    0.0000 O    0  0  0  0  0  0  0  0  0  0  0  0
    6.9413   -4.9069    0.0000 C    0  0  0  0  0  0  0  0  0  0  0  0
    1.1858   -8.2395    0.0000 C    0  0  0  0  0  0  0  0  0  0  0  0
    3.4553   -5.5714    0.0000 O    0  0  0  0  0  0  0  0  0  0  0  0
    3.4757   -6.8901    0.0000 C    0  0  0  0  0  0  0  0  0  0  0  0
    7.0741   -3.8540    0.0000 C    0  0  0  0  0  0  0  0  0  0  0  0
    7.0741   -2.5250    0.0000 O    0  0  0  0  0  0  0  0  0  0  0  0
    5.7963   -6.9106    0.0000 H    0  0  0  0  0  0  0  0  0  0  0  0
    6.9413   -8.9142    0.0000 H    0  0  0  0  0  0  0  0  0  0  0  0
    4.6207   -8.8938    0.0000 H    0  0  0  0  0  0  0  0  0  0  0  0
    8.2395   -1.7788    0.0000 P    0  0  0  0  0  0  0  0  0  0  0  0
    9.3743   -1.0734    0.0000 O    0  5  0  0  0  0  0  0  0  0  0  0
    8.9449   -2.9135    0.0000 O    0  0  0  0  0  0  0  0  0  0  0  0
    7.5546   -0.6440    0.0000 O    0  5  0  0  0  0  0  0  0  0  0  0
    6.0519   -0.1431    0.0000 Na   0  3  0  0  0  0  0  0  0  0  0  0
    9.9979    0.0000    0.0000 Na   0  3  0  0  0  0  0  0  0  0  0  0
  1  3  1  0  0  0  0
  1  5  1  0  0  0  0
  1  8  1  0  0  0  0
  1 21  1  1  0  0  0
  2  6  1  0  0  0  0
  2  7  1  0  0  0  0
  2 15  1  0  0  0  0
  2 24  1  1  0  0  0
  3 11  1  0  0  0  0
  3 12  1  0  0  0  0
  3 20  1  6  0  0  0
  4  5  1  0  0  0  0
  4 14  1  0  0  0  0
  4  6  1  0  0  0  0
  4 27  1  1  0  0  0
  5 13  1  0  0  0  0
  5 28  1  6  0  0  0
  6  9  1  0  0  0  0
  6 29  1  6  0  0  0
  7 10  2  0  0  0  0
  7 16  1  0  0  0  0
  8  9  1  0  0  0  0
  9 23  1  1  0  0  0
 10 17  1  0  0  0  0
 11 18  2  0  0  0  0
 11 25  1  0  0  0  0
 12 13  1  0  0  0  0
 14 16  1  0  0  0  0
 15 22  1  0  0  0  0
 17 22  1  0  0  0  0
 17 19  2  0  0  0  0
 25 26  1  0  0  0  0
 26 30  1  0  0  0  0
 30 31  1  0  0  0  0
 30 32  2  0  0  0  0
 30 33  1  0  0  0  0
M  END
> <ID>
11857

> <Formula>
C21H29Na2O8P

> <FW>
486.4035 (440.4250+22.9892+22.9892)

> <DSSTox_CID>
26647

> <DSSTox_RID>
81792

> <DSSTox_GSID>
46647

> <DSSTox_FileID_Sort>
6473

> <TS_ChemName>
Hydrocortisone sodium phosphate

> <TS_ChemName_Synonyms>


> <TS_CASRN>
6000-74-4

> <CASRN_ChemName_Relationship>
primary

> <TS_Description>
single chemical compound

> <ChemNote>
stereochem; tautomers

> <STRUCTURE_Shown>
tested chemical

> <STRUCTURE_Formula>
C21H29Na2O8P

> <STRUCTURE_MW>
486.4035

> <STRUCTURE_ChemType>
defined organic

> <STRUCTURE_DefinedOrganicForm>
salt

> <STRUCTURE_IUPAC>
disodium (11beta)-11,17-dihydroxy-3,20-dioxopregn-4-en-21-yl phosphate

> <STRUCTURE_SMILES>
[Na+].[Na+].[O-]P([O-])(=O)OCC(=O)[C@@]4(O)CC[C@@H]2[C@]4(C)C[C@H](O)[C@@H]1[C@@]3(C)CCC(=O)C=C3CC[C@H]12

> <STRUCTURE_SMILES_Desalt>
O=P(O)(O)OCC(=O)[C@@]4(O)CC[C@@H]2[C@]4(C)C[C@H](O)[C@@H]1[C@@]3(C)CCC(=O)C=C3CC[C@H]12

> <Substance_modify_yyyymmdd>
20110808

$$$$
