6010-91-9
ChemmineR-0915142007XD

 14 10  0  0  0  0  0  0  0  0  1 V2000
    6.2265   -1.9745    0.0000 N   0  0  0  0  0  0  0  0  0  0  0  0
    5.0877    0.0000    0.0000 N   0  0  0  0  0  0  0  0  0  0  0  0
    5.0877   -2.6541    0.0000 C   0  0  0  0  0  0  0  0  0  0  0  0
    3.9490   -0.6429    0.0000 C   0  0  0  0  0  0  0  0  0  0  0  0
    3.9490   -1.9745    0.0000 C   0  0  0  0  0  0  0  0  0  0  0  0
    6.2265   -0.6429    0.0000 C   0  0  0  0  0  0  0  0  0  0  0  0
    2.7735   -2.6541    0.0000 O   0  0  0  0  0  0  0  0  0  0  0  0
    5.0877   -3.9857    0.0000 O   0  0  0  0  0  0  0  0  0  0  0  0
    2.7735    0.0000    0.0000 O   0  0  0  0  0  0  0  0  0  0  0  0
    7.4020    0.0000    0.0000 O   0  0  0  0  0  0  0  0  0  0  0  0
    9.0918   -0.1286    0.0000 O   0  0  0  0  0  0  0  0  0  0  0  0
    9.1837   -2.4245    0.0000 O   0  0  0  0  0  0  0  0  0  0  0  0
    0.0000   -0.1286    0.0000 O   0  0  0  0  0  0  0  0  0  0  0  0
    0.0000   -3.6367    0.0000 O   0  0  0  0  0  0  0  0  0  0  0  0
  1  3  1  0  0  0  0
  1  6  1  0  0  0  0
  2  6  1  0  0  0  0
  2  4  1  0  0  0  0
  3  5  1  0  0  0  0
  3  8  2  0  0  0  0
  4  9  2  0  0  0  0
  4  5  1  0  0  0  0
  5  7  2  0  0  0  0
  6 10  2  0  0  0  0
M  END
> <ID>
12384

> <Formula>
C4H10N2O8

> <FW>
214.1308 (142.0697+18.0153+18.0153+18.0153+18.0153)

> <DSSTox_CID>
27241

> <DSSTox_RID>
82203

> <DSSTox_GSID>
47241

> <DSSTox_FileID_Sort>
6884

> <TS_ChemName>
Pyrimidine-2,4,5,6(1H,3H)-tetrone tetrahydrate

> <TS_ChemName_Synonyms>
Alloxan tetrahydrate

> <TS_CASRN>
6010-91-9

> <CASRN_ChemName_Relationship>
primary

> <TS_Description>
single chemical compound

> <ChemNote>
parent [50-71-5]

> <STRUCTURE_Shown>
tested chemical

> <STRUCTURE_Formula>
C4H10N2O8

> <STRUCTURE_MW>
214.1308

> <STRUCTURE_ChemType>
defined organic

> <STRUCTURE_DefinedOrganicForm>
complex

> <STRUCTURE_IUPAC>
pyrimidine-2,4,5,6(1H,3H)-tetrone tetrahydrate

> <STRUCTURE_SMILES>
O.O.O.O.O=C1C(=O)NC(=O)NC1=O

> <STRUCTURE_SMILES_Desalt>
O=C1C(=O)NC(=O)NC1=O

> <Substance_modify_yyyymmdd>
20100605

$$$$
