60125-24-8
ChemmineR-0915142007XD

 12 12  0  0  0  0  0  0  0  0  1 V2000
    2.3081   -0.6703    0.0000 C   0  0  0  0  0  0  0  0  0  0  0  0
    2.3081   -2.0040    0.0000 C   0  0  0  0  0  0  0  0  0  0  0  0
    1.1540    0.0000    0.0000 C   0  0  0  0  0  0  0  0  0  0  0  0
    1.1540   -2.6605    0.0000 C   0  0  0  0  0  0  0  0  0  0  0  0
    0.0000   -0.6703    0.0000 C   0  0  0  0  0  0  0  0  0  0  0  0
    0.0000   -2.0040    0.0000 C   0  0  0  0  0  0  0  0  0  0  0  0
    3.4621    0.0000    0.0000 O   0  0  0  0  0  0  0  0  0  0  0  0
    4.6162   -0.6703    0.0000 C   0  0  0  0  0  0  0  0  0  0  0  0
    3.4621   -2.6605    0.0000 C   0  0  0  0  0  0  0  0  0  0  0  0
    4.6162   -2.0040    0.0000 C   0  0  0  0  0  0  0  0  0  0  0  0
    5.7564   -2.6605    0.0000 C   0  0  0  0  0  0  0  0  0  0  0  0
    6.9104   -2.0040    0.0000 O   0  0  0  0  0  0  0  0  0  0  0  0
  1  3  2  0  0  0  0
  1  7  1  0  0  0  0
  1  2  1  0  0  0  0
  2  4  2  0  0  0  0
  2  9  1  0  0  0  0
  3  5  1  0  0  0  0
  4  6  1  0  0  0  0
  5  6  2  0  0  0  0
  7  8  1  0  0  0  0
  9 10  2  0  0  0  0
 10 11  1  0  0  0  0
 11 12  2  0  0  0  0
M  END
> <ID>
4259

> <Formula>
C10H10O2

> <FW>
162.1852

> <DSSTox_CID>
5551

> <DSSTox_RID>
82200

> <DSSTox_GSID>
47206

> <DSSTox_FileID_Sort>
6881

> <TS_ChemName>
trans-2-Methoxycinnamaldehyde

> <TS_ChemName_Synonyms>


> <TS_CASRN>
60125-24-8

> <CASRN_ChemName_Relationship>
primary

> <TS_Description>
single chemical compound

> <ChemNote>
stereochem

> <STRUCTURE_Shown>
tested chemical

> <STRUCTURE_Formula>
C10H10O2

> <STRUCTURE_MW>
162.1852

> <STRUCTURE_ChemType>
defined organic

> <STRUCTURE_DefinedOrganicForm>
parent

> <STRUCTURE_IUPAC>
(2E)-3-(2-methoxyphenyl)prop-2-enal

> <STRUCTURE_SMILES>
COc1ccccc1/C=C/C=O

> <STRUCTURE_SMILES_Desalt>
COc1ccccc1/C=C/C=O

> <Substance_modify_yyyymmdd>
20100428

$$$$
