6012-97-1
ChemmineR-0915142007XD

  9  9  0  0  0  0  0  0  0  0  1 V2000
    1.2684   -0.7863    0.0000 C    0  0  0  0  0  0  0  0  0  0  0  0
    2.3402    0.0000    0.0000 S    0  0  0  0  0  0  0  0  0  0  0  0
    1.6662   -2.0547    0.0000 C    0  0  0  0  0  0  0  0  0  0  0  0
    3.4120   -0.7863    0.0000 C    0  0  0  0  0  0  0  0  0  0  0  0
    2.9955   -2.0547    0.0000 C    0  0  0  0  0  0  0  0  0  0  0  0
    0.0000   -0.3698    0.0000 Cl   0  0  0  0  0  0  0  0  0  0  0  0
    0.8986   -3.1265    0.0000 Cl   0  0  0  0  0  0  0  0  0  0  0  0
    3.7818   -3.1265    0.0000 Cl   0  0  0  0  0  0  0  0  0  0  0  0
    4.6804   -0.3698    0.0000 Cl   0  0  0  0  0  0  0  0  0  0  0  0
  1  2  1  0  0  0  0
  1  3  2  0  0  0  0
  1  6  1  0  0  0  0
  2  4  1  0  0  0  0
  3  5  1  0  0  0  0
  3  7  1  0  0  0  0
  4  5  2  0  0  0  0
  4  9  1  0  0  0  0
  5  8  1  0  0  0  0
M  END
> <ID>
9362

> <Formula>
C4Cl4S

> <FW>
221.9198

> <DSSTox_CID>
22451

> <DSSTox_RID>
80028

> <DSSTox_GSID>
42451

> <DSSTox_FileID_Sort>
4710

> <TS_ChemName>
Tetrachlorothiophene

> <TS_ChemName_Synonyms>


> <TS_CASRN>
6012-97-1

> <CASRN_ChemName_Relationship>
primary

> <TS_Description>
single chemical compound

> <ChemNote>


> <STRUCTURE_Shown>
tested chemical

> <STRUCTURE_Formula>
C4Cl4S

> <STRUCTURE_MW>
221.9198

> <STRUCTURE_ChemType>
defined organic

> <STRUCTURE_DefinedOrganicForm>
parent

> <STRUCTURE_IUPAC>
tetrachlorothiophene

> <STRUCTURE_SMILES>
Clc1sc(Cl)c(Cl)c1Cl

> <STRUCTURE_SMILES_Desalt>
Clc1sc(Cl)c(Cl)c1Cl

> <Substance_modify_yyyymmdd>
20080825

$$$$
