60166-93-0
ChemmineR-0915142007XD

 31 31  0  0  1  0  0  0  0  0  1 V2000
    5.7465   -3.9871    0.0000 C   0  0  0  0  0  0  0  0  0  0  0  0
    6.9110   -5.9744    0.0000 C   0  0  0  0  0  0  0  0  0  0  0  0
    4.6074   -5.9744    0.0000 C   0  0  0  0  0  0  0  0  0  0  0  0
    6.9110   -4.6453    0.0000 C   0  0  0  0  0  0  0  0  0  0  0  0
    5.7465   -6.6452    0.0000 C   0  0  0  0  0  0  0  0  0  0  0  0
    4.6074   -4.6453    0.0000 C   0  0  0  0  0  0  0  0  0  0  0  0
    5.7465   -2.6581    0.0000 C   0  0  0  0  0  0  0  0  0  0  0  0
    8.0502   -6.6452    0.0000 C   0  0  0  0  0  0  0  0  0  0  0  0
    3.4429   -6.6452    0.0000 N   0  0  0  0  0  0  0  0  0  0  0  0
    2.3037   -5.9744    0.0000 C   0  0  0  0  0  0  0  0  0  0  0  0
    9.2147   -5.9744    0.0000 N   0  0  0  0  0  0  0  0  0  0  0  0
    6.9110   -1.9872    0.0000 N   0  0  0  0  0  0  0  0  0  0  0  0
    4.6074   -1.9872    0.0000 O   0  0  0  0  0  0  0  0  0  0  0  0
    8.0502   -7.9743    0.0000 O   0  0  0  0  0  0  0  0  0  0  0  0
    2.3037   -4.6453    0.0000 O   0  0  0  0  0  0  0  0  0  0  0  0
    3.4429   -3.9871    0.0000 I   0  0  0  0  0  0  0  0  0  0  0  0
    5.7465   -7.9743    0.0000 I   0  0  0  0  0  0  0  0  0  0  0  0
    8.0502   -3.9871    0.0000 I   0  0  0  0  0  0  0  0  0  0  0  0
    1.1392   -6.6452    0.0000 C   0  0  0  0  0  0  0  0  0  0  0  0
    6.9110   -0.6582    0.0000 C   0  0  0  0  0  0  0  0  0  0  0  0
   10.3539   -6.6452    0.0000 C   0  0  0  0  0  0  0  0  0  0  0  0
    1.1392   -7.9743    0.0000 O   0  0  0  0  0  0  0  0  0  0  0  0
    9.2147   -0.6582    0.0000 O   0  0  0  0  0  0  0  0  0  0  0  0
    4.6074   -0.6582    0.0000 O   0  0  0  0  0  0  0  0  0  0  0  0
   11.5184   -8.6325    0.0000 O   0  0  0  0  0  0  0  0  0  0  0  0
   12.6576   -6.6452    0.0000 O   0  0  0  0  0  0  0  0  0  0  0  0
   10.3539   -7.9743    0.0000 C   0  0  0  0  0  0  0  0  0  0  0  0
    5.7465    0.0000    0.0000 C   0  0  0  0  0  0  0  0  0  0  0  0
   11.5184   -5.9744    0.0000 C   0  0  0  0  0  0  0  0  0  0  0  0
    8.0502    0.0000    0.0000 C   0  0  0  0  0  0  0  0  0  0  0  0
    0.0000   -5.9744    0.0000 C   0  0  0  0  0  0  0  0  0  0  0  0
  1  4  1  0  0  0  0
  1  6  2  0  0  0  0
  1  7  1  0  0  0  0
  2  4  2  0  0  0  0
  2  8  1  0  0  0  0
  2  5  1  0  0  0  0
  3  6  1  0  0  0  0
  3  5  2  0  0  0  0
  3  9  1  0  0  0  0
  4 18  1  0  0  0  0
  5 17  1  0  0  0  0
  6 16  1  0  0  0  0
  7 12  1  0  0  0  0
  7 13  2  0  0  0  0
  8 11  1  0  0  0  0
  8 14  2  0  0  0  0
  9 10  1  0  0  0  0
 10 15  2  0  0  0  0
 10 19  1  0  0  0  0
 11 21  1  0  0  0  0
 12 20  1  0  0  0  0
 19 22  1  1  0  0  0
 19 31  1  0  0  0  0
 20 28  1  0  0  0  0
 20 30  1  0  0  0  0
 21 27  1  0  0  0  0
 21 29  1  0  0  0  0
 23 30  1  0  0  0  0
 24 28  1  0  0  0  0
 25 27  1  0  0  0  0
 26 29  1  0  0  0  0
M  END
> <ID>
2835

> <Formula>
C17H22I3N3O8

> <FW>
777.0853

> <DSSTox_CID>
3158

> <DSSTox_RID>
76896

> <DSSTox_GSID>
23158

> <DSSTox_FileID_Sort>
1580

> <TS_ChemName>
Iopamidol

> <TS_ChemName_Synonyms>


> <TS_CASRN>
60166-93-0

> <CASRN_ChemName_Relationship>
primary

> <TS_Description>
single chemical compound

> <ChemNote>
stereochem

> <STRUCTURE_Shown>
tested chemical

> <STRUCTURE_Formula>
C17H22I3N3O8

> <STRUCTURE_MW>
777.0853

> <STRUCTURE_ChemType>
defined organic

> <STRUCTURE_DefinedOrganicForm>
parent

> <STRUCTURE_IUPAC>
N,N'-bis(1,3-dihydroxypropan-2-yl)-5-{[(2S)-2-hydroxypropanoyl]amino}-2,4,6-triiodobenzene-1,3-dicarboxamide

> <STRUCTURE_SMILES>
O=C(Nc1c(I)c(c(I)c(c1I)C(=O)NC(CO)CO)C(=O)NC(CO)CO)[C@H](C)O

> <STRUCTURE_SMILES_Desalt>
O=C(Nc1c(I)c(c(I)c(c1I)C(=O)NC(CO)CO)C(=O)NC(CO)CO)[C@H](C)O

> <Substance_modify_yyyymmdd>
20080429

$$$$
