60168-88-9
ChemmineR-0915142007XD

 22 24  0  0  0  0  0  0  0  0  1 V2000
    4.0302   -2.3083    0.0000 C    0  0  0  0  0  0  0  0  0  0  0  0
    2.6620   -2.3083    0.0000 C    0  0  0  0  0  0  0  0  0  0  0  0
    4.0302   -3.6393    0.0000 C    0  0  0  0  0  0  0  0  0  0  0  0
    5.3240   -2.3083    0.0000 C    0  0  0  0  0  0  0  0  0  0  0  0
    1.9918   -1.1728    0.0000 C    0  0  0  0  0  0  0  0  0  0  0  0
    2.8388   -5.6591    0.0000 N    0  0  0  0  0  0  0  0  0  0  0  0
    5.1472   -5.6312    0.0000 N    0  0  0  0  0  0  0  0  0  0  0  0
    3.9930   -6.3199    0.0000 C    0  0  0  0  0  0  0  0  0  0  0  0
    6.0035   -1.1728    0.0000 C    0  0  0  0  0  0  0  0  0  0  0  0
    6.0035   -3.4625    0.0000 C    0  0  0  0  0  0  0  0  0  0  0  0
    4.0302   -0.9587    0.0000 O    0  0  0  0  0  0  0  0  0  0  0  0
    5.1472   -4.3002    0.0000 C    0  0  0  0  0  0  0  0  0  0  0  0
    2.8388   -4.3281    0.0000 C    0  0  0  0  0  0  0  0  0  0  0  0
    7.9767   -2.3083    0.0000 C    0  0  0  0  0  0  0  0  0  0  0  0
    2.6434    0.0000    0.0000 Cl   0  0  0  0  0  0  0  0  0  0  0  0
    7.3159   -3.4625    0.0000 C    0  0  0  0  0  0  0  0  0  0  0  0
    7.3159   -1.1728    0.0000 C    0  0  0  0  0  0  0  0  0  0  0  0
    9.3077   -2.3083    0.0000 Cl   0  0  0  0  0  0  0  0  0  0  0  0
    2.0105   -3.4625    0.0000 C    0  0  0  0  0  0  0  0  0  0  0  0
    0.6608   -1.1728    0.0000 C    0  0  0  0  0  0  0  0  0  0  0  0
    0.6702   -3.4625    0.0000 C    0  0  0  0  0  0  0  0  0  0  0  0
    0.0000   -2.3083    0.0000 C    0  0  0  0  0  0  0  0  0  0  0  0
  1  2  1  0  0  0  0
  1  3  1  0  0  0  0
  1  4  1  0  0  0  0
  1 11  1  0  0  0  0
  2  5  1  0  0  0  0
  2 19  2  0  0  0  0
  3 12  2  0  0  0  0
  3 13  1  0  0  0  0
  4  9  2  0  0  0  0
  4 10  1  0  0  0  0
  5 15  1  0  0  0  0
  5 20  2  0  0  0  0
  6 13  2  0  0  0  0
  6  8  1  0  0  0  0
  7 12  1  0  0  0  0
  7  8  2  0  0  0  0
  9 17  1  0  0  0  0
 10 16  2  0  0  0  0
 14 16  1  0  0  0  0
 14 18  1  0  0  0  0
 14 17  2  0  0  0  0
 19 21  1  0  0  0  0
 20 22  1  0  0  0  0
 21 22  2  0  0  0  0
M  END
> <ID>
6445

> <Formula>
C17H12Cl2N2O

> <FW>
331.196

> <DSSTox_CID>
12390

> <DSSTox_RID>
78935

> <DSSTox_GSID>
32390

> <DSSTox_FileID_Sort>
3617

> <TS_ChemName>
Fenarimol

> <TS_ChemName_Synonyms>


> <TS_CASRN>
60168-88-9

> <CASRN_ChemName_Relationship>
primary

> <TS_Description>
single chemical compound

> <ChemNote>
mixture of (R,S) isomers; structure shown without stereochem

> <STRUCTURE_Shown>
tested chemical

> <STRUCTURE_Formula>
C17H12Cl2N2O

> <STRUCTURE_MW>
331.196

> <STRUCTURE_ChemType>
defined organic

> <STRUCTURE_DefinedOrganicForm>
parent

> <STRUCTURE_IUPAC>
(2-chlorophenyl)(4-chlorophenyl)pyrimidin-5-ylmethanol

> <STRUCTURE_SMILES>
OC(c1ccccc1Cl)(c2cncnc2)c3ccc(Cl)cc3

> <STRUCTURE_SMILES_Desalt>
OC(c1ccccc1Cl)(c2cncnc2)c3ccc(Cl)cc3

> <Substance_modify_yyyymmdd>
20080429

$$$$
