602-41-5
ChemmineR-0915142007XD

 39 42  0  0  1  0  0  0  0  0  1 V2000
    6.0193   -6.3791    0.0000 C   0  0  0  0  0  0  0  0  0  0  0  0
    6.6005   -5.1752    0.0000 C   0  0  0  0  0  0  0  0  0  0  0  0
    6.6005   -7.5691    0.0000 C   0  0  0  0  0  0  0  0  0  0  0  0
    7.9012   -4.8708    0.0000 C   0  0  0  0  0  0  0  0  0  0  0  0
    7.9012   -7.8735    0.0000 C   0  0  0  0  0  0  0  0  0  0  0  0
    8.9390   -7.0433    0.0000 C   0  0  0  0  0  0  0  0  0  0  0  0
    8.9390   -5.7010    0.0000 C   0  0  0  0  0  0  0  0  0  0  0  0
    8.2056   -9.1604    0.0000 N   0  0  0  0  0  0  0  0  0  0  0  0
    9.9768   -7.8735    0.0000 C   0  0  0  0  0  0  0  0  0  0  0  0
   11.2776   -7.5691    0.0000 C   0  0  0  0  0  0  0  0  0  0  0  0
    9.9768   -4.8708    0.0000 C   0  0  0  0  0  0  0  0  0  0  0  0
   11.2776   -5.1752    0.0000 C   0  0  0  0  0  0  0  0  0  0  0  0
   11.8449   -6.3791    0.0000 C   0  0  0  0  0  0  0  0  0  0  0  0
   12.1078   -8.6069    0.0000 O   0  0  0  0  0  0  0  0  0  0  0  0
   13.1871   -6.3791    0.0000 S   0  0  0  0  0  0  0  0  0  0  0  0
   13.8375   -5.2306    0.0000 C   0  0  0  0  0  0  0  0  0  0  0  0
    9.4648   -9.5479    0.0000 C   0  0  0  0  0  0  0  0  0  0  0  0
    9.7554  -10.8486    0.0000 C   0  0  0  0  0  0  0  0  0  0  0  0
   10.4473   -8.6484    0.0000 O   0  0  0  0  0  0  0  0  0  0  0  0
    5.7010   -4.2066    0.0000 C   0  0  0  0  0  0  0  0  0  0  0  0
    6.0885   -2.9335    0.0000 C   0  0  0  0  0  0  0  0  0  0  0  0
    8.3025   -3.6116    0.0000 C   0  0  0  0  0  0  0  0  0  0  0  0
    7.3892   -2.6291    0.0000 C   0  0  0  0  0  0  0  0  0  0  0  0
    9.5894   -3.3210    0.0000 O   0  0  0  0  0  0  0  0  0  0  0  0
    9.9768   -2.0341    0.0000 C   0  0  0  0  0  0  0  0  0  0  0  0
    7.7905   -1.3699    0.0000 O   0  0  0  0  0  0  0  0  0  0  0  0
    6.8772   -0.3874    0.0000 C   0  0  0  0  0  0  0  0  0  0  0  0
    5.1891   -1.9649    0.0000 O   0  0  0  0  0  0  0  0  0  0  0  0
    3.8883   -2.2417    0.0000 C   0  0  0  0  0  0  0  0  0  0  0  0
    3.4870   -3.5286    0.0000 O   0  0  0  0  0  0  0  0  0  0  0  0
    2.9751   -1.2730    0.0000 C   0  0  0  0  0  0  0  0  0  0  0  0
    2.2002   -3.8191    0.0000 C   0  0  0  0  0  0  0  0  0  0  0  0
    1.7020   -1.5775    0.0000 C   0  0  0  0  0  0  0  0  0  0  0  0
    1.3007   -2.8367    0.0000 C   0  0  0  0  0  0  0  0  0  0  0  0
    3.3763    0.0000    0.0000 O   0  0  0  0  0  0  0  0  0  0  0  0
    0.7887   -0.5950    0.0000 O   0  0  0  0  0  0  0  0  0  0  0  0
    0.0000   -3.1411    0.0000 O   0  0  0  0  0  0  0  0  0  0  0  0
    1.8127   -5.0784    0.0000 C   0  0  0  0  0  0  0  0  0  0  0  0
    2.7121   -6.0608    0.0000 O   0  0  0  0  0  0  0  0  0  0  0  0
  1  2  1  0  0  0  0
  1  3  1  0  0  0  0
  2 20  1  0  0  0  0
  2  4  2  0  0  0  0
  3  5  1  0  0  0  0
  4  7  1  0  0  0  0
  4 22  1  0  0  0  0
  5  6  1  0  0  0  0
  5  8  1  1  0  0  0
  6  9  2  0  0  0  0
  6  7  1  0  0  0  0
  7 11  2  0  0  0  0
  8 17  1  0  0  0  0
  9 10  1  0  0  0  0
 10 13  1  0  0  0  0
 10 14  2  0  0  0  0
 11 12  1  0  0  0  0
 12 13  2  0  0  0  0
 13 15  1  0  0  0  0
 15 16  1  0  0  0  0
 17 18  1  0  0  0  0
 17 19  2  0  0  0  0
 20 21  2  0  0  0  0
 21 23  1  0  0  0  0
 21 28  1  0  0  0  0
 22 23  2  0  0  0  0
 22 24  1  0  0  0  0
 23 26  1  0  0  0  0
 24 25  1  0  0  0  0
 26 27  1  0  0  0  0
 29 28  1  6  0  0  0
 29 30  1  0  0  0  0
 29 31  1  0  0  0  0
 30 32  1  0  0  0  0
 31 33  1  0  0  0  0
 31 35  1  1  0  0  0
 32 34  1  0  0  0  0
 32 38  1  6  0  0  0
 33 34  1  0  0  0  0
 33 36  1  6  0  0  0
 34 37  1  1  0  0  0
 38 39  1  0  0  0  0
M  END
> <ID>
10877

> <Formula>
C27H33NO10S

> <FW>
563.6166

> <DSSTox_CID>
25330

> <DSSTox_RID>
80807

> <DSSTox_GSID>
45330

> <DSSTox_FileID_Sort>
5488

> <TS_ChemName>
Thiocolchicoside

> <TS_ChemName_Synonyms>


> <TS_CASRN>
602-41-5

> <CASRN_ChemName_Relationship>
primary

> <TS_Description>
single chemical compound

> <ChemNote>
stereochem

> <STRUCTURE_Shown>
tested chemical

> <STRUCTURE_Formula>
C27H33NO10S

> <STRUCTURE_MW>
563.6166

> <STRUCTURE_ChemType>
defined organic

> <STRUCTURE_DefinedOrganicForm>
parent

> <STRUCTURE_IUPAC>
N-[(7S)-3-(beta-D-glucopyranosyloxy)-1,2-dimethoxy-10-(methylsulfanyl)-9-oxo-5,6,7,9-tetrahydrobenzo[a]heptalen-7-yl]acetamide

> <STRUCTURE_SMILES>
CC(=O)N[C@H]3CCc2cc(O[C@@H]1O[C@H](CO)[C@@H](O)[C@H](O)[C@H]1O)c(OC)c(OC)c2C4=CC=C(SC)C(=O)C=C34

> <STRUCTURE_SMILES_Desalt>
CC(=O)N[C@H]3CCc2cc(O[C@@H]1O[C@H](CO)[C@@H](O)[C@H](O)[C@H]1O)c(OC)c(OC)c2C4=CC=C(SC)C(=O)C=C34

> <Substance_modify_yyyymmdd>
20110720

$$$$
