602-01-7
ChemmineR-0915142007XD

 13 13  0  0  0  0  0  0  0  0  2 V2000
    4.5940   -2.6621    0.0000 C   0  0  0  0  0  0  0  0  0  0  0  0
    4.5940   -3.9903    0.0000 C   0  0  0  0  0  0  0  0  0  0  0  0
    3.4441   -4.6457    0.0000 C   0  0  0  0  0  0  0  0  0  0  0  0
    2.2884   -3.9903    0.0000 C   0  0  0  0  0  0  0  0  0  0  0  0
    2.2884   -2.6621    0.0000 C   0  0  0  0  0  0  0  0  0  0  0  0
    3.4441   -1.9894    0.0000 C   0  0  0  0  0  0  0  0  0  0  0  0
    5.7497   -1.9894    0.0000 C   0  0  0  0  0  0  0  0  0  0  0  0
    3.4441   -0.6555    0.0000 N   0  3  0  0  0  0  0  0  0  0  0  0
    2.2884    0.0000    0.0000 O   0  5  0  0  0  0  0  0  0  0  0  0
    4.5940    0.0000    0.0000 O   0  0  0  0  0  0  0  0  0  0  0  0
    1.1384   -1.9894    0.0000 N   0  3  0  0  0  0  0  0  0  0  0  0
    0.0000   -2.6621    0.0000 O   0  5  0  0  0  0  0  0  0  0  0  0
    1.1384   -0.6555    0.0000 O   0  0  0  0  0  0  0  0  0  0  0  0
  1  2  2  0  0  0  0
  1  6  1  0  0  0  0
  1  7  1  0  0  0  0
  2  3  1  0  0  0  0
  3  4  2  0  0  0  0
  4  5  1  0  0  0  0
  5  6  2  0  0  0  0
  5 11  1  0  0  0  0
  6  8  1  0  0  0  0
  8  9  1  0  0  0  0
  8 10  2  0  0  0  0
 11 12  1  0  0  0  0
 11 13  2  0  0  0  0
M  END
> <ID>
5015

> <Formula>
C7H6N2O4

> <FW>
182.1335

> <DSSTox_CID>
7236

> <DSSTox_RID>
78362

> <DSSTox_GSID>
27236

> <DSSTox_FileID_Sort>
3045

> <TS_ChemName>
2,3-Dinitrotoluene

> <TS_ChemName_Synonyms>
Benzene, 1-methyl-2,3-dinitro-

> <TS_CASRN>
602-01-7

> <CASRN_ChemName_Relationship>
primary

> <TS_Description>
single chemical compound

> <ChemNote>


> <STRUCTURE_Shown>
tested chemical

> <STRUCTURE_Formula>
C7H6N2O4

> <STRUCTURE_MW>
182.1335

> <STRUCTURE_ChemType>
defined organic

> <STRUCTURE_DefinedOrganicForm>
parent

> <STRUCTURE_IUPAC>
1-methyl-2,3-dinitrobenzene

> <STRUCTURE_SMILES>
O=[N+]([O-])c1cccc(C)c1[N+]([O-])=O

> <STRUCTURE_SMILES_Desalt>
O=[N+]([O-])c1cccc(C)c1[N+]([O-])=O

> <Substance_modify_yyyymmdd>
20080429

$$$$
