60207-93-4
ChemmineR-0915142007XD

 21 23  0  0  0  0  0  0  0  0  1 V2000
    4.1712   -4.7707    0.0000 N    0  0  0  0  0  0  0  0  0  0  0  0
    5.2435   -5.5475    0.0000 N    0  0  0  0  0  0  0  0  0  0  0  0
    4.8298   -6.8141    0.0000 C    0  0  0  0  0  0  0  0  0  0  0  0
    3.5041   -6.8141    0.0000 N    0  0  0  0  0  0  0  0  0  0  0  0
    3.0904   -5.5475    0.0000 C    0  0  0  0  0  0  0  0  0  0  0  0
    4.1712   -3.4366    0.0000 C    0  0  0  0  0  0  0  0  0  0  0  0
    6.1048   -3.8419    0.0000 O    0  0  0  0  0  0  0  0  0  0  0  0
    5.3280   -2.7695    0.0000 C    0  0  0  0  0  0  0  0  0  0  0  0
    6.1048   -1.6972    0.0000 O    0  0  0  0  0  0  0  0  0  0  0  0
    7.3713   -2.0940    0.0000 C    0  0  0  0  0  0  0  0  0  0  0  0
    7.3713   -3.4366    0.0000 C    0  0  0  0  0  0  0  0  0  0  0  0
    3.9939   -2.7695    0.0000 C    0  0  0  0  0  0  0  0  0  0  0  0
    3.3268   -1.6127    0.0000 C    0  0  0  0  0  0  0  0  0  0  0  0
    3.3268   -3.9179    0.0000 C    0  0  0  0  0  0  0  0  0  0  0  0
    2.0012   -1.6127    0.0000 C    0  0  0  0  0  0  0  0  0  0  0  0
    2.0012   -3.9179    0.0000 C    0  0  0  0  0  0  0  0  0  0  0  0
    1.3257   -2.7695    0.0000 C    0  0  0  0  0  0  0  0  0  0  0  0
    3.9939   -0.4644    0.0000 Cl   0  0  0  0  0  0  0  0  0  0  0  0
    0.0000   -2.7695    0.0000 Cl   0  0  0  0  0  0  0  0  0  0  0  0
    8.4437   -1.3257    0.0000 C    0  0  0  0  0  0  0  0  0  0  0  0
    8.3002    0.0000    0.0000 C    0  0  0  0  0  0  0  0  0  0  0  0
  1  2  1  0  0  0  0
  1  5  1  0  0  0  0
  1  6  1  0  0  0  0
  2  3  2  0  0  0  0
  3  4  1  0  0  0  0
  4  5  2  0  0  0  0
  6  8  1  0  0  0  0
  7  8  1  0  0  0  0
  7 11  1  0  0  0  0
  8  9  1  0  0  0  0
  8 12  1  0  0  0  0
  9 10  1  0  0  0  0
 10 11  1  0  0  0  0
 10 20  1  0  0  0  0
 12 13  2  0  0  0  0
 12 14  1  0  0  0  0
 13 15  1  0  0  0  0
 13 18  1  0  0  0  0
 14 16  2  0  0  0  0
 15 17  2  0  0  0  0
 16 17  1  0  0  0  0
 17 19  1  0  0  0  0
 20 21  1  0  0  0  0
M  END
> <ID>
8859

> <Formula>
C14H15Cl2N3O2

> <FW>
328.1938

> <DSSTox_CID>
21913

> <DSSTox_RID>
79874

> <DSSTox_GSID>
41913

> <DSSTox_FileID_Sort>
4556

> <TS_ChemName>
Etaconazole

> <TS_ChemName_Synonyms>


> <TS_CASRN>
60207-93-4

> <CASRN_ChemName_Relationship>
primary

> <TS_Description>
single chemical compound

> <ChemNote>


> <STRUCTURE_Shown>
tested chemical

> <STRUCTURE_Formula>
C14H15Cl2N3O2

> <STRUCTURE_MW>
328.1938

> <STRUCTURE_ChemType>
defined organic

> <STRUCTURE_DefinedOrganicForm>
parent

> <STRUCTURE_IUPAC>
1-{[2-(2,4-dichlorophenyl)-4-ethyl-1,3-dioxolan-2-yl]methyl}-1H-1,2,4-triazole

> <STRUCTURE_SMILES>
Clc1ccc(c(Cl)c1)C3(Cn2ncnc2)OCC(CC)O3

> <STRUCTURE_SMILES_Desalt>
Clc1ccc(c(Cl)c1)C3(Cn2ncnc2)OCC(CC)O3

> <Substance_modify_yyyymmdd>
20080825

$$$$
