60200-06-8
ChemmineR-0915142007XD

 20 20  0  0  0  0  0  0  0  0  1 V2000
    7.2997   -3.4600    0.0000 S    0  0  0  0  0  0  0  0  0  0  0  0
    3.3220   -1.1735    0.0000 S    0  0  0  0  0  0  0  0  0  0  0  0
    3.3220   -3.4600    0.0000 C    0  0  0  0  0  0  0  0  0  0  0  0
    5.9796   -3.4600    0.0000 C    0  0  0  0  0  0  0  0  0  0  0  0
    3.9777   -2.3124    0.0000 C    0  0  0  0  0  0  0  0  0  0  0  0
    2.0018   -3.4600    0.0000 C    0  0  0  0  0  0  0  0  0  0  0  0
    5.3065   -2.3124    0.0000 C    0  0  0  0  0  0  0  0  0  0  0  0
    3.9777   -4.6163    0.0000 C    0  0  0  0  0  0  0  0  0  0  0  0
    5.3065   -4.6163    0.0000 C    0  0  0  0  0  0  0  0  0  0  0  0
    1.3288   -4.6163    0.0000 C    0  0  0  0  0  0  0  0  0  0  0  0
    7.2997   -2.1312    0.0000 O    0  0  0  0  0  0  0  0  0  0  0  0
    7.2997   -4.7975    0.0000 O    0  0  0  0  0  0  0  0  0  0  0  0
    4.4609   -0.4918    0.0000 O    0  0  0  0  0  0  0  0  0  0  0  0
    2.1658   -1.8120    0.0000 O    0  0  0  0  0  0  0  0  0  0  0  0
    8.6285   -3.4600    0.0000 N    0  0  0  0  0  0  0  0  0  0  0  0
    2.6490    0.0000    0.0000 N    0  0  0  0  0  0  0  0  0  0  0  0
    1.3288   -2.3124    0.0000 Cl   0  0  0  0  0  0  0  0  0  0  0  0
    2.0018   -5.7725    0.0000 Cl   0  0  0  0  0  0  0  0  0  0  0  0
    0.0000   -4.6163    0.0000 Cl   0  0  0  0  0  0  0  0  0  0  0  0
    5.9796   -5.7725    0.0000 N    0  0  0  0  0  0  0  0  0  0  0  0
  1  4  1  0  0  0  0
  1 11  2  0  0  0  0
  1 12  2  0  0  0  0
  1 15  1  0  0  0  0
  2  5  1  0  0  0  0
  2 13  2  0  0  0  0
  2 14  2  0  0  0  0
  2 16  1  0  0  0  0
  3  8  2  0  0  0  0
  3  6  1  0  0  0  0
  3  5  1  0  0  0  0
  4  7  1  0  0  0  0
  4  9  2  0  0  0  0
  5  7  2  0  0  0  0
  6 10  2  0  0  0  0
  6 17  1  0  0  0  0
  8  9  1  0  0  0  0
  9 20  1  0  0  0  0
 10 18  1  0  0  0  0
 10 19  1  0  0  0  0
M  END
> <ID>
10978

> <Formula>
C8H8Cl3N3O4S2

> <FW>
380.6558

> <DSSTox_CID>
25488

> <DSSTox_RID>
80910

> <DSSTox_GSID>
45488

> <DSSTox_FileID_Sort>
5591

> <TS_ChemName>
Clorsulon

> <TS_ChemName_Synonyms>


> <TS_CASRN>
60200-06-8

> <CASRN_ChemName_Relationship>
primary

> <TS_Description>
single chemical compound

> <ChemNote>


> <STRUCTURE_Shown>
tested chemical

> <STRUCTURE_Formula>
C8H8Cl3N3O4S2

> <STRUCTURE_MW>
380.6558

> <STRUCTURE_ChemType>
defined organic

> <STRUCTURE_DefinedOrganicForm>
parent

> <STRUCTURE_IUPAC>
4-amino-6-(trichloroethenyl)benzene-1,3-disulfonamide

> <STRUCTURE_SMILES>
Nc1cc(c(cc1S(=O)(N)=O)S(N)(=O)=O)C(/Cl)=C(/Cl)Cl

> <STRUCTURE_SMILES_Desalt>
Nc1cc(c(cc1S(=O)(N)=O)S(N)(=O)=O)C(/Cl)=C(/Cl)Cl

> <Substance_modify_yyyymmdd>
20100107

$$$$
