60207-31-0
ChemmineR-0915142007XD

 19 21  0  0  0  0  0  0  0  0  1 V2000
    2.0525   -2.6783    0.0000 C    0  0  0  0  0  0  0  0  0  0  0  0
    1.2517   -3.7349    0.0000 O    0  0  0  0  0  0  0  0  0  0  0  0
    1.2517   -1.5882    0.0000 O    0  0  0  0  0  0  0  0  0  0  0  0
    0.0000   -1.9852    0.0000 C    0  0  0  0  0  0  0  0  0  0  0  0
    0.0000   -3.3176    0.0000 C    0  0  0  0  0  0  0  0  0  0  0  0
    3.2032   -2.0188    0.0000 C    0  0  0  0  0  0  0  0  0  0  0  0
    3.1898   -3.3513    0.0000 C    0  0  0  0  0  0  0  0  0  0  0  0
    5.5115   -0.6864    0.0000 C    0  0  0  0  0  0  0  0  0  0  0  0
    5.5115   -2.0188    0.0000 C    0  0  0  0  0  0  0  0  0  0  0  0
    4.3607   -0.0336    0.0000 C    0  0  0  0  0  0  0  0  0  0  0  0
    4.3607   -2.6918    0.0000 C    0  0  0  0  0  0  0  0  0  0  0  0
    3.2032   -0.6864    0.0000 C    0  0  0  0  0  0  0  0  0  0  0  0
    2.0660   -0.0336    0.0000 Cl   0  0  0  0  0  0  0  0  0  0  0  0
    6.6622    0.0000    0.0000 Cl   0  0  0  0  0  0  0  0  0  0  0  0
    3.1696   -4.6770    0.0000 N    0  0  0  0  0  0  0  0  0  0  0  0
    4.2463   -5.4643    0.0000 N    0  0  0  0  0  0  0  0  0  0  0  0
    2.0861   -5.4509    0.0000 C    0  0  0  0  0  0  0  0  0  0  0  0
    3.8156   -6.7295    0.0000 C    0  0  0  0  0  0  0  0  0  0  0  0
    2.4832   -6.7295    0.0000 N    0  0  0  0  0  0  0  0  0  0  0  0
  1  2  1  0  0  0  0
  1  3  1  0  0  0  0
  1  6  1  0  0  0  0
  1  7  1  0  0  0  0
  2  5  1  0  0  0  0
  3  4  1  0  0  0  0
  4  5  1  0  0  0  0
  6 11  1  0  0  0  0
  6 12  2  0  0  0  0
  7 15  1  0  0  0  0
  8  9  1  0  0  0  0
  8 10  2  0  0  0  0
  8 14  1  0  0  0  0
  9 11  2  0  0  0  0
 10 12  1  0  0  0  0
 12 13  1  0  0  0  0
 15 16  1  0  0  0  0
 15 17  1  0  0  0  0
 16 18  2  0  0  0  0
 17 19  2  0  0  0  0
 18 19  1  0  0  0  0
M  END
> <ID>
8573

> <Formula>
C12H11Cl2N3O2

> <FW>
300.1406

> <DSSTox_CID>
21613

> <DSSTox_RID>
79786

> <DSSTox_GSID>
41613

> <DSSTox_FileID_Sort>
4468

> <TS_ChemName>
Azaconazole

> <TS_ChemName_Synonyms>


> <TS_CASRN>
60207-31-0

> <CASRN_ChemName_Relationship>
primary

> <TS_Description>
single chemical compound

> <ChemNote>


> <STRUCTURE_Shown>
tested chemical

> <STRUCTURE_Formula>
C12H11Cl2N3O2

> <STRUCTURE_MW>
300.1406

> <STRUCTURE_ChemType>
defined organic

> <STRUCTURE_DefinedOrganicForm>
parent

> <STRUCTURE_IUPAC>
1-{[2-(2,4-dichlorophenyl)-1,3-dioxolan-2-yl]methyl}-1H-1,2,4-triazole

> <STRUCTURE_SMILES>
Clc1cc(Cl)c(cc1)C2(OCCO2)Cn3cncn3

> <STRUCTURE_SMILES_Desalt>
Clc1cc(Cl)c(cc1)C2(OCCO2)Cn3cncn3

> <Substance_modify_yyyymmdd>
20080825

$$$$
