60282-87-3
ChemmineR-0915142007XD

 27 30  0  0  1  0  0  0  0  0  1 V2000
    6.9451   -1.9719    0.0000 C   0  0  0  0  0  0  0  0  0  0  0  0
    6.9451   -3.3154    0.0000 C   0  0  0  0  0  0  0  0  0  0  0  0
    3.4888   -5.2874    0.0000 C   0  0  0  0  0  0  0  0  0  0  0  0
    5.7749   -3.9547    0.0000 C   0  0  0  0  0  0  0  0  0  0  0  0
    4.6373   -3.2938    0.0000 C   0  0  0  0  0  0  0  0  0  0  0  0
    8.2019   -1.5710    0.0000 C   0  0  0  0  0  0  0  0  0  0  0  0
    3.4888   -3.9438    0.0000 C   0  0  0  0  0  0  0  0  0  0  0  0
    8.2019   -3.7163    0.0000 C   0  0  0  0  0  0  0  0  0  0  0  0
    2.3186   -5.9591    0.0000 C   0  0  0  0  0  0  0  0  0  0  0  0
    8.9712   -2.6437    0.0000 C   0  0  0  0  0  0  0  0  0  0  0  0
    9.5021   -1.5710    0.0000 C   0  0  0  0  0  0  0  0  0  0  0  0
    5.7749   -1.3110    0.0000 C   0  0  0  0  0  0  0  0  0  0  0  0
    4.6373   -1.9719    0.0000 C   0  0  0  0  0  0  0  0  0  0  0  0
    5.7749   -5.2874    0.0000 C   0  0  0  0  0  0  0  0  0  0  0  0
   10.8348   -1.5710    0.0000 C   0  0  0  0  0  0  0  0  0  0  0  0
    2.3186   -3.2938    0.0000 C   0  0  0  0  0  0  0  0  0  0  0  0
    4.6373   -5.9591    0.0000 C   0  0  0  0  0  0  0  0  0  0  0  0
    1.1810   -5.2874    0.0000 C   0  0  0  0  0  0  0  0  0  0  0  0
    0.0000   -5.9591    0.0000 O   0  0  0  0  0  0  0  0  0  0  0  0
    1.1810   -3.9547    0.0000 C   0  0  0  0  0  0  0  0  0  0  0  0
    8.2019   -0.2167    0.0000 O   0  0  0  0  0  0  0  0  0  0  0  0
    6.9451   -0.6393    0.0000 C   0  0  0  0  0  0  0  0  0  0  0  0
    5.7749    0.0000    0.0000 C   0  0  0  0  0  0  0  0  0  0  0  0
    3.4888   -2.6112    0.0000 H   0  0  0  0  0  0  0  0  0  0  0  0
    5.7749   -2.6220    0.0000 H   0  0  0  0  0  0  0  0  0  0  0  0
    4.6373   -4.6264    0.0000 H   0  0  0  0  0  0  0  0  0  0  0  0
    6.9451   -4.6481    0.0000 H   0  0  0  0  0  0  0  0  0  0  0  0
  1  2  1  0  0  0  0
  1  6  1  0  0  0  0
  1 12  1  0  0  0  0
  1 22  1  1  0  0  0
  2  4  1  0  0  0  0
  2  8  1  0  0  0  0
  2 27  1  6  0  0  0
  3  7  1  0  0  0  0
  3  9  2  0  0  0  0
  3 17  1  0  0  0  0
  4 14  1  0  0  0  0
  4  5  1  0  0  0  0
  4 25  1  1  0  0  0
  5 13  1  0  0  0  0
  5  7  1  0  0  0  0
  5 26  1  6  0  0  0
  6 10  1  0  0  0  0
  6 11  1  6  0  0  0
  6 21  1  1  0  0  0
  7 16  1  0  0  0  0
  7 24  1  1  0  0  0
  8 10  2  0  0  0  0
  9 18  1  0  0  0  0
 11 15  3  0  0  0  0
 12 13  1  0  0  0  0
 14 17  1  0  0  0  0
 16 20  1  0  0  0  0
 18 20  1  0  0  0  0
 18 19  2  0  0  0  0
 22 23  1  0  0  0  0
M  END
> <ID>
11715

> <Formula>
C21H26O2

> <FW>
310.4299

> <DSSTox_CID>
26478

> <DSSTox_RID>
81649

> <DSSTox_GSID>
46478

> <DSSTox_FileID_Sort>
6330

> <TS_ChemName>
Gestodene

> <TS_ChemName_Synonyms>


> <TS_CASRN>
60282-87-3

> <CASRN_ChemName_Relationship>
primary

> <TS_Description>
single chemical compound

> <ChemNote>
stereochem

> <STRUCTURE_Shown>
tested chemical

> <STRUCTURE_Formula>
C21H26O2

> <STRUCTURE_MW>
310.4299

> <STRUCTURE_ChemType>
defined organic

> <STRUCTURE_DefinedOrganicForm>
parent

> <STRUCTURE_IUPAC>
(8R,9S,10R,13S,14S,17R)-13-ethyl-17-ethynyl-17-hydroxy-1,2,6,7,8,9,10,11,12,13,14,17-dodecahydro-3H-cyclopenta[a]phenanthren-3-one

> <STRUCTURE_SMILES>
O=C4CC[C@H]3C(CC[C@@H]2[C@@H]3CC[C@@]1(CC)[C@H]2C=C[C@@]1(O)C#C)=C4

> <STRUCTURE_SMILES_Desalt>
O=C4CC[C@H]3C(CC[C@@H]2[C@@H]3CC[C@@]1(CC)[C@H]2C=C[C@@]1(O)C#C)=C4

> <Substance_modify_yyyymmdd>
20110812

$$$$
