603-83-8
ChemmineR-0915142007XD

 11 11  0  0  0  0  0  0  0  0  2 V2000
    0.6752   -2.2956    0.0000 N   0  3  0  0  0  0  0  0  0  0  0  0
    0.0000   -1.1362    0.0000 O   0  0  0  0  0  0  0  0  0  0  0  0
    0.0000   -3.4504    0.0000 O   0  5  0  0  0  0  0  0  0  0  0  0
    2.0069   -2.2956    0.0000 C   0  0  0  0  0  0  0  0  0  0  0  0
    2.6635   -3.4504    0.0000 C   0  0  0  0  0  0  0  0  0  0  0  0
    3.9999   -3.4504    0.0000 C   0  0  0  0  0  0  0  0  0  0  0  0
    4.6564   -2.2956    0.0000 C   0  0  0  0  0  0  0  0  0  0  0  0
    3.9999   -1.1362    0.0000 C   0  0  0  0  0  0  0  0  0  0  0  0
    4.6564    0.0000    0.0000 N   0  0  0  0  0  0  0  0  0  0  0  0
    2.6635   -1.1362    0.0000 C   0  0  0  0  0  0  0  0  0  0  0  0
    2.0069    0.0000    0.0000 C   0  0  0  0  0  0  0  0  0  0  0  0
  1  2  2  0  0  0  0
  1  3  1  0  0  0  0
  1  4  1  0  0  0  0
  4  5  2  0  0  0  0
  4 10  1  0  0  0  0
  5  6  1  0  0  0  0
  6  7  2  0  0  0  0
  7  8  1  0  0  0  0
  8  9  1  0  0  0  0
  8 10  2  0  0  0  0
 10 11  1  0  0  0  0
M  END
> <ID>
4306

> <Formula>
C7H8N2O2

> <FW>
152.1506

> <DSSTox_CID>
5628

> <DSSTox_RID>
77857

> <DSSTox_GSID>
25628

> <DSSTox_FileID_Sort>
2540

> <TS_ChemName>
2-Methyl-3-nitroaniline

> <TS_ChemName_Synonyms>


> <TS_CASRN>
603-83-8

> <CASRN_ChemName_Relationship>
primary

> <TS_Description>
single chemical compound

> <ChemNote>


> <STRUCTURE_Shown>
tested chemical

> <STRUCTURE_Formula>
C7H8N2O2

> <STRUCTURE_MW>
152.1506

> <STRUCTURE_ChemType>
defined organic

> <STRUCTURE_DefinedOrganicForm>
parent

> <STRUCTURE_IUPAC>
2-methyl-3-nitroaniline

> <STRUCTURE_SMILES>
Cc1c(cccc1N)[N+]([O-])=O

> <STRUCTURE_SMILES_Desalt>
Cc1c(cccc1N)[N+]([O-])=O

> <Substance_modify_yyyymmdd>
20080429

$$$$
