603-33-8
ChemmineR-0915142007XD

 19 21  0  0  0  0  0  0  0  0  1 V2000
    6.9004   -0.6693    0.0000 C    0  0  0  0  0  0  0  0  0  0  0  0
    6.9004   -2.0011    0.0000 C    0  0  0  0  0  0  0  0  0  0  0  0
    5.7480    0.0000    0.0000 C    0  0  0  0  0  0  0  0  0  0  0  0
    5.7480   -2.6705    0.0000 C    0  0  0  0  0  0  0  0  0  0  0  0
    4.5957   -0.6693    0.0000 C    0  0  0  0  0  0  0  0  0  0  0  0
    4.5957   -2.0011    0.0000 C    0  0  0  0  0  0  0  0  0  0  0  0
    4.5957   -4.6578    0.0000 C    0  0  0  0  0  0  0  0  0  0  0  0
    4.5957   -5.9895    0.0000 C    0  0  0  0  0  0  0  0  0  0  0  0
    3.4571   -4.0022    0.0000 C    0  0  0  0  0  0  0  0  0  0  0  0
    3.4571   -6.6589    0.0000 C    0  0  0  0  0  0  0  0  0  0  0  0
    2.3047   -4.6578    0.0000 C    0  0  0  0  0  0  0  0  0  0  0  0
    2.3047   -5.9895    0.0000 C    0  0  0  0  0  0  0  0  0  0  0  0
    2.3047   -0.6693    0.0000 C    0  0  0  0  0  0  0  0  0  0  0  0
    2.3047   -2.0011    0.0000 C    0  0  0  0  0  0  0  0  0  0  0  0
    1.1524    0.0000    0.0000 C    0  0  0  0  0  0  0  0  0  0  0  0
    1.1524   -2.6705    0.0000 C    0  0  0  0  0  0  0  0  0  0  0  0
    0.0000   -0.6693    0.0000 C    0  0  0  0  0  0  0  0  0  0  0  0
    0.0000   -2.0011    0.0000 C    0  0  0  0  0  0  0  0  0  0  0  0
    3.4571   -2.6567    0.0000 Bi   0  0  0  0  0  0  0  0  0  0  0  0
  1  2  1  0  0  0  0
  1  3  2  0  0  0  0
  2  4  2  0  0  0  0
  3  5  1  0  0  0  0
  4  6  1  0  0  0  0
  5  6  2  0  0  0  0
  6 19  1  0  0  0  0
  7  8  1  0  0  0  0
  7  9  2  0  0  0  0
  8 10  2  0  0  0  0
  9 11  1  0  0  0  0
  9 19  1  0  0  0  0
 10 12  1  0  0  0  0
 11 12  2  0  0  0  0
 13 14  1  0  0  0  0
 13 15  2  0  0  0  0
 14 16  2  0  0  0  0
 14 19  1  0  0  0  0
 15 17  1  0  0  0  0
 16 18  1  0  0  0  0
 17 18  2  0  0  0  0
M  END
> <ID>
9404

> <Formula>
C18H15Bi

> <FW>
440.2921

> <DSSTox_CID>
22498

> <DSSTox_RID>
80039

> <DSSTox_GSID>
42498

> <DSSTox_FileID_Sort>
4721

> <TS_ChemName>
Triphenylbismuth

> <TS_ChemName_Synonyms>


> <TS_CASRN>
603-33-8

> <CASRN_ChemName_Relationship>
primary

> <TS_Description>
single chemical compound

> <ChemNote>


> <STRUCTURE_Shown>
tested chemical

> <STRUCTURE_Formula>
C18H15Bi

> <STRUCTURE_MW>
440.2921

> <STRUCTURE_ChemType>
organometallic

> <STRUCTURE_DefinedOrganicForm>


> <STRUCTURE_IUPAC>
triphenylbismuthane

> <STRUCTURE_SMILES>
c1ccccc1[Bi](c2ccccc2)c3ccccc3

> <STRUCTURE_SMILES_Desalt>
c1ccccc1[Bi](c2ccccc2)c3ccccc3

> <Substance_modify_yyyymmdd>
20080825

$$$$
