60325-46-4
ChemmineR-0915142007XD

 32 33  0  0  1  0  0  0  0  0  1 V2000
   12.1145   -3.7387    0.0000 S   0  0  0  0  0  0  0  0  0  0  0  0
   10.9651   -4.4125    0.0000 N   0  0  0  0  0  0  0  0  0  0  0  0
    0.7398   -6.1563    0.0000 C   0  0  0  0  0  0  0  0  0  0  0  0
    1.9816   -4.4917    0.0000 C   0  0  0  0  0  0  0  0  0  0  0  0
    3.0914   -3.8180    0.0000 C   0  0  0  0  0  0  0  0  0  0  0  0
    0.0000   -5.1523    0.0000 C   0  0  0  0  0  0  0  0  0  0  0  0
    1.9816   -5.7600    0.0000 C   0  0  0  0  0  0  0  0  0  0  0  0
    0.7398   -4.0954    0.0000 C   0  0  0  0  0  0  0  0  0  0  0  0
   10.9651   -5.7071    0.0000 C   0  0  0  0  0  0  0  0  0  0  0  0
    4.2143   -4.4917    0.0000 C   0  0  0  0  0  0  0  0  0  0  0  0
   12.7750   -4.9277    0.0000 O   0  0  0  0  0  0  0  0  0  0  0  0
   11.4539   -2.6422    0.0000 O   0  0  0  0  0  0  0  0  0  0  0  0
    0.3171   -7.3981    0.0000 O   0  0  0  0  0  0  0  0  0  0  0  0
   12.1541   -6.3016    0.0000 O   0  0  0  0  0  0  0  0  0  0  0  0
    4.2143   -5.7600    0.0000 C   0  0  0  0  0  0  0  0  0  0  0  0
    6.4734   -5.7600    0.0000 C   0  0  0  0  0  0  0  0  0  0  0  0
    7.5699   -3.8180    0.0000 O   0  0  0  0  0  0  0  0  0  0  0  0
   13.2110   -3.0385    0.0000 C   0  0  0  0  0  0  0  0  0  0  0  0
    0.3171   -2.8668    0.0000 O   0  0  0  0  0  0  0  0  0  0  0  0
    3.0914   -6.4205    0.0000 C   0  0  0  0  0  0  0  0  0  0  0  0
    5.3637   -3.8180    0.0000 C   0  0  0  0  0  0  0  0  0  0  0  0
    6.4734   -4.4917    0.0000 C   0  0  0  0  0  0  0  0  0  0  0  0
    7.5699   -2.5893    0.0000 C   0  0  0  0  0  0  0  0  0  0  0  0
    5.3637   -2.4969    0.0000 O   0  0  0  0  0  0  0  0  0  0  0  0
    9.8290   -6.4205    0.0000 C   0  0  0  0  0  0  0  0  0  0  0  0
    7.5699   -6.4205    0.0000 C   0  0  0  0  0  0  0  0  0  0  0  0
    8.7192   -1.9288    0.0000 C   0  0  0  0  0  0  0  0  0  0  0  0
    6.4734   -1.9288    0.0000 C   0  0  0  0  0  0  0  0  0  0  0  0
    8.7192   -5.7600    0.0000 C   0  0  0  0  0  0  0  0  0  0  0  0
    6.4734   -0.6077    0.0000 C   0  0  0  0  0  0  0  0  0  0  0  0
    8.7192   -0.6077    0.0000 C   0  0  0  0  0  0  0  0  0  0  0  0
    7.5699    0.0000    0.0000 C   0  0  0  0  0  0  0  0  0  0  0  0
  1  2  1  0  0  0  0
  1 11  2  0  0  0  0
  1 12  2  0  0  0  0
  1 18  1  0  0  0  0
  2  9  1  0  0  0  0
  3  7  1  0  0  0  0
  3  6  1  0  0  0  0
  3 13  2  0  0  0  0
  4  7  1  0  0  0  0
  4  5  1  6  0  0  0
  4  8  1  0  0  0  0
  5 10  2  0  0  0  0
  6  8  1  0  0  0  0
  7 20  1  1  0  0  0
  8 19  1  1  0  0  0
  9 14  2  0  0  0  0
  9 25  1  0  0  0  0
 10 21  1  0  0  0  0
 15 16  2  0  0  0  0
 15 20  1  0  0  0  0
 16 26  1  0  0  0  0
 17 22  1  0  0  0  0
 17 23  1  0  0  0  0
 21 22  1  0  0  0  0
 21 24  1  6  0  0  0
 23 27  2  0  0  0  0
 23 28  1  0  0  0  0
 25 29  1  0  0  0  0
 26 29  1  0  0  0  0
 27 31  1  0  0  0  0
 28 30  2  0  0  0  0
 30 32  1  0  0  0  0
 31 32  2  0  0  0  0
M  END
> <ID>
14013

> <Formula>
C23H31NO7S

> <FW>
465.5597

> <DSSTox_CID>
28955

> <DSSTox_RID>
83220

> <DSSTox_GSID>
49029

> <DSSTox_FileID_Sort>
7896

> <TS_ChemName>
Sulprostone

> <TS_ChemName_Synonyms>


> <TS_CASRN>
60325-46-4

> <CASRN_ChemName_Relationship>
primary

> <TS_Description>
single chemical compound

> <ChemNote>


> <STRUCTURE_Shown>
tested chemical

> <STRUCTURE_Formula>
C23H31NO7S

> <STRUCTURE_MW>
465.5597

> <STRUCTURE_ChemType>
defined organic

> <STRUCTURE_DefinedOrganicForm>
parent

> <STRUCTURE_IUPAC>
(5Z)-7-{(1R,2R,3R)-3-hydroxy-2-[(1E,3S)-3-hydroxy-4-phenoxybut-1-en-1-yl]-5-oxocyclopentyl}-N-(methylsulfonyl)hept-5-enamide

> <STRUCTURE_SMILES>
O[C@@H]2CC(=O)[C@H](C/C=C\CCCC(=O)NS(C)(=O)=O)[C@H]2/C=C/[C@H](O)COc1ccccc1

> <STRUCTURE_SMILES_Desalt>
O[C@@H]2CC(=O)[C@H](C/C=C\CCCC(=O)NS(C)(=O)=O)[C@H]2/C=C/[C@H](O)COc1ccccc1

> <Substance_modify_yyyymmdd>
20111204

$$$$
