60348-60-9
ChemmineR-0915142007XD

 18 19  0  0  0  0  0  0  0  0  1 V2000
    9.2098   -3.9970    0.0000 Br   0  0  0  0  0  0  0  0  0  0  0  0
    4.6049   -3.9970    0.0000 Br   0  0  0  0  0  0  0  0  0  0  0  0
    2.2932   -5.3325    0.0000 Br   0  0  0  0  0  0  0  0  0  0  0  0
    0.0000   -3.9970    0.0000 Br   0  0  0  0  0  0  0  0  0  0  0  0
    8.0586   -2.0077    0.0000 C    0  0  0  0  0  0  0  0  0  0  0  0
    8.0586   -3.3247    0.0000 C    0  0  0  0  0  0  0  0  0  0  0  0
    6.9165   -1.3354    0.0000 C    0  0  0  0  0  0  0  0  0  0  0  0
    6.9165   -3.9970    0.0000 C    0  0  0  0  0  0  0  0  0  0  0  0
    5.7561   -2.0077    0.0000 C    0  0  0  0  0  0  0  0  0  0  0  0
    5.7561   -3.3247    0.0000 C    0  0  0  0  0  0  0  0  0  0  0  0
    3.4537   -2.0077    0.0000 C    0  0  0  0  0  0  0  0  0  0  0  0
    3.4537   -3.3247    0.0000 C    0  0  0  0  0  0  0  0  0  0  0  0
    2.2932   -1.3354    0.0000 C    0  0  0  0  0  0  0  0  0  0  0  0
    2.2932   -3.9970    0.0000 C    0  0  0  0  0  0  0  0  0  0  0  0
    1.1512   -2.0077    0.0000 C    0  0  0  0  0  0  0  0  0  0  0  0
    1.1512   -3.3247    0.0000 C    0  0  0  0  0  0  0  0  0  0  0  0
    4.6049   -1.3354    0.0000 O    0  0  0  0  0  0  0  0  0  0  0  0
    2.2932    0.0000    0.0000 Br   0  0  0  0  0  0  0  0  0  0  0  0
  1  6  1  0  0  0  0
  2 10  1  0  0  0  0
  3 14  1  0  0  0  0
  4 16  1  0  0  0  0
  5  6  1  0  0  0  0
  5  7  2  0  0  0  0
  6  8  2  0  0  0  0
  7  9  1  0  0  0  0
  8 10  1  0  0  0  0
  9 10  2  0  0  0  0
  9 17  1  0  0  0  0
 11 12  1  0  0  0  0
 11 13  2  0  0  0  0
 11 17  1  0  0  0  0
 12 14  2  0  0  0  0
 13 15  1  0  0  0  0
 13 18  1  0  0  0  0
 14 16  1  0  0  0  0
 15 16  2  0  0  0  0
M  END
> <ID>
3580

> <Formula>
C12H5Br5O

> <FW>
564.6875

> <DSSTox_CID>
4246

> <DSSTox_RID>
78834

> <DSSTox_GSID>
30048

> <DSSTox_FileID_Sort>
3516

> <TS_ChemName>
2,2',4,4',5-Pentabromodiphenyl ether

> <TS_ChemName_Synonyms>
PBDE 99

> <TS_CASRN>
60348-60-9

> <CASRN_ChemName_Relationship>
primary

> <TS_Description>
single chemical compound

> <ChemNote>
PBDE 99

> <STRUCTURE_Shown>
tested chemical

> <STRUCTURE_Formula>
C12H5Br5O

> <STRUCTURE_MW>
564.6875

> <STRUCTURE_ChemType>
defined organic

> <STRUCTURE_DefinedOrganicForm>
parent

> <STRUCTURE_IUPAC>
2,4-dibromophenyl 2,4,5-tribromophenyl ether

> <STRUCTURE_SMILES>
Brc2cc(Oc1ccc(Br)cc1Br)c(Br)cc2Br

> <STRUCTURE_SMILES_Desalt>
Brc2cc(Oc1ccc(Br)cc1Br)c(Br)cc2Br

> <Substance_modify_yyyymmdd>
20080429

$$$$
