6035-45-6
ChemmineR-0915142007XD

 40 36  0  0  1  0  0  0  0  0  2 V2000
    4.2633   -2.3028    0.0000 C    0  0  0  0  0  0  0  0  0  0  0  0
    3.6098   -3.4387    0.0000 C    0  0  0  0  0  0  0  0  0  0  0  0
    2.2873   -1.1514    0.0000 N    0  0  0  0  0  0  0  0  0  0  0  0
    3.6098   -1.1514    0.0000 C    0  0  0  0  0  0  0  0  0  0  0  0
    2.2873   -3.4387    0.0000 N    0  0  0  0  0  0  0  0  0  0  0  0
    5.6015   -2.3028    0.0000 N    0  0  0  0  0  0  0  0  0  0  0  0
    1.6182   -2.3028    0.0000 C    0  0  0  0  0  0  0  0  0  0  0  0
    4.2633   -4.6056    0.0000 N    0  0  0  0  0  0  0  0  0  0  0  0
   13.5524   -4.6056    0.0000 C    0  0  0  0  0  0  0  0  0  0  0  0
   14.2371   -5.7571    0.0000 N    0  0  0  0  0  0  0  0  0  0  0  0
    6.2705   -3.4387    0.0000 C    0  0  0  0  0  0  0  0  0  0  0  0
   14.2371   -8.0443    0.0000 C    0  0  0  0  0  0  0  0  0  0  0  0
    6.2705   -1.1514    0.0000 C    0  0  0  0  0  0  0  0  0  0  0  0
   13.5524   -6.8929    0.0000 C    0  0  0  0  0  0  0  0  0  0  0  0
    4.2633    0.0000    0.0000 O    0  0  0  0  0  0  0  0  0  0  0  0
   12.2299   -4.6056    0.0000 C    0  0  0  0  0  0  0  0  0  0  0  0
    5.6015   -4.6056    0.0000 C    0  0  0  0  0  0  0  0  0  0  0  0
   10.2382   -8.0443    0.0000 C    0  0  0  0  0  0  0  0  0  0  0  0
   14.2371   -3.4387    0.0000 O    0  0  0  0  0  0  0  0  0  0  0  0
    7.5775   -3.4387    0.0000 C    0  0  0  0  0  0  0  0  0  0  0  0
    8.2622   -4.6056    0.0000 N    0  0  0  0  0  0  0  0  0  0  0  0
   15.5596   -8.0443    0.0000 O    0  0  0  0  0  0  0  0  0  0  0  0
    0.2801   -2.3028    0.0000 N    0  0  0  0  0  0  0  0  0  0  0  0
    7.5775   -1.1514    0.0000 O    0  0  0  0  0  0  0  0  0  0  0  0
    9.5692   -6.8929    0.0000 O    0  0  0  0  0  0  0  0  0  0  0  0
   12.2299   -6.8929    0.0000 C    0  0  0  0  0  0  0  0  0  0  0  0
   11.5764   -5.7571    0.0000 C    0  0  0  0  0  0  0  0  0  0  0  0
   11.5764   -3.4387    0.0000 C    0  0  0  0  0  0  0  0  0  0  0  0
    9.5692   -4.6056    0.0000 C    0  0  0  0  0  0  0  0  0  0  0  0
   11.5764   -8.0443    0.0000 C    0  0  0  0  0  0  0  0  0  0  0  0
   13.5524   -9.1957    0.0000 O    0  5  0  0  0  0  0  0  0  0  0  0
    9.5692   -9.1957    0.0000 O    0  5  0  0  0  0  0  0  0  0  0  0
   10.2382   -5.7571    0.0000 C    0  0  0  0  0  0  0  0  0  0  0  0
   10.2382   -3.4387    0.0000 C    0  0  0  0  0  0  0  0  0  0  0  0
   10.9851   -9.1957    0.0000 Ca   0  2  0  0  0  0  0  0  0  0  0  0
    4.9791   -8.0599    0.0000 O    0  0  0  0  0  0  0  0  0  0  0  0
    2.4273   -8.1066    0.0000 O    0  0  0  0  0  0  0  0  0  0  0  0
    0.0000   -8.1066    0.0000 O    0  0  0  0  0  0  0  0  0  0  0  0
    4.9791  -10.6117    0.0000 O    0  0  0  0  0  0  0  0  0  0  0  0
    2.5518  -10.5339    0.0000 O    0  0  0  0  0  0  0  0  0  0  0  0
  1  2  2  0  0  0  0
  1  4  1  0  0  0  0
  1  6  1  0  0  0  0
  2  5  1  0  0  0  0
  2  8  1  0  0  0  0
  3  4  1  0  0  0  0
  3  7  2  0  0  0  0
  4 15  2  0  0  0  0
  5  7  1  0  0  0  0
  6 11  1  0  0  0  0
  6 13  1  0  0  0  0
  7 23  1  0  0  0  0
  8 17  1  0  0  0  0
  9 16  1  0  0  0  0
  9 10  1  0  0  0  0
  9 19  2  0  0  0  0
 14 10  1  6  0  0  0
 11 17  1  0  0  0  0
 11 20  1  0  0  0  0
 12 14  1  0  0  0  0
 12 22  2  0  0  0  0
 12 31  1  0  0  0  0
 13 24  2  0  0  0  0
 14 26  1  0  0  0  0
 16 28  1  0  0  0  0
 16 27  2  0  0  0  0
 18 30  1  0  0  0  0
 18 25  2  0  0  0  0
 18 32  1  0  0  0  0
 20 21  1  0  0  0  0
 21 29  1  0  0  0  0
 26 30  1  0  0  0  0
 27 33  1  0  0  0  0
 28 34  2  0  0  0  0
 29 33  2  0  0  0  0
 29 34  1  0  0  0  0
M  END
> <ID>
7231

> <Formula>
C20H31CaN7O12

> <FW>
601.5778 (471.4245+40.0769+18.0153+18.0153+18.0153+18.0153+18.0153)

> <DSSTox_CID>
16999

> <DSSTox_RID>
80961

> <DSSTox_GSID>
36999

> <DSSTox_FileID_Sort>
5642

> <TS_ChemName>
Calcium folinate pentahydrate

> <TS_ChemName_Synonyms>
Folinic acid, calcium salt pentahydrate

> <TS_CASRN>
6035-45-6

> <CASRN_ChemName_Relationship>
primary

> <TS_Description>
single chemical compound

> <ChemNote>
stereochem; tautomers; parent [58-05-9]

> <STRUCTURE_Shown>
tested chemical

> <STRUCTURE_Formula>
C20H31CaN7O12

> <STRUCTURE_MW>
601.5778

> <STRUCTURE_ChemType>
defined organic

> <STRUCTURE_DefinedOrganicForm>
salt complex

> <STRUCTURE_IUPAC>
calcium (2S)-2-[(4-{[(2-amino-5-formyl-4-oxo-1,4,5,6,7,8-hexahydropteridin-6-yl)methyl]amino}benzoyl)amino]pentanedioate hydrate (1:1:5)

> <STRUCTURE_SMILES>
[Ca+2].O.O.O.O.O.[O-]C(=O)[C@H](CCC([O-])=O)NC(=O)c1ccc(cc1)NCC3CNC=2NC(N)=NC(=O)C=2N3C=O

> <STRUCTURE_SMILES_Desalt>
O=C(O)[C@H](CCC(=O)O)NC(=O)c1ccc(cc1)NCC3CNC=2NC(N)=NC(=O)C=2N3C=O

> <Substance_modify_yyyymmdd>
20120516

$$$$
