605-32-3
ChemmineR-0915142007XD

 17 19  0  0  0  0  0  0  0  0  1 V2000
    0.0000   -3.3293    0.0000 C   0  0  0  0  0  0  0  0  0  0  0  0
    0.0000   -1.9992    0.0000 C   0  0  0  0  0  0  0  0  0  0  0  0
    1.1528   -3.9904    0.0000 C   0  0  0  0  0  0  0  0  0  0  0  0
    1.1528   -1.3301    0.0000 C   0  0  0  0  0  0  0  0  0  0  0  0
    6.9086   -3.3293    0.0000 C   0  0  0  0  0  0  0  0  0  0  0  0
    5.7558   -3.9904    0.0000 C   0  0  0  0  0  0  0  0  0  0  0  0
    5.7558   -1.3301    0.0000 C   0  0  0  0  0  0  0  0  0  0  0  0
    6.9086   -1.9992    0.0000 C   0  0  0  0  0  0  0  0  0  0  0  0
    2.3055   -3.3293    0.0000 C   0  0  0  0  0  0  0  0  0  0  0  0
    2.3055   -1.9992    0.0000 C   0  0  0  0  0  0  0  0  0  0  0  0
    4.6030   -3.3293    0.0000 C   0  0  0  0  0  0  0  0  0  0  0  0
    4.6030   -1.9992    0.0000 C   0  0  0  0  0  0  0  0  0  0  0  0
    3.4583   -3.9904    0.0000 C   0  0  0  0  0  0  0  0  0  0  0  0
    3.4583   -1.3301    0.0000 C   0  0  0  0  0  0  0  0  0  0  0  0
    8.0613   -1.3301    0.0000 O   0  0  0  0  0  0  0  0  0  0  0  0
    3.4583   -5.3205    0.0000 O   0  0  0  0  0  0  0  0  0  0  0  0
    3.4583    0.0000    0.0000 O   0  0  0  0  0  0  0  0  0  0  0  0
  1  2  2  0  0  0  0
  1  3  1  0  0  0  0
  2  4  1  0  0  0  0
  3  9  2  0  0  0  0
  4 10  2  0  0  0  0
  5  6  2  0  0  0  0
  5  8  1  0  0  0  0
  6 11  1  0  0  0  0
  7  8  2  0  0  0  0
  7 12  1  0  0  0  0
  8 15  1  0  0  0  0
  9 10  1  0  0  0  0
  9 13  1  0  0  0  0
 10 14  1  0  0  0  0
 11 12  2  0  0  0  0
 11 13  1  0  0  0  0
 12 14  1  0  0  0  0
 13 16  2  0  0  0  0
 14 17  2  0  0  0  0
M  END
> <ID>
14191

> <Formula>
C14H8O3

> <FW>
224.2115

> <DSSTox_CID>
29283

> <DSSTox_RID>
83402

> <DSSTox_GSID>
49327

> <DSSTox_FileID_Sort>
8077

> <TS_ChemName>
2-Hydroxyanthraquinone

> <TS_ChemName_Synonyms>


> <TS_CASRN>
605-32-3

> <CASRN_ChemName_Relationship>
primary

> <TS_Description>
single chemical compound

> <ChemNote>


> <STRUCTURE_Shown>
tested chemical

> <STRUCTURE_Formula>
C14H8O3

> <STRUCTURE_MW>
224.2115

> <STRUCTURE_ChemType>
defined organic

> <STRUCTURE_DefinedOrganicForm>
parent

> <STRUCTURE_IUPAC>
2-hydroxyanthracene-9,10-dione

> <STRUCTURE_SMILES>
Oc2ccc3C(=O)c1ccccc1C(=O)c3c2

> <STRUCTURE_SMILES_Desalt>
Oc2ccc3C(=O)c1ccccc1C(=O)c3c2

> <Substance_modify_yyyymmdd>
20111204

$$$$
