605-91-4
ChemmineR-0915142007XD

 28 30  0  0  0  0  0  0  0  0  2 V2000
    5.8869   -1.8852    0.0000 I   0  5  0  0  0  0  0  0  0  0  0  0
    9.2641   -3.9786    0.0000 C   0  0  0  0  0  0  0  0  0  0  0  0
    9.2641   -2.6485    0.0000 C   0  0  0  0  0  0  0  0  0  0  0  0
   10.4091   -4.6494    0.0000 C   0  0  0  0  0  0  0  0  0  0  0  0
   10.4091   -1.9893    0.0000 C   0  0  0  0  0  0  0  0  0  0  0  0
   11.5657   -3.9786    0.0000 C   0  0  0  0  0  0  0  0  0  0  0  0
   11.5657   -2.6485    0.0000 C   0  0  0  0  0  0  0  0  0  0  0  0
    8.1075   -1.9893    0.0000 N   0  3  0  0  0  0  0  0  0  0  0  0
    8.1075   -0.6708    0.0000 C   0  0  0  0  0  0  0  0  0  0  0  0
   10.4091   -0.6708    0.0000 C   0  0  0  0  0  0  0  0  0  0  0  0
    9.2641    0.0000    0.0000 C   0  0  0  0  0  0  0  0  0  0  0  0
    6.9394   -2.6948    0.0000 C   0  0  0  0  0  0  0  0  0  0  0  0
    6.9394   -4.0249    0.0000 C   0  0  0  0  0  0  0  0  0  0  0  0
    6.8931   -0.0463    0.0000 C   0  0  0  0  0  0  0  0  0  0  0  0
    5.7597   -0.7171    0.0000 C   0  0  0  0  0  0  0  0  0  0  0  0
    4.5916   -0.0810    0.0000 C   0  0  0  0  0  0  0  0  0  0  0  0
    3.4581   -0.7633    0.0000 C   0  0  0  0  0  0  0  0  0  0  0  0
    2.3016   -2.7295    0.0000 C   0  0  0  0  0  0  0  0  0  0  0  0
    1.1566   -2.0703    0.0000 C   0  0  0  0  0  0  0  0  0  0  0  0
    3.4581   -2.0934    0.0000 N   0  0  0  0  0  0  0  0  0  0  0  0
    1.1566   -0.7518    0.0000 C   0  0  0  0  0  0  0  0  0  0  0  0
    2.3016   -0.0810    0.0000 C   0  0  0  0  0  0  0  0  0  0  0  0
    2.3016   -4.0596    0.0000 C   0  0  0  0  0  0  0  0  0  0  0  0
    1.1566   -4.7304    0.0000 C   0  0  0  0  0  0  0  0  0  0  0  0
    0.0000   -2.7411    0.0000 C   0  0  0  0  0  0  0  0  0  0  0  0
    0.0000   -4.0711    0.0000 C   0  0  0  0  0  0  0  0  0  0  0  0
    4.6031   -2.7411    0.0000 C   0  0  0  0  0  0  0  0  0  0  0  0
    4.6031   -4.0711    0.0000 C   0  0  0  0  0  0  0  0  0  0  0  0
  2  3  1  0  0  0  0
  2  4  2  0  0  0  0
  3  8  1  0  0  0  0
  3  5  2  0  0  0  0
  4  6  1  0  0  0  0
  5  7  1  0  0  0  0
  5 10  1  0  0  0  0
  6  7  2  0  0  0  0
  8  9  2  0  0  0  0
  8 12  1  0  0  0  0
  9 11  1  0  0  0  0
  9 14  1  0  0  0  0
 10 11  2  0  0  0  0
 12 13  1  0  0  0  0
 14 15  2  3  0  0  0
 15 16  1  0  0  0  0
 16 17  2  3  0  0  0
 17 20  1  0  0  0  0
 17 22  1  0  0  0  0
 18 20  1  0  0  0  0
 18 23  1  0  0  0  0
 18 19  2  0  0  0  0
 19 21  1  0  0  0  0
 19 25  1  0  0  0  0
 20 27  1  0  0  0  0
 21 22  2  0  0  0  0
 23 24  2  0  0  0  0
 24 26  1  0  0  0  0
 25 26  2  0  0  0  0
 27 28  1  0  0  0  0
M  END
> <ID>
11801

> <Formula>
C25H25IN2

> <FW>
480.3839 (126.9050+353.4789)

> <DSSTox_CID>
26576

> <DSSTox_RID>
81735

> <DSSTox_GSID>
46576

> <DSSTox_FileID_Sort>
6416

> <TS_ChemName>
Carbocyanine

> <TS_ChemName_Synonyms>


> <TS_CASRN>
605-91-4

> <CASRN_ChemName_Relationship>
primary

> <TS_Description>
mixture of Z,E isomers

> <ChemNote>
mixture of Z,E isomers; ammonium; parent [20187-38-6]

> <STRUCTURE_Shown>
representative isomer in mixture

> <STRUCTURE_Formula>
C25H25IN2

> <STRUCTURE_MW>
480.3839

> <STRUCTURE_ChemType>
defined organic

> <STRUCTURE_DefinedOrganicForm>
salt

> <STRUCTURE_IUPAC>
1-ethyl-2-[3-(1-ethylquinolin-2(1H)-ylidene)prop-1-en-1-yl]quinolinium iodide

> <STRUCTURE_SMILES>
[I-].CC[n+]3c4ccccc4ccc3C=CC=C2C=Cc1ccccc1N2CC

> <STRUCTURE_SMILES_Desalt>
CC[n+]3c4ccccc4ccc3C=CC=C2C=Cc1ccccc1N2CC

> <Substance_modify_yyyymmdd>
20110810

$$$$
