605-71-0
ChemmineR-0915142007XD

 16 17  0  0  0  0  0  0  0  0  2 V2000
    3.4590    0.0000    0.0000 C   0  0  0  0  0  0  0  0  0  0  0  0
    4.6040   -0.6612    0.0000 C   0  0  0  0  0  0  0  0  0  0  0  0
    4.6040   -1.9916    0.0000 C   0  0  0  0  0  0  0  0  0  0  0  0
    5.7570   -2.6608    0.0000 C   0  0  0  0  0  0  0  0  0  0  0  0
    6.9100   -1.9916    0.0000 N   0  3  0  0  0  0  0  0  0  0  0  0
    8.0630   -2.6608    0.0000 O   0  5  0  0  0  0  0  0  0  0  0  0
    6.9100   -0.6612    0.0000 O   0  0  0  0  0  0  0  0  0  0  0  0
    5.7570   -3.9912    0.0000 C   0  0  0  0  0  0  0  0  0  0  0  0
    4.6040   -4.6524    0.0000 C   0  0  0  0  0  0  0  0  0  0  0  0
    3.4590   -3.9912    0.0000 C   0  0  0  0  0  0  0  0  0  0  0  0
    3.4590   -2.6608    0.0000 C   0  0  0  0  0  0  0  0  0  0  0  0
    2.3060   -1.9916    0.0000 C   0  0  0  0  0  0  0  0  0  0  0  0
    1.1530   -2.6608    0.0000 N   0  3  0  0  0  0  0  0  0  0  0  0
    0.0000   -1.9916    0.0000 O   0  0  0  0  0  0  0  0  0  0  0  0
    1.1530   -3.9912    0.0000 O   0  5  0  0  0  0  0  0  0  0  0  0
    2.3060   -0.6612    0.0000 C   0  0  0  0  0  0  0  0  0  0  0  0
  1  2  2  0  0  0  0
  1 16  1  0  0  0  0
  2  3  1  0  0  0  0
  3  4  2  0  0  0  0
  3 11  1  0  0  0  0
  4  5  1  0  0  0  0
  4  8  1  0  0  0  0
  5  6  1  0  0  0  0
  5  7  2  0  0  0  0
  8  9  2  0  0  0  0
  9 10  1  0  0  0  0
 10 11  2  0  0  0  0
 11 12  1  0  0  0  0
 12 13  1  0  0  0  0
 12 16  2  0  0  0  0
 13 14  2  0  0  0  0
 13 15  1  0  0  0  0
M  END
> <ID>
4056

> <Formula>
C10H6N2O4

> <FW>
218.1656

> <DSSTox_CID>
5165

> <DSSTox_RID>
77693

> <DSSTox_GSID>
25165

> <DSSTox_FileID_Sort>
2376

> <TS_ChemName>
1,5-Dinitronaphthalene

> <TS_ChemName_Synonyms>


> <TS_CASRN>
605-71-0

> <CASRN_ChemName_Relationship>
primary

> <TS_Description>
single chemical compound

> <ChemNote>


> <STRUCTURE_Shown>
tested chemical

> <STRUCTURE_Formula>
C10H6N2O4

> <STRUCTURE_MW>
218.1656

> <STRUCTURE_ChemType>
defined organic

> <STRUCTURE_DefinedOrganicForm>
parent

> <STRUCTURE_IUPAC>
1,5-dinitronaphthalene

> <STRUCTURE_SMILES>
[O-][N+](=O)c2cccc1c2cccc1[N+]([O-])=O

> <STRUCTURE_SMILES_Desalt>
[O-][N+](=O)c2cccc1c2cccc1[N+]([O-])=O

> <Substance_modify_yyyymmdd>
20080429

$$$$
