605-45-8
ChemmineR-0915142007XD

 18 18  0  0  0  0  0  0  0  0  1 V2000
    2.3007   -1.9967    0.0000 C   0  0  0  0  0  0  0  0  0  0  0  0
    2.3007   -3.3232    0.0000 C   0  0  0  0  0  0  0  0  0  0  0  0
    1.1538   -1.3334    0.0000 C   0  0  0  0  0  0  0  0  0  0  0  0
    1.1538   -3.9934    0.0000 C   0  0  0  0  0  0  0  0  0  0  0  0
    0.0000   -1.9967    0.0000 C   0  0  0  0  0  0  0  0  0  0  0  0
    0.0000   -3.3232    0.0000 C   0  0  0  0  0  0  0  0  0  0  0  0
    3.4545   -1.3334    0.0000 C   0  0  0  0  0  0  0  0  0  0  0  0
    4.6083   -1.9967    0.0000 O   0  0  0  0  0  0  0  0  0  0  0  0
    3.4545    0.0000    0.0000 O   0  0  0  0  0  0  0  0  0  0  0  0
    3.4545   -3.9934    0.0000 C   0  0  0  0  0  0  0  0  0  0  0  0
    3.4545   -5.3199    0.0000 O   0  0  0  0  0  0  0  0  0  0  0  0
    5.7552   -1.3334    0.0000 C   0  0  0  0  0  0  0  0  0  0  0  0
    6.9090   -1.9967    0.0000 C   0  0  0  0  0  0  0  0  0  0  0  0
    5.7552    0.0000    0.0000 C   0  0  0  0  0  0  0  0  0  0  0  0
    4.6083   -3.3232    0.0000 O   0  0  0  0  0  0  0  0  0  0  0  0
    5.7552   -3.9934    0.0000 C   0  0  0  0  0  0  0  0  0  0  0  0
    6.9090   -3.3232    0.0000 C   0  0  0  0  0  0  0  0  0  0  0  0
    5.7552   -5.3199    0.0000 C   0  0  0  0  0  0  0  0  0  0  0  0
  1  2  1  0  0  0  0
  1  3  2  0  0  0  0
  1  7  1  0  0  0  0
  2  4  2  0  0  0  0
  2 10  1  0  0  0  0
  3  5  1  0  0  0  0
  4  6  1  0  0  0  0
  5  6  2  0  0  0  0
  7  8  1  0  0  0  0
  7  9  2  0  0  0  0
  8 12  1  0  0  0  0
 10 11  2  0  0  0  0
 10 15  1  0  0  0  0
 12 13  1  0  0  0  0
 12 14  1  0  0  0  0
 15 16  1  0  0  0  0
 16 17  1  0  0  0  0
 16 18  1  0  0  0  0
M  END
> <ID>
7926

> <Formula>
C14H18O4

> <FW>
250.2903

> <DSSTox_CID>
20731

> <DSSTox_RID>
79576

> <DSSTox_GSID>
40731

> <DSSTox_FileID_Sort>
4258

> <TS_ChemName>
Diisopropyl phthalate

> <TS_ChemName_Synonyms>


> <TS_CASRN>
605-45-8

> <CASRN_ChemName_Relationship>
primary

> <TS_Description>
single chemical compound

> <ChemNote>


> <STRUCTURE_Shown>
tested chemical

> <STRUCTURE_Formula>
C14H18O4

> <STRUCTURE_MW>
250.2903

> <STRUCTURE_ChemType>
defined organic

> <STRUCTURE_DefinedOrganicForm>
parent

> <STRUCTURE_IUPAC>
dipropan-2-yl benzene-1,2-dicarboxylate

> <STRUCTURE_SMILES>
CC(C)OC(=O)c1ccccc1C(=O)OC(C)C

> <STRUCTURE_SMILES_Desalt>
CC(C)OC(=O)c1ccccc1C(=O)OC(C)C

> <Substance_modify_yyyymmdd>
20080429

$$$$
