60506-81-2
ChemmineR-0915142007XD

 37 36  0  0  0  0  0  0  0  0  1 V2000
    5.7771   -5.7610    0.0000 C   0  0  0  0  0  0  0  0  0  0  0  0
   10.3601   -5.7610    0.0000 C   0  0  0  0  0  0  0  0  0  0  0  0
    8.0686   -5.7610    0.0000 O   0  0  0  0  0  0  0  0  0  0  0  0
    9.2143   -6.4226    0.0000 C   0  0  0  0  0  0  0  0  0  0  0  0
    6.9228   -6.4226    0.0000 C   0  0  0  0  0  0  0  0  0  0  0  0
   11.5219   -5.0993    0.0000 C   0  0  0  0  0  0  0  0  0  0  0  0
   11.0378   -6.9067    0.0000 C   0  0  0  0  0  0  0  0  0  0  0  0
    9.6984   -4.6314    0.0000 C   0  0  0  0  0  0  0  0  0  0  0  0
    5.0993   -6.9067    0.0000 C   0  0  0  0  0  0  0  0  0  0  0  0
    6.4387   -4.6314    0.0000 C   0  0  0  0  0  0  0  0  0  0  0  0
    4.6152   -5.0993    0.0000 C   0  0  0  0  0  0  0  0  0  0  0  0
    5.7771   -8.0524    0.0000 O   0  0  0  0  0  0  0  0  0  0  0  0
   12.6677   -5.7610    0.0000 O   0  0  0  0  0  0  0  0  0  0  0  0
    5.7771   -3.4695    0.0000 O   0  0  0  0  0  0  0  0  0  0  0  0
   10.3601   -8.0524    0.0000 O   0  0  0  0  0  0  0  0  0  0  0  0
    3.4695   -5.7610    0.0000 O   0  0  0  0  0  0  0  0  0  0  0  0
   10.3601   -3.4695    0.0000 O   0  0  0  0  0  0  0  0  0  0  0  0
    5.0993   -9.2143    0.0000 C   0  0  0  0  0  0  0  0  0  0  0  0
    3.7761   -9.2143    0.0000 O   0  0  0  0  0  0  0  0  0  0  0  0
    5.7771  -10.3601    0.0000 C   0  0  0  0  0  0  0  0  0  0  0  0
    5.0993  -11.5219    0.0000 C   0  0  0  0  0  0  0  0  0  0  0  0
   13.8296   -5.0993    0.0000 C   0  0  0  0  0  0  0  0  0  0  0  0
   13.8296   -3.7761    0.0000 O   0  0  0  0  0  0  0  0  0  0  0  0
   14.9753   -5.7610    0.0000 C   0  0  0  0  0  0  0  0  0  0  0  0
   16.1372   -5.0993    0.0000 C   0  0  0  0  0  0  0  0  0  0  0  0
    6.4387   -2.3076    0.0000 C   0  0  0  0  0  0  0  0  0  0  0  0
    7.7620   -2.3076    0.0000 O   0  0  0  0  0  0  0  0  0  0  0  0
    5.7771   -1.1619    0.0000 C   0  0  0  0  0  0  0  0  0  0  0  0
    6.4387    0.0000    0.0000 C   0  0  0  0  0  0  0  0  0  0  0  0
   11.0378   -9.2143    0.0000 C   0  0  0  0  0  0  0  0  0  0  0  0
   12.3611   -9.2143    0.0000 O   0  0  0  0  0  0  0  0  0  0  0  0
   10.3601  -10.3601    0.0000 C   0  0  0  0  0  0  0  0  0  0  0  0
   11.0378  -11.5219    0.0000 C   0  0  0  0  0  0  0  0  0  0  0  0
    2.3076   -5.0993    0.0000 C   0  0  0  0  0  0  0  0  0  0  0  0
    2.3076   -3.7761    0.0000 O   0  0  0  0  0  0  0  0  0  0  0  0
    1.1619   -5.7610    0.0000 C   0  0  0  0  0  0  0  0  0  0  0  0
    0.0000   -5.0993    0.0000 C   0  0  0  0  0  0  0  0  0  0  0  0
  1  5  1  0  0  0  0
  1  9  1  0  0  0  0
  1 10  1  0  0  0  0
  1 11  1  0  0  0  0
  2  4  1  0  0  0  0
  2  6  1  0  0  0  0
  2  7  1  0  0  0  0
  2  8  1  0  0  0  0
  3  5  1  0  0  0  0
  3  4  1  0  0  0  0
  6 13  1  0  0  0  0
  7 15  1  0  0  0  0
  8 17  1  0  0  0  0
  9 12  1  0  0  0  0
 10 14  1  0  0  0  0
 11 16  1  0  0  0  0
 12 18  1  0  0  0  0
 13 22  1  0  0  0  0
 14 26  1  0  0  0  0
 15 30  1  0  0  0  0
 16 34  1  0  0  0  0
 18 19  2  0  0  0  0
 18 20  1  0  0  0  0
 20 21  2  0  0  0  0
 22 23  2  0  0  0  0
 22 24  1  0  0  0  0
 24 25  2  0  0  0  0
 26 27  2  0  0  0  0
 26 28  1  0  0  0  0
 28 29  2  0  0  0  0
 30 31  2  0  0  0  0
 30 32  1  0  0  0  0
 32 33  2  0  0  0  0
 34 35  2  0  0  0  0
 34 36  1  0  0  0  0
 36 37  2  0  0  0  0
M  END
> <ID>
8833

> <Formula>
C25H32O12

> <FW>
524.5144

> <DSSTox_CID>
21887

> <DSSTox_RID>
79867

> <DSSTox_GSID>
41887

> <DSSTox_FileID_Sort>
4549

> <TS_ChemName>
Dipentaerythritol pentaacrylate

> <TS_ChemName_Synonyms>


> <TS_CASRN>
60506-81-2

> <CASRN_ChemName_Relationship>
primary

> <TS_Description>
single chemical compound

> <ChemNote>


> <STRUCTURE_Shown>
tested chemical

> <STRUCTURE_Formula>
C25H32O12

> <STRUCTURE_MW>
524.5144

> <STRUCTURE_ChemType>
defined organic

> <STRUCTURE_DefinedOrganicForm>
parent

> <STRUCTURE_IUPAC>
3-(acryloyloxy)-2-{[3-(acryloyloxy)-2-[(acryloyloxy)methyl]-2-(hydroxymethyl)propoxy]methyl}-2-[(acryloyloxy)methyl]propyl prop-2-enoate

> <STRUCTURE_SMILES>
O=C(OCC(COCC(CO)(COC(=O)C=C)COC(=O)C=C)(COC(=O)C=C)COC(=O)C=C)C=C

> <STRUCTURE_SMILES_Desalt>
O=C(OCC(COCC(CO)(COC(=O)C=C)COC(=O)C=C)(COC(=O)C=C)COC(=O)C=C)C=C

> <Substance_modify_yyyymmdd>
20080825

$$$$
