6051-87-2
ChemmineR-0915142007XD

 21 24  0  0  0  0  0  0  0  0  1 V2000
    4.6170   -1.9998    0.0000 C   0  0  0  0  0  0  0  0  0  0  0  0
    3.4650   -2.6725    0.0000 C   0  0  0  0  0  0  0  0  0  0  0  0
    5.7505   -2.6725    0.0000 C   0  0  0  0  0  0  0  0  0  0  0  0
    5.7505   -3.9995    0.0000 C   0  0  0  0  0  0  0  0  0  0  0  0
    3.4650   -3.9995    0.0000 C   0  0  0  0  0  0  0  0  0  0  0  0
    4.6170   -4.6631    0.0000 O   0  0  0  0  0  0  0  0  0  0  0  0
    2.3039   -1.9998    0.0000 C   0  0  0  0  0  0  0  0  0  0  0  0
    4.6170   -0.6727    0.0000 O   0  0  0  0  0  0  0  0  0  0  0  0
    2.3039   -4.6631    0.0000 C   0  0  0  0  0  0  0  0  0  0  0  0
    6.9117   -4.6631    0.0000 C   0  0  0  0  0  0  0  0  0  0  0  0
    1.1519   -2.6725    0.0000 C   0  0  0  0  0  0  0  0  0  0  0  0
    1.1519   -3.9995    0.0000 C   0  0  0  0  0  0  0  0  0  0  0  0
    2.3039   -0.6727    0.0000 C   0  0  0  0  0  0  0  0  0  0  0  0
    8.0636   -3.9995    0.0000 C   0  0  0  0  0  0  0  0  0  0  0  0
    6.9117   -5.9901    0.0000 C   0  0  0  0  0  0  0  0  0  0  0  0
    0.0000   -1.9998    0.0000 C   0  0  0  0  0  0  0  0  0  0  0  0
    1.1519    0.0000    0.0000 C   0  0  0  0  0  0  0  0  0  0  0  0
    9.2155   -4.6631    0.0000 C   0  0  0  0  0  0  0  0  0  0  0  0
    8.0636   -6.6628    0.0000 C   0  0  0  0  0  0  0  0  0  0  0  0
    0.0000   -0.6727    0.0000 C   0  0  0  0  0  0  0  0  0  0  0  0
    9.2155   -5.9901    0.0000 C   0  0  0  0  0  0  0  0  0  0  0  0
  1  2  1  0  0  0  0
  1  3  1  0  0  0  0
  1  8  2  0  0  0  0
  2  5  2  0  0  0  0
  2  7  1  0  0  0  0
  3  4  2  0  0  0  0
  4  6  1  0  0  0  0
  4 10  1  0  0  0  0
  5  9  1  0  0  0  0
  5  6  1  0  0  0  0
  7 11  2  0  0  0  0
  7 13  1  0  0  0  0
  9 12  2  0  0  0  0
 10 14  2  0  0  0  0
 10 15  1  0  0  0  0
 11 12  1  0  0  0  0
 11 16  1  0  0  0  0
 13 17  2  0  0  0  0
 14 18  1  0  0  0  0
 15 19  2  0  0  0  0
 16 20  2  0  0  0  0
 17 20  1  0  0  0  0
 18 21  2  0  0  0  0
 19 21  1  0  0  0  0
M  END
> <ID>
6270

> <Formula>
C19H12O2

> <FW>
272.2974

> <DSSTox_CID>
10423

> <DSSTox_RID>
78847

> <DSSTox_GSID>
30423

> <DSSTox_FileID_Sort>
3529

> <TS_ChemName>
5,6-Benzoflavone

> <TS_ChemName_Synonyms>
5,6-Benzoflavone (beta-naphthoflavone) (BNF)

> <TS_CASRN>
6051-87-2

> <CASRN_ChemName_Relationship>
primary

> <TS_Description>
single chemical compound

> <ChemNote>


> <STRUCTURE_Shown>
tested chemical

> <STRUCTURE_Formula>
C19H12O2

> <STRUCTURE_MW>
272.2974

> <STRUCTURE_ChemType>
defined organic

> <STRUCTURE_DefinedOrganicForm>
parent

> <STRUCTURE_IUPAC>
3-phenyl-1H-benzo[f]chromen-1-one

> <STRUCTURE_SMILES>
O=C3C=C(Oc2ccc1ccccc1c23)c4ccccc4

> <STRUCTURE_SMILES_Desalt>
O=C3C=C(Oc2ccc1ccccc1c23)c4ccccc4

> <Substance_modify_yyyymmdd>
20080429

$$$$
