6054-98-4
ChemmineR-0915142007XD

 24 23  0  0  0  0  0  0  0  0  2 V2000
    0.1088   -1.1482    0.0000 O    0  0  0  0  0  0  0  0  0  0  0  0
    1.4382   -1.1482    0.0000 C    0  0  0  0  0  0  0  0  0  0  0  0
    2.1150    0.0000    0.0000 C    0  0  0  0  0  0  0  0  0  0  0  0
    3.4445    0.0000    0.0000 C    0  0  0  0  0  0  0  0  0  0  0  0
    4.1092   -1.1482    0.0000 C    0  0  0  0  0  0  0  0  0  0  0  0
    3.4445   -2.2963    0.0000 C    0  0  0  0  0  0  0  0  0  0  0  0
    2.1150   -2.2963    0.0000 C    0  0  0  0  0  0  0  0  0  0  0  0
    1.4382   -3.4566    0.0000 C    0  0  0  0  0  0  0  0  0  0  0  0
    2.1150   -4.6048    0.0000 O    0  5  0  0  0  0  0  0  0  0  0  0
    0.1088   -3.4566    0.0000 O    0  0  0  0  0  0  0  0  0  0  0  0
    5.4387   -1.1482    0.0000 N    0  0  0  0  0  0  0  0  0  0  0  0
    6.7682   -1.1482    0.0000 N    0  0  0  0  0  0  0  0  0  0  0  0
    8.0976   -1.1482    0.0000 C    0  0  0  0  0  0  0  0  0  0  0  0
    8.7623    0.0000    0.0000 C    0  0  0  0  0  0  0  0  0  0  0  0
   10.1039    0.0000    0.0000 C    0  0  0  0  0  0  0  0  0  0  0  0
   10.7565   -1.1482    0.0000 C    0  0  0  0  0  0  0  0  0  0  0  0
   12.0860   -1.1482    0.0000 O    0  0  0  0  0  0  0  0  0  0  0  0
   10.1039   -2.2963    0.0000 C    0  0  0  0  0  0  0  0  0  0  0  0
    8.7623   -2.2963    0.0000 C    0  0  0  0  0  0  0  0  0  0  0  0
   10.7565   -3.4566    0.0000 C    0  0  0  0  0  0  0  0  0  0  0  0
   12.0860   -3.4566    0.0000 O    0  5  0  0  0  0  0  0  0  0  0  0
   10.1039   -4.6048    0.0000 O    0  0  0  0  0  0  0  0  0  0  0  0
    0.0000   -4.5564    0.0000 Na   0  3  0  0  0  0  0  0  0  0  0  0
   11.7355   -4.5081    0.0000 Na   0  3  0  0  0  0  0  0  0  0  0  0
  1  2  1  0  0  0  0
  2  3  2  0  0  0  0
  2  7  1  0  0  0  0
  3  4  1  0  0  0  0
  4  5  2  0  0  0  0
  5  6  1  0  0  0  0
  5 11  1  0  0  0  0
  6  7  2  0  0  0  0
  7  8  1  0  0  0  0
  8  9  1  0  0  0  0
  8 10  2  0  0  0  0
 11 12  2  0  0  0  0
 12 13  1  0  0  0  0
 13 14  2  0  0  0  0
 13 19  1  0  0  0  0
 14 15  1  0  0  0  0
 15 16  2  0  0  0  0
 16 17  1  0  0  0  0
 16 18  1  0  0  0  0
 18 19  2  0  0  0  0
 18 20  1  0  0  0  0
 20 21  1  0  0  0  0
 20 22  2  0  0  0  0
M  END
> <ID>
11976

> <Formula>
C14H8N2Na2O6

> <FW>
346.2027 (300.2242+22.9892+22.9892)

> <DSSTox_CID>
26796

> <DSSTox_RID>
81912

> <DSSTox_GSID>
46796

> <DSSTox_FileID_Sort>
6593

> <TS_ChemName>
Olsalazine sodium

> <TS_ChemName_Synonyms>


> <TS_CASRN>
6054-98-4

> <CASRN_ChemName_Relationship>
primary

> <TS_Description>
single chemical compound

> <ChemNote>
parent [15722-48-2]

> <STRUCTURE_Shown>
tested chemical

> <STRUCTURE_Formula>
C14H8N2Na2O6

> <STRUCTURE_MW>
346.2027

> <STRUCTURE_ChemType>
defined organic

> <STRUCTURE_DefinedOrganicForm>
salt

> <STRUCTURE_IUPAC>
disodium 3,3'-diazene-1,2-diylbis(6-hydroxybenzoate)

> <STRUCTURE_SMILES>
[Na+].[Na+].O=C([O-])c1cc(ccc1O)/N=N/c2cc(C([O-])=O)c(O)cc2

> <STRUCTURE_SMILES_Desalt>
OC(=O)c1cc(ccc1O)/N=N/c2cc(C(=O)O)c(O)cc2

> <Substance_modify_yyyymmdd>
20110802

$$$$
