6055-19-2
ChemmineR-0915142007XD

 15 14  0  0  0  0  0  0  0  0  1 V2000
    4.7709   -0.9084    0.0000 O    0  0  0  0  0  0  0  0  0  0  0  0
    4.5421   -2.2221    0.0000 P    0  0  0  0  0  0  0  0  0  0  0  0
    5.8688   -2.2221    0.0000 O    0  0  0  0  0  0  0  0  0  0  0  0
    6.5354   -3.3723    0.0000 C    0  0  0  0  0  0  0  0  0  0  0  0
    5.8688   -4.5225    0.0000 C    0  0  0  0  0  0  0  0  0  0  0  0
    4.5421   -4.5225    0.0000 C    0  0  0  0  0  0  0  0  0  0  0  0
    3.8755   -3.3723    0.0000 N    0  0  0  0  0  0  0  0  0  0  0  0
    3.2873   -1.7646    0.0000 N    0  0  0  0  0  0  0  0  0  0  0  0
    2.2678   -2.6207    0.0000 C    0  0  0  0  0  0  0  0  0  0  0  0
    1.0195   -2.1632    0.0000 C    0  0  0  0  0  0  0  0  0  0  0  0
    0.0000   -3.0194    0.0000 Cl   0  0  0  0  0  0  0  0  0  0  0  0
    3.0586   -0.4575    0.0000 C    0  0  0  0  0  0  0  0  0  0  0  0
    1.8103    0.0000    0.0000 C    0  0  0  0  0  0  0  0  0  0  0  0
    0.7908   -0.8561    0.0000 Cl   0  0  0  0  0  0  0  0  0  0  0  0
    3.3265   -5.8558    0.0000 O    0  0  0  0  0  0  0  0  0  0  0  0
  1  2  2  0  0  0  0
  2  3  1  0  0  0  0
  2  7  1  0  0  0  0
  2  8  1  0  0  0  0
  3  4  1  0  0  0  0
  4  5  1  0  0  0  0
  5  6  1  0  0  0  0
  6  7  1  0  0  0  0
  8  9  1  0  0  0  0
  8 12  1  0  0  0  0
  9 10  1  0  0  0  0
 10 11  1  0  0  0  0
 12 13  1  0  0  0  0
 13 14  1  0  0  0  0
M  END
> <ID>
3901

> <Formula>
C7H17Cl2N2O3P

> <FW>
279.1012 (261.0860+18.0153)

> <DSSTox_CID>
4888

> <DSSTox_RID>
77569

> <DSSTox_GSID>
24888

> <DSSTox_FileID_Sort>
2252

> <TS_ChemName>
Cyclophosphamide monohydrate

> <TS_ChemName_Synonyms>


> <TS_CASRN>
6055-19-2

> <CASRN_ChemName_Relationship>
primary

> <TS_Description>
single chemical compound

> <ChemNote>
parent [50-18-0]

> <STRUCTURE_Shown>
tested chemical

> <STRUCTURE_Formula>
C7H17Cl2N2O3P

> <STRUCTURE_MW>
279.1012

> <STRUCTURE_ChemType>
defined organic

> <STRUCTURE_DefinedOrganicForm>
complex

> <STRUCTURE_IUPAC>
N,N-bis(2-chloroethyl)-1,3,2-oxazaphosphinan-2-amine 2-oxide hydrate (1:1)

> <STRUCTURE_SMILES>
O.O=P1(NCCCO1)N(CCCl)CCCl

> <STRUCTURE_SMILES_Desalt>
O=P1(NCCCO1)N(CCCl)CCCl

> <Substance_modify_yyyymmdd>
20080429

$$$$
