60561-17-3
ChemmineR-0915142007XD

 40 41  0  0  0  0  0  0  0  0  1 V2000
    2.3217   -4.0388    0.0000 N   0  0  0  0  0  0  0  0  0  0  0  0
    3.2770   -3.3616    0.0000 C   0  0  0  0  0  0  0  0  0  0  0  0
    1.0883   -3.3616    0.0000 C   0  0  0  0  0  0  0  0  0  0  0  0
    5.5986   -4.5829    0.0000 N   0  0  0  0  0  0  0  0  0  0  0  0
    9.0812   -5.0545    0.0000 C   0  0  0  0  0  0  0  0  0  0  0  0
   10.1211   -4.3169    0.0000 S   0  0  0  0  0  0  0  0  0  0  0  0
    3.2770   -4.6434    0.0000 C   0  0  0  0  0  0  0  0  0  0  0  0
    4.3652   -2.5998    0.0000 C   0  0  0  0  0  0  0  0  0  0  0  0
   11.1973   -5.0545    0.0000 C   0  0  0  0  0  0  0  0  0  0  0  0
    9.4923   -6.3604    0.0000 C   0  0  0  0  0  0  0  0  0  0  0  0
    0.0000   -4.0992    0.0000 O   0  0  0  0  0  0  0  0  0  0  0  0
    2.3217   -5.4052    0.0000 C   0  0  0  0  0  0  0  0  0  0  0  0
    7.9929   -4.4499    0.0000 C   0  0  0  0  0  0  0  0  0  0  0  0
   10.7862   -6.3604    0.0000 C   0  0  0  0  0  0  0  0  0  0  0  0
    5.5986   -3.2165    0.0000 C   0  0  0  0  0  0  0  0  0  0  0  0
    4.4983   -5.3326    0.0000 C   0  0  0  0  0  0  0  0  0  0  0  0
    6.8320   -5.2722    0.0000 C   0  0  0  0  0  0  0  0  0  0  0  0
    3.2770   -2.0557    0.0000 C   0  0  0  0  0  0  0  0  0  0  0  0
    1.0883   -1.9952    0.0000 C   0  0  0  0  0  0  0  0  0  0  0  0
    4.3652   -1.3664    0.0000 O   0  0  0  0  0  0  0  0  0  0  0  0
    1.1487   -6.0944    0.0000 C   0  0  0  0  0  0  0  0  0  0  0  0
    3.4704   -6.0098    0.0000 C   0  0  0  0  0  0  0  0  0  0  0  0
    4.3652    0.0000    0.0000 C   0  0  0  0  0  0  0  0  0  0  0  0
    2.0436   -1.3059    0.0000 C   0  0  0  0  0  0  0  0  0  0  0  0
    1.1487   -7.4608    0.0000 C   0  0  0  0  0  0  0  0  0  0  0  0
    3.4704   -7.3762    0.0000 C   0  0  0  0  0  0  0  0  0  0  0  0
    2.3217   -8.0775    0.0000 C   0  0  0  0  0  0  0  0  0  0  0  0
    6.2153  -10.0364    0.0000 C   0  0  0  0  0  0  0  0  0  0  0  0
    7.5817  -10.0364    0.0000 C   0  0  0  0  0  0  0  0  0  0  0  0
    4.9094  -10.0364    0.0000 C   0  0  0  0  0  0  0  0  0  0  0  0
    6.2153  -11.4029    0.0000 C   0  0  0  0  0  0  0  0  0  0  0  0
    5.1271  -12.0921    0.0000 O   0  0  0  0  0  0  0  0  0  0  0  0
    4.2322   -8.9482    0.0000 C   0  0  0  0  0  0  0  0  0  0  0  0
    2.9384   -8.9482    0.0000 O   0  0  0  0  0  0  0  0  0  0  0  0
    4.9094   -7.7752    0.0000 O   0  0  0  0  0  0  0  0  0  0  0  0
    8.1984   -8.8756    0.0000 C   0  0  0  0  0  0  0  0  0  0  0  0
    7.5817   -7.7148    0.0000 O   0  0  0  0  0  0  0  0  0  0  0  0
    9.5769   -8.8756    0.0000 O   0  0  0  0  0  0  0  0  0  0  0  0
    6.2758   -8.7305    0.0000 O   0  0  0  0  0  0  0  0  0  0  0  0
    7.3762  -12.0921    0.0000 O   0  0  0  0  0  0  0  0  0  0  0  0
  1  2  1  0  0  0  0
  1  3  1  0  0  0  0
  1 12  1  0  0  0  0
  2  7  1  0  0  0  0
  2  8  1  0  0  0  0
  2 18  1  0  0  0  0
  3 11  2  0  0  0  0
  3 19  1  0  0  0  0
  4 15  1  0  0  0  0
  4 17  1  0  0  0  0
  4 16  1  0  0  0  0
  5 13  1  0  0  0  0
  5  6  1  0  0  0  0
  5 10  2  0  0  0  0
  6  9  1  0  0  0  0
  7 16  1  0  0  0  0
  8 15  1  0  0  0  0
  9 14  2  0  0  0  0
 10 14  1  0  0  0  0
 12 21  1  0  0  0  0
 12 22  2  0  0  0  0
 13 17  1  0  0  0  0
 18 20  1  0  0  0  0
 19 24  1  0  0  0  0
 20 23  1  0  0  0  0
 21 25  2  0  0  0  0
 22 26  1  0  0  0  0
 25 27  1  0  0  0  0
 26 27  2  0  0  0  0
 28 31  1  0  0  0  0
 28 30  1  0  0  0  0
 28 39  1  0  0  0  0
 28 29  1  0  0  0  0
 29 36  1  0  0  0  0
 30 33  1  0  0  0  0
 31 32  1  0  0  0  0
 31 40  2  0  0  0  0
 33 34  1  0  0  0  0
 33 35  2  0  0  0  0
 36 37  2  0  0  0  0
 36 38  1  0  0  0  0
M  END
> <ID>
13917

> <Formula>
C28H38N2O9S

> <FW>
578.6743 (386.5508+192.1235)

> <DSSTox_CID>
28854

> <DSSTox_RID>
83123

> <DSSTox_GSID>
48928

> <DSSTox_FileID_Sort>
7800

> <TS_ChemName>
Sufentanil citrate

> <TS_ChemName_Synonyms>


> <TS_CASRN>
60561-17-3

> <CASRN_ChemName_Relationship>
primary

> <TS_Description>
single chemical compound

> <ChemNote>


> <STRUCTURE_Shown>
tested chemical

> <STRUCTURE_Formula>
C28H38N2O9S

> <STRUCTURE_MW>
578.6743

> <STRUCTURE_ChemType>
defined organic

> <STRUCTURE_DefinedOrganicForm>
complex

> <STRUCTURE_IUPAC>
N-{4-(methoxymethyl)-1-[2-(thiophen-2-yl)ethyl]piperidin-4-yl}-N-phenylpropanamide 2-hydroxypropane-1,2,3-tricarboxylate (1:1)

> <STRUCTURE_SMILES>
O=C(O)C(O)(CC(=O)O)CC(=O)O.CCC(=O)N(c1ccccc1)C2(COC)CCN(CC2)CCc3cccs3

> <STRUCTURE_SMILES_Desalt>
CCC(=O)N(c1ccccc1)C2(COC)CCN(CC2)CCc3cccs3

> <Substance_modify_yyyymmdd>
20111204

$$$$
