606-45-1
ChemmineR-0915142007XD

 12 12  0  0  0  0  0  0  0  0  1 V2000
    3.4619   -4.0043    0.0000 C   0  0  0  0  0  0  0  0  0  0  0  0
    3.4619   -5.3371    0.0000 O   0  0  0  0  0  0  0  0  0  0  0  0
    2.3079   -3.3350    0.0000 C   0  0  0  0  0  0  0  0  0  0  0  0
    4.6159   -3.3523    0.0000 O   0  0  0  0  0  0  0  0  0  0  0  0
    2.3079   -2.0021    0.0000 C   0  0  0  0  0  0  0  0  0  0  0  0
    1.1540   -4.0043    0.0000 C   0  0  0  0  0  0  0  0  0  0  0  0
    1.1540   -1.3444    0.0000 C   0  0  0  0  0  0  0  0  0  0  0  0
    0.0000   -3.3350    0.0000 C   0  0  0  0  0  0  0  0  0  0  0  0
    0.0000   -2.0021    0.0000 C   0  0  0  0  0  0  0  0  0  0  0  0
    3.4446   -1.3328    0.0000 O   0  0  0  0  0  0  0  0  0  0  0  0
    3.4619    0.0000    0.0000 C   0  0  0  0  0  0  0  0  0  0  0  0
    5.7699   -4.0043    0.0000 C   0  0  0  0  0  0  0  0  0  0  0  0
  1  2  2  0  0  0  0
  1  3  1  0  0  0  0
  1  4  1  0  0  0  0
  3  5  2  0  0  0  0
  3  6  1  0  0  0  0
  4 12  1  0  0  0  0
  5  7  1  0  0  0  0
  5 10  1  0  0  0  0
  6  8  2  0  0  0  0
  7  9  2  0  0  0  0
  8  9  1  0  0  0  0
 10 11  1  0  0  0  0
M  END
> <ID>
12238

> <Formula>
C9H10O3

> <FW>
166.1739

> <DSSTox_CID>
27087

> <DSSTox_RID>
82099

> <DSSTox_GSID>
47087

> <DSSTox_FileID_Sort>
6780

> <TS_ChemName>
Methyl 2-methoxybenzoate

> <TS_ChemName_Synonyms>


> <TS_CASRN>
606-45-1

> <CASRN_ChemName_Relationship>
primary

> <TS_Description>
single chemical compound

> <ChemNote>


> <STRUCTURE_Shown>
tested chemical

> <STRUCTURE_Formula>
C9H10O3

> <STRUCTURE_MW>
166.1739

> <STRUCTURE_ChemType>
defined organic

> <STRUCTURE_DefinedOrganicForm>
parent

> <STRUCTURE_IUPAC>
methyl 2-methoxybenzoate

> <STRUCTURE_SMILES>
COc1ccccc1C(=O)OC

> <STRUCTURE_SMILES_Desalt>
COc1ccccc1C(=O)OC

> <Substance_modify_yyyymmdd>
20100429

$$$$
