606-17-7
ChemmineR-0915142007XD

 34 35  0  0  0  0  0  0  0  0  1 V2000
    1.1525   -5.3135    0.0000 C   0  0  0  0  0  0  0  0  0  0  0  0
    0.0000   -5.9870    0.0000 I   0  0  0  0  0  0  0  0  0  0  0  0
    1.1525   -3.9963    0.0000 C   0  0  0  0  0  0  0  0  0  0  0  0
    2.3050   -3.3228    0.0000 C   0  0  0  0  0  0  0  0  0  0  0  0
    2.3050   -1.9907    0.0000 I   0  0  0  0  0  0  0  0  0  0  0  0
    3.4575   -3.9963    0.0000 C   0  0  0  0  0  0  0  0  0  0  0  0
    4.6100   -3.3228    0.0000 N   0  0  0  0  0  0  0  0  0  0  0  0
    4.6100   -1.9907    0.0000 C   0  0  0  0  0  0  0  0  0  0  0  0
    3.4575   -1.3321    0.0000 O   0  0  0  0  0  0  0  0  0  0  0  0
    5.7625   -1.3321    0.0000 C   0  0  0  0  0  0  0  0  0  0  0  0
    6.9150   -1.9907    0.0000 C   0  0  0  0  0  0  0  0  0  0  0  0
    8.0525   -1.3321    0.0000 C   0  0  0  0  0  0  0  0  0  0  0  0
    9.2050   -1.9907    0.0000 C   0  0  0  0  0  0  0  0  0  0  0  0
   10.3575   -1.3321    0.0000 C   0  0  0  0  0  0  0  0  0  0  0  0
   10.3575    0.0000    0.0000 O   0  0  0  0  0  0  0  0  0  0  0  0
   11.5100   -1.9907    0.0000 N   0  0  0  0  0  0  0  0  0  0  0  0
   11.5100   -3.3228    0.0000 C   0  0  0  0  0  0  0  0  0  0  0  0
   12.6625   -3.9963    0.0000 C   0  0  0  0  0  0  0  0  0  0  0  0
   13.8150   -3.3228    0.0000 I   0  0  0  0  0  0  0  0  0  0  0  0
   12.6625   -5.3135    0.0000 C   0  0  0  0  0  0  0  0  0  0  0  0
   13.8150   -5.9870    0.0000 C   0  0  0  0  0  0  0  0  0  0  0  0
   13.8150   -7.3191    0.0000 O   0  0  0  0  0  0  0  0  0  0  0  0
   14.9675   -5.3135    0.0000 O   0  0  0  0  0  0  0  0  0  0  0  0
   11.5100   -5.9870    0.0000 C   0  0  0  0  0  0  0  0  0  0  0  0
   11.5100   -7.3191    0.0000 I   0  0  0  0  0  0  0  0  0  0  0  0
   10.3575   -5.3135    0.0000 C   0  0  0  0  0  0  0  0  0  0  0  0
   10.3575   -3.9963    0.0000 C   0  0  0  0  0  0  0  0  0  0  0  0
    9.2050   -3.3228    0.0000 I   0  0  0  0  0  0  0  0  0  0  0  0
    3.4575   -5.3135    0.0000 C   0  0  0  0  0  0  0  0  0  0  0  0
    4.6100   -5.9870    0.0000 I   0  0  0  0  0  0  0  0  0  0  0  0
    2.3050   -5.9870    0.0000 C   0  0  0  0  0  0  0  0  0  0  0  0
    2.3050   -7.3191    0.0000 C   0  0  0  0  0  0  0  0  0  0  0  0
    3.4575   -7.9777    0.0000 O   0  0  0  0  0  0  0  0  0  0  0  0
    1.1525   -7.9777    0.0000 O   0  0  0  0  0  0  0  0  0  0  0  0
  1  2  1  0  0  0  0
  1  3  2  0  0  0  0
  1 31  1  0  0  0  0
  3  4  1  0  0  0  0
  4  5  1  0  0  0  0
  4  6  2  0  0  0  0
  6  7  1  0  0  0  0
  6 29  1  0  0  0  0
  7  8  1  0  0  0  0
  8  9  2  0  0  0  0
  8 10  1  0  0  0  0
 10 11  1  0  0  0  0
 11 12  1  0  0  0  0
 12 13  1  0  0  0  0
 13 14  1  0  0  0  0
 14 15  2  0  0  0  0
 14 16  1  0  0  0  0
 16 17  1  0  0  0  0
 17 18  2  0  0  0  0
 17 27  1  0  0  0  0
 18 19  1  0  0  0  0
 18 20  1  0  0  0  0
 20 21  1  0  0  0  0
 20 24  2  0  0  0  0
 21 22  2  0  0  0  0
 21 23  1  0  0  0  0
 24 25  1  0  0  0  0
 24 26  1  0  0  0  0
 26 27  2  0  0  0  0
 27 28  1  0  0  0  0
 29 30  1  0  0  0  0
 29 31  2  0  0  0  0
 31 32  1  0  0  0  0
 32 33  1  0  0  0  0
 32 34  2  0  0  0  0
M  END
> <ID>
2830

> <Formula>
C20H14I6N2O6

> <FW>
1139.7618

> <DSSTox_CID>
3153

> <DSSTox_RID>
76893

> <DSSTox_GSID>
23153

> <DSSTox_FileID_Sort>
1577

> <TS_ChemName>
Iodipamide

> <TS_ChemName_Synonyms>


> <TS_CASRN>
606-17-7

> <CASRN_ChemName_Relationship>
primary

> <TS_Description>
single chemical compound

> <ChemNote>


> <STRUCTURE_Shown>
tested chemical

> <STRUCTURE_Formula>
C20H14I6N2O6

> <STRUCTURE_MW>
1139.7618

> <STRUCTURE_ChemType>
defined organic

> <STRUCTURE_DefinedOrganicForm>
parent

> <STRUCTURE_IUPAC>
3,3'-[(1,6-dioxohexane-1,6-diyl)diimino]bis(2,4,6-triiodobenzoic acid)

> <STRUCTURE_SMILES>
O=C(Nc1c(I)c(c(I)cc1I)C(=O)O)CCCCC(=O)Nc2c(I)c(C(=O)O)c(I)cc2I

> <STRUCTURE_SMILES_Desalt>
O=C(Nc1c(I)c(c(I)cc1I)C(=O)O)CCCCC(=O)Nc2c(I)c(C(=O)O)c(I)cc2I

> <Substance_modify_yyyymmdd>
20080429

$$$$
