606-37-1
ChemmineR-0915142007XD

 16 17  0  0  0  0  0  0  0  0  2 V2000
    3.4541   -0.6632    0.0000 N   0  3  0  0  0  0  0  0  0  0  0  0
    4.6078    0.0000    0.0000 O   0  0  0  0  0  0  0  0  0  0  0  0
    2.3004    0.0000    0.0000 O   0  5  0  0  0  0  0  0  0  0  0  0
    3.4541   -1.9965    0.0000 C   0  0  0  0  0  0  0  0  0  0  0  0
    4.6078   -2.6597    0.0000 C   0  0  0  0  0  0  0  0  0  0  0  0
    4.6078   -3.9860    0.0000 C   0  0  0  0  0  0  0  0  0  0  0  0
    3.4541   -4.6561    0.0000 C   0  0  0  0  0  0  0  0  0  0  0  0
    2.3004   -3.9860    0.0000 C   0  0  0  0  0  0  0  0  0  0  0  0
    1.1537   -4.6561    0.0000 C   0  0  0  0  0  0  0  0  0  0  0  0
    0.0000   -3.9860    0.0000 C   0  0  0  0  0  0  0  0  0  0  0  0
    0.0000   -2.6597    0.0000 C   0  0  0  0  0  0  0  0  0  0  0  0
    1.1537   -1.9965    0.0000 C   0  0  0  0  0  0  0  0  0  0  0  0
    2.3004   -2.6597    0.0000 C   0  0  0  0  0  0  0  0  0  0  0  0
    5.7545   -4.6561    0.0000 N   0  3  0  0  0  0  0  0  0  0  0  0
    5.7545   -5.9825    0.0000 O   0  0  0  0  0  0  0  0  0  0  0  0
    6.9082   -3.9860    0.0000 O   0  5  0  0  0  0  0  0  0  0  0  0
  1  2  2  0  0  0  0
  1  3  1  0  0  0  0
  1  4  1  0  0  0  0
  4  5  2  0  0  0  0
  4 13  1  0  0  0  0
  5  6  1  0  0  0  0
  6  7  2  0  0  0  0
  6 14  1  0  0  0  0
  7  8  1  0  0  0  0
  8  9  2  0  0  0  0
  8 13  1  0  0  0  0
  9 10  1  0  0  0  0
 10 11  2  0  0  0  0
 11 12  1  0  0  0  0
 12 13  2  0  0  0  0
 14 15  2  0  0  0  0
 14 16  1  0  0  0  0
M  END
> <ID>
4055

> <Formula>
C10H6N2O4

> <FW>
218.1656

> <DSSTox_CID>
5164

> <DSSTox_RID>
77692

> <DSSTox_GSID>
25164

> <DSSTox_FileID_Sort>
2375

> <TS_ChemName>
1,3-Dinitronaphthalene

> <TS_ChemName_Synonyms>


> <TS_CASRN>
606-37-1

> <CASRN_ChemName_Relationship>
primary

> <TS_Description>
single chemical compound

> <ChemNote>


> <STRUCTURE_Shown>
tested chemical

> <STRUCTURE_Formula>
C10H6N2O4

> <STRUCTURE_MW>
218.1656

> <STRUCTURE_ChemType>
defined organic

> <STRUCTURE_DefinedOrganicForm>
parent

> <STRUCTURE_IUPAC>
1,3-dinitronaphthalene

> <STRUCTURE_SMILES>
[O-][N+](=O)c2cc(cc1ccccc12)[N+]([O-])=O

> <STRUCTURE_SMILES_Desalt>
[O-][N+](=O)c2cc(cc1ccccc12)[N+]([O-])=O

> <Substance_modify_yyyymmdd>
20080429

$$$$
