606-20-2
ChemmineR-0915142007XD

 13 13  0  0  0  0  0  0  0  0  2 V2000
    3.4548   -3.9869    0.0000 C   0  0  0  0  0  0  0  0  0  0  0  0
    3.4548   -2.6602    0.0000 C   0  0  0  0  0  0  0  0  0  0  0  0
    2.3009   -1.9900    0.0000 C   0  0  0  0  0  0  0  0  0  0  0  0
    2.3009   -0.6633    0.0000 C   0  0  0  0  0  0  0  0  0  0  0  0
    3.4548    0.0000    0.0000 C   0  0  0  0  0  0  0  0  0  0  0  0
    4.6088   -0.6633    0.0000 C   0  0  0  0  0  0  0  0  0  0  0  0
    4.6088   -1.9900    0.0000 C   0  0  0  0  0  0  0  0  0  0  0  0
    5.7558   -2.6602    0.0000 N   0  3  0  0  0  0  0  0  0  0  0  0
    5.7558   -3.9869    0.0000 O   0  0  0  0  0  0  0  0  0  0  0  0
    6.9097   -1.9900    0.0000 O   0  5  0  0  0  0  0  0  0  0  0  0
    1.1539   -2.6602    0.0000 N   0  3  0  0  0  0  0  0  0  0  0  0
    1.1539   -3.9869    0.0000 O   0  0  0  0  0  0  0  0  0  0  0  0
    0.0000   -1.9900    0.0000 O   0  5  0  0  0  0  0  0  0  0  0  0
  1  2  1  0  0  0  0
  2  3  2  0  0  0  0
  2  7  1  0  0  0  0
  3  4  1  0  0  0  0
  3 11  1  0  0  0  0
  4  5  2  0  0  0  0
  5  6  1  0  0  0  0
  6  7  2  0  0  0  0
  7  8  1  0  0  0  0
  8  9  2  0  0  0  0
  8 10  1  0  0  0  0
 11 12  2  0  0  0  0
 11 13  1  0  0  0  0
M  END
> <ID>
510

> <Formula>
C7H6N2O4

> <FW>
182.1335

> <DSSTox_CID>
528

> <DSSTox_RID>
75642

> <DSSTox_GSID>
20528

> <DSSTox_FileID_Sort>
326

> <TS_ChemName>
2,6-Dinitrotoluene

> <TS_ChemName_Synonyms>
2,6-Dinitrotoluene (Benzene, 2-methyl-1,3-dinitro-)

> <TS_CASRN>
606-20-2

> <CASRN_ChemName_Relationship>
primary

> <TS_Description>
single chemical compound

> <ChemNote>


> <STRUCTURE_Shown>
tested chemical

> <STRUCTURE_Formula>
C7H6N2O4

> <STRUCTURE_MW>
182.1335

> <STRUCTURE_ChemType>
defined organic

> <STRUCTURE_DefinedOrganicForm>
parent

> <STRUCTURE_IUPAC>
2-methyl-1,3-dinitrobenzene

> <STRUCTURE_SMILES>
Cc1c(cccc1[N+](=O)[O-])[N+]([O-])=O

> <STRUCTURE_SMILES_Desalt>
Cc1c(cccc1[N+](=O)[O-])[N+]([O-])=O

> <Substance_modify_yyyymmdd>
20080429

$$$$
