60607-34-3
ChemmineR-0915142007XD

 32 36  0  0  0  0  0  0  0  0  1 V2000
    4.5241   -1.9615    0.0000 C   0  0  0  0  0  0  0  0  0  0  0  0
    4.5241   -0.6486    0.0000 N   0  0  0  0  0  0  0  0  0  0  0  0
    3.4010   -2.5943    0.0000 N   0  0  0  0  0  0  0  0  0  0  0  0
    2.2621   -0.6486    0.0000 C   0  0  0  0  0  0  0  0  0  0  0  0
    2.2621   -1.9615    0.0000 C   0  0  0  0  0  0  0  0  0  0  0  0
   11.2945   -1.9615    0.0000 N   0  0  0  0  0  0  0  0  0  0  0  0
   12.4176   -2.5943    0.0000 C   0  0  0  0  0  0  0  0  0  0  0  0
    9.0324   -0.6486    0.0000 N   0  0  0  0  0  0  0  0  0  0  0  0
    5.6472   -2.5943    0.0000 O   0  0  0  0  0  0  0  0  0  0  0  0
   11.2945   -0.6486    0.0000 C   0  0  0  0  0  0  0  0  0  0  0  0
   10.1714   -2.5943    0.0000 C   0  0  0  0  0  0  0  0  0  0  0  0
   12.4176   -3.9388    0.0000 C   0  0  0  0  0  0  0  0  0  0  0  0
   13.5566   -1.9615    0.0000 C   0  0  0  0  0  0  0  0  0  0  0  0
    5.6472    0.0000    0.0000 C   0  0  0  0  0  0  0  0  0  0  0  0
    9.0324   -1.9615    0.0000 C   0  0  0  0  0  0  0  0  0  0  0  0
   10.1714    0.0000    0.0000 C   0  0  0  0  0  0  0  0  0  0  0  0
    6.7862   -0.6486    0.0000 C   0  0  0  0  0  0  0  0  0  0  0  0
    7.9093    0.0000    0.0000 C   0  0  0  0  0  0  0  0  0  0  0  0
    1.1231    0.0000    0.0000 C   0  0  0  0  0  0  0  0  0  0  0  0
    1.1231   -2.5943    0.0000 C   0  0  0  0  0  0  0  0  0  0  0  0
   13.5566   -0.6486    0.0000 C   0  0  0  0  0  0  0  0  0  0  0  0
   11.2945   -4.5874    0.0000 C   0  0  0  0  0  0  0  0  0  0  0  0
   14.6955   -2.5943    0.0000 C   0  0  0  0  0  0  0  0  0  0  0  0
   13.5566   -4.5874    0.0000 C   0  0  0  0  0  0  0  0  0  0  0  0
    0.0000   -0.6486    0.0000 C   0  0  0  0  0  0  0  0  0  0  0  0
    0.0000   -1.9615    0.0000 C   0  0  0  0  0  0  0  0  0  0  0  0
   11.2945   -5.8845    0.0000 C   0  0  0  0  0  0  0  0  0  0  0  0
   13.5566   -5.8845    0.0000 C   0  0  0  0  0  0  0  0  0  0  0  0
   14.6955    0.0000    0.0000 C   0  0  0  0  0  0  0  0  0  0  0  0
   15.8186   -1.9615    0.0000 C   0  0  0  0  0  0  0  0  0  0  0  0
   12.4176   -6.5331    0.0000 C   0  0  0  0  0  0  0  0  0  0  0  0
   15.8186   -0.6486    0.0000 C   0  0  0  0  0  0  0  0  0  0  0  0
  1  2  1  0  0  0  0
  1  3  1  0  0  0  0
  1  9  2  0  0  0  0
  2  4  1  0  0  0  0
  2 14  1  0  0  0  0
  3  5  1  0  0  0  0
  4 19  1  0  0  0  0
  4  5  2  0  0  0  0
  5 20  1  0  0  0  0
  6 10  1  0  0  0  0
  6  7  1  0  0  0  0
  6 11  1  0  0  0  0
  7 12  1  0  0  0  0
  7 13  1  0  0  0  0
  8 18  1  0  0  0  0
  8 15  1  0  0  0  0
  8 16  1  0  0  0  0
 10 16  1  0  0  0  0
 11 15  1  0  0  0  0
 12 22  1  0  0  0  0
 12 24  2  0  0  0  0
 13 21  2  0  0  0  0
 13 23  1  0  0  0  0
 14 17  1  0  0  0  0
 17 18  1  0  0  0  0
 19 25  2  0  0  0  0
 20 26  2  0  0  0  0
 21 29  1  0  0  0  0
 22 27  2  0  0  0  0
 23 30  2  0  0  0  0
 24 28  1  0  0  0  0
 25 26  1  0  0  0  0
 27 31  1  0  0  0  0
 28 31  2  0  0  0  0
 29 32  2  0  0  0  0
 30 32  1  0  0  0  0
M  END
> <ID>
10799

> <Formula>
C27H30N4O

> <FW>
426.5533

> <DSSTox_CID>
25181

> <DSSTox_RID>
80729

> <DSSTox_GSID>
45181

> <DSSTox_FileID_Sort>
5410

> <TS_ChemName>
Oxatomide

> <TS_ChemName_Synonyms>


> <TS_CASRN>
60607-34-3

> <CASRN_ChemName_Relationship>
primary

> <TS_Description>
single chemical compound

> <ChemNote>


> <STRUCTURE_Shown>
tested chemical

> <STRUCTURE_Formula>
C27H30N4O

> <STRUCTURE_MW>
426.5533

> <STRUCTURE_ChemType>
defined organic

> <STRUCTURE_DefinedOrganicForm>
parent

> <STRUCTURE_IUPAC>
1-{3-[4-(diphenylmethyl)piperazin-1-yl]propyl}-1,3-dihydro-2H-benzimidazol-2-one

> <STRUCTURE_SMILES>
O=C5Nc1ccccc1N5CCCN2CCN(CC2)C(c3ccccc3)c4ccccc4

> <STRUCTURE_SMILES_Desalt>
O=C5Nc1ccccc1N5CCCN2CCN(CC2)C(c3ccccc3)c4ccccc4

> <Substance_modify_yyyymmdd>
20100107

$$$$
