606143-52-6
ChemmineR-0915142007XD

 27 29  0  0  0  0  0  0  0  0  1 V2000
    3.1727   -9.9535    0.0000 N    0  0  0  0  0  0  0  0  0  0  0  0
    1.3168   -8.8752    0.0000 N    0  0  0  0  0  0  0  0  0  0  0  0
    1.8663  -10.0987    0.0000 C    0  0  0  0  0  0  0  0  0  0  0  0
    3.4526   -8.6575    0.0000 C    0  0  0  0  0  0  0  0  0  0  0  0
    2.3121   -7.9939    0.0000 C    0  0  0  0  0  0  0  0  0  0  0  0
    2.3121   -6.6668    0.0000 C    0  0  0  0  0  0  0  0  0  0  0  0
    3.4630   -6.0032    0.0000 C    0  0  0  0  0  0  0  0  0  0  0  0
    4.6035   -6.6668    0.0000 C    0  0  0  0  0  0  0  0  0  0  0  0
    4.6035   -7.9835    0.0000 C    0  0  0  0  0  0  0  0  0  0  0  0
    3.4630   -4.6761    0.0000 C    0  0  0  0  0  0  0  0  0  0  0  0
    4.6035   -4.0021    0.0000 O    0  0  0  0  0  0  0  0  0  0  0  0
    2.3121   -4.0021    0.0000 N    0  0  0  0  0  0  0  0  0  0  0  0
    5.7647   -5.9928    0.0000 N    0  0  0  0  0  0  0  0  0  0  0  0
    9.2174   -6.6668    0.0000 C    0  0  0  0  0  0  0  0  0  0  0  0
    9.2174   -7.9939    0.0000 C    0  0  0  0  0  0  0  0  0  0  0  0
    8.0561   -8.6575    0.0000 C    0  0  0  0  0  0  0  0  0  0  0  0
    6.9052   -7.9835    0.0000 C    0  0  0  0  0  0  0  0  0  0  0  0
    6.9156   -6.6668    0.0000 C    0  0  0  0  0  0  0  0  0  0  0  0
    8.0769   -5.9928    0.0000 C    0  0  0  0  0  0  0  0  0  0  0  0
   10.3682   -8.6575    0.0000 Br   0  0  0  0  0  0  0  0  0  0  0  0
    8.0769   -4.6553    0.0000 Cl   0  0  0  0  0  0  0  0  0  0  0  0
    5.7647   -8.6575    0.0000 F    0  0  0  0  0  0  0  0  0  0  0  0
    2.3121   -2.6646    0.0000 O    0  0  0  0  0  0  0  0  0  0  0  0
    1.1509   -2.0114    0.0000 C    0  0  0  0  0  0  0  0  0  0  0  0
    1.1405   -0.6636    0.0000 C    0  0  0  0  0  0  0  0  0  0  0  0
    0.0000    0.0000    0.0000 O    0  0  0  0  0  0  0  0  0  0  0  0
    0.0207   -8.6056    0.0000 C    0  0  0  0  0  0  0  0  0  0  0  0
  1  3  2  0  0  0  0
  1  4  1  0  0  0  0
  2  3  1  0  0  0  0
  2  5  1  0  0  0  0
  2 27  1  0  0  0  0
  4  5  2  0  0  0  0
  4  9  1  0  0  0  0
  5  6  1  0  0  0  0
  6  7  2  0  0  0  0
  7  8  1  0  0  0  0
  7 10  1  0  0  0  0
  8  9  2  0  0  0  0
  8 13  1  0  0  0  0
  9 22  1  0  0  0  0
 10 11  2  0  0  0  0
 10 12  1  0  0  0  0
 12 23  1  0  0  0  0
 13 18  1  0  0  0  0
 14 19  2  0  0  0  0
 14 15  1  0  0  0  0
 15 16  2  0  0  0  0
 15 20  1  0  0  0  0
 16 17  1  0  0  0  0
 17 18  2  0  0  0  0
 18 19  1  0  0  0  0
 19 21  1  0  0  0  0
 23 24  1  0  0  0  0
 24 25  1  0  0  0  0
 25 26  1  0  0  0  0
M  END
> <ID>
13933

> <Formula>
C17H15BrClFN4O3

> <FW>
457.6814

> <DSSTox_CID>
28870

> <DSSTox_RID>
83139

> <DSSTox_GSID>
48944

> <DSSTox_FileID_Sort>
7816

> <TS_ChemName>
Selumetinib

> <TS_ChemName_Synonyms>


> <TS_CASRN>
606143-52-6

> <CASRN_ChemName_Relationship>
primary

> <TS_Description>
single chemical compound

> <ChemNote>


> <STRUCTURE_Shown>
tested chemical

> <STRUCTURE_Formula>
C17H15BrClFN4O3

> <STRUCTURE_MW>
457.6814

> <STRUCTURE_ChemType>
defined organic

> <STRUCTURE_DefinedOrganicForm>
parent

> <STRUCTURE_IUPAC>
5-[(4-bromo-2-chlorophenyl)amino]-4-fluoro-N-(2-hydroxyethoxy)-1-methyl-1H-benzimidazole-6-carboxamide

> <STRUCTURE_SMILES>
Brc3ccc(Nc1c(F)c2ncn(C)c2cc1C(=O)NOCCO)c(Cl)c3

> <STRUCTURE_SMILES_Desalt>
Brc3ccc(Nc1c(F)c2ncn(C)c2cc1C(=O)NOCCO)c(Cl)c3

> <Substance_modify_yyyymmdd>
20111204

$$$$
