60628-96-8
ChemmineR-0915142007XD

 24 27  0  0  0  0  0  0  0  0  1 V2000
    0.0000   -2.6520    0.0000 C   0  0  0  0  0  0  0  0  0  0  0  0
    1.1499   -1.9786    0.0000 C   0  0  0  0  0  0  0  0  0  0  0  0
    2.3101   -2.6520    0.0000 C   0  0  0  0  0  0  0  0  0  0  0  0
    2.3101   -3.9883    0.0000 C   0  0  0  0  0  0  0  0  0  0  0  0
    1.1499   -4.6409    0.0000 C   0  0  0  0  0  0  0  0  0  0  0  0
    0.0000   -3.9883    0.0000 C   0  0  0  0  0  0  0  0  0  0  0  0
    3.4600   -4.6409    0.0000 C   0  0  0  0  0  0  0  0  0  0  0  0
    3.4600   -5.9669    0.0000 N   0  0  0  0  0  0  0  0  0  0  0  0
    4.5270   -6.7542    0.0000 C   0  0  0  0  0  0  0  0  0  0  0  0
    4.1126   -8.0180    0.0000 C   0  0  0  0  0  0  0  0  0  0  0  0
    2.7866   -8.0180    0.0000 N   0  0  0  0  0  0  0  0  0  0  0  0
    2.3723   -6.7542    0.0000 C   0  0  0  0  0  0  0  0  0  0  0  0
    4.5995   -3.9883    0.0000 C   0  0  0  0  0  0  0  0  0  0  0  0
    4.5995   -2.6520    0.0000 C   0  0  0  0  0  0  0  0  0  0  0  0
    5.7494   -1.9786    0.0000 C   0  0  0  0  0  0  0  0  0  0  0  0
    6.8992   -2.6520    0.0000 C   0  0  0  0  0  0  0  0  0  0  0  0
    6.8992   -3.9883    0.0000 C   0  0  0  0  0  0  0  0  0  0  0  0
    5.7494   -4.6409    0.0000 C   0  0  0  0  0  0  0  0  0  0  0  0
    8.0491   -1.9786    0.0000 C   0  0  0  0  0  0  0  0  0  0  0  0
    8.0491   -0.6526    0.0000 C   0  0  0  0  0  0  0  0  0  0  0  0
    9.2093    0.0000    0.0000 C   0  0  0  0  0  0  0  0  0  0  0  0
   10.3592   -0.6526    0.0000 C   0  0  0  0  0  0  0  0  0  0  0  0
   10.3592   -1.9786    0.0000 C   0  0  0  0  0  0  0  0  0  0  0  0
    9.2093   -2.6520    0.0000 C   0  0  0  0  0  0  0  0  0  0  0  0
  1  2  2  0  0  0  0
  1  6  1  0  0  0  0
  2  3  1  0  0  0  0
  3  4  2  0  0  0  0
  4  5  1  0  0  0  0
  4  7  1  0  0  0  0
  5  6  2  0  0  0  0
  7  8  1  0  0  0  0
  7 13  1  0  0  0  0
  8  9  1  0  0  0  0
  8 12  1  0  0  0  0
  9 10  2  0  0  0  0
 10 11  1  0  0  0  0
 11 12  2  0  0  0  0
 13 14  2  0  0  0  0
 13 18  1  0  0  0  0
 14 15  1  0  0  0  0
 15 16  2  0  0  0  0
 16 17  1  0  0  0  0
 16 19  1  0  0  0  0
 17 18  2  0  0  0  0
 19 20  2  0  0  0  0
 19 24  1  0  0  0  0
 20 21  1  0  0  0  0
 21 22  2  0  0  0  0
 22 23  1  0  0  0  0
 23 24  2  0  0  0  0
M  END
> <ID>
11081

> <Formula>
C22H18N2

> <FW>
310.3917

> <DSSTox_CID>
25631

> <DSSTox_RID>
81013

> <DSSTox_GSID>
45631

> <DSSTox_FileID_Sort>
5694

> <TS_ChemName>
Bifonazole

> <TS_ChemName_Synonyms>


> <TS_CASRN>
60628-96-8

> <CASRN_ChemName_Relationship>
primary

> <TS_Description>
single chemical compound

> <ChemNote>


> <STRUCTURE_Shown>
tested chemical

> <STRUCTURE_Formula>
C22H18N2

> <STRUCTURE_MW>
310.3917

> <STRUCTURE_ChemType>
defined organic

> <STRUCTURE_DefinedOrganicForm>
parent

> <STRUCTURE_IUPAC>
1-[biphenyl-4-yl(phenyl)methyl]-1H-imidazole

> <STRUCTURE_SMILES>
c1cc(ccc1c2ccccc2)C(c3ccccc3)n4ccnc4

> <STRUCTURE_SMILES_Desalt>
c1cc(ccc1c2ccccc2)C(c3ccccc3)n4ccnc4

> <Substance_modify_yyyymmdd>
20100107

$$$$
