6064-83-1
ChemmineR-0915142007XD

 14 14  0  0  0  0  0  0  0  0  1 V2000
    1.9972    0.0000    0.0000 O   0  0  0  0  0  0  0  0  0  0  0  0
    2.6591   -1.1554    0.0000 C   0  0  0  0  0  0  0  0  0  0  0  0
    3.9887   -1.1554    0.0000 O   0  0  0  0  0  0  0  0  0  0  0  0
    1.9972   -2.3050    0.0000 C   0  0  0  0  0  0  0  0  0  0  0  0
    2.6591   -3.4545    0.0000 C   0  0  0  0  0  0  0  0  0  0  0  0
    3.9887   -3.4545    0.0000 O   0  0  0  0  0  0  0  0  0  0  0  0
    4.6564   -4.6099    0.0000 P   0  0  0  0  0  0  0  0  0  0  0  0
    3.5010   -5.2718    0.0000 O   0  0  0  0  0  0  0  0  0  0  0  0
    5.8059   -3.9422    0.0000 O   0  0  0  0  0  0  0  0  0  0  0  0
    5.3182   -5.7595    0.0000 O   0  0  0  0  0  0  0  0  0  0  0  0
    1.9972   -4.6099    0.0000 C   0  0  0  0  0  0  0  0  0  0  0  0
    0.6677   -4.6099    0.0000 C   0  0  0  0  0  0  0  0  0  0  0  0
    0.0000   -3.4545    0.0000 C   0  0  0  0  0  0  0  0  0  0  0  0
    0.6677   -2.3050    0.0000 C   0  0  0  0  0  0  0  0  0  0  0  0
  1  2  1  0  0  0  0
  2  3  2  0  0  0  0
  2  4  1  0  0  0  0
  4  5  2  0  0  0  0
  4 14  1  0  0  0  0
  5  6  1  0  0  0  0
  5 11  1  0  0  0  0
  6  7  1  0  0  0  0
  7  8  1  0  0  0  0
  7  9  1  0  0  0  0
  7 10  2  0  0  0  0
 11 12  2  0  0  0  0
 12 13  1  0  0  0  0
 13 14  2  0  0  0  0
M  END
> <ID>
10922

> <Formula>
C7H7O6P

> <FW>
218.1006

> <DSSTox_CID>
25394

> <DSSTox_RID>
80851

> <DSSTox_GSID>
45394

> <DSSTox_FileID_Sort>
5532

> <TS_ChemName>
Salicylic acid dihydrogen phosphate

> <TS_ChemName_Synonyms>


> <TS_CASRN>
6064-83-1

> <CASRN_ChemName_Relationship>
primary

> <TS_Description>
single chemical compound

> <ChemNote>


> <STRUCTURE_Shown>
tested chemical

> <STRUCTURE_Formula>
C7H7O6P

> <STRUCTURE_MW>
218.1006

> <STRUCTURE_ChemType>
defined organic

> <STRUCTURE_DefinedOrganicForm>
parent

> <STRUCTURE_IUPAC>
2-(phosphonooxy)benzoic acid

> <STRUCTURE_SMILES>
OP(=O)(O)Oc1ccccc1C(=O)O

> <STRUCTURE_SMILES_Desalt>
OP(=O)(O)Oc1ccccc1C(=O)O

> <Substance_modify_yyyymmdd>
20100107

$$$$
