6065-63-0
ChemmineR-0915142007XD

 17 16  0  0  0  0  0  0  0  0  1 V2000
    6.6467   -4.9651    0.0000 C   0  0  0  0  0  0  0  0  0  0  0  0
    5.9754   -3.8086    0.0000 C   0  0  0  0  0  0  0  0  0  0  0  0
    6.2945    0.0000    0.0000 C   0  0  0  0  0  0  0  0  0  0  0  0
    5.1379   -0.6713    0.0000 C   0  0  0  0  0  0  0  0  0  0  0  0
    5.1379   -2.0007    0.0000 C   0  0  0  0  0  0  0  0  0  0  0  0
    4.6461   -3.8086    0.0000 C   0  0  0  0  0  0  0  0  0  0  0  0
    3.9880   -2.6587    0.0000 C   0  0  0  0  0  0  0  0  0  0  0  0
    2.8382   -3.3300    0.0000 C   0  0  0  0  0  0  0  0  0  0  0  0
    3.3300   -1.5022    0.0000 C   0  0  0  0  0  0  0  0  0  0  0  0
    1.6816   -2.6587    0.0000 O   0  0  0  0  0  0  0  0  0  0  0  0
    3.9880   -0.3523    0.0000 O   0  0  0  0  0  0  0  0  0  0  0  0
    2.8382   -4.6461    0.0000 O   0  0  0  0  0  0  0  0  0  0  0  0
    2.0007   -1.5022    0.0000 O   0  0  0  0  0  0  0  0  0  0  0  0
    1.3293   -0.3523    0.0000 C   0  0  0  0  0  0  0  0  0  0  0  0
    1.6816   -5.3174    0.0000 C   0  0  0  0  0  0  0  0  0  0  0  0
    1.6816   -6.6467    0.0000 C   0  0  0  0  0  0  0  0  0  0  0  0
    0.0000   -0.3523    0.0000 C   0  0  0  0  0  0  0  0  0  0  0  0
  1  2  1  0  0  0  0
  2  6  1  0  0  0  0
  3  4  1  0  0  0  0
  4  5  1  0  0  0  0
  5  7  1  0  0  0  0
  6  7  1  0  0  0  0
  7  8  1  0  0  0  0
  7  9  1  0  0  0  0
  8 10  2  0  0  0  0
  8 12  1  0  0  0  0
  9 11  2  0  0  0  0
  9 13  1  0  0  0  0
 12 15  1  0  0  0  0
 13 14  1  0  0  0  0
 14 17  1  0  0  0  0
 15 16  1  0  0  0  0
M  END
> <ID>
16182

> <Formula>
C13H24O4

> <FW>
244.3273

> <DSSTox_CID>
31572

> <DSSTox_RID>
97457

> <DSSTox_GSID>
57783

> <DSSTox_FileID_Sort>
8524

> <TS_ChemName>
Diethyl dipropylmalonate

> <TS_ChemName_Synonyms>


> <TS_CASRN>
6065-63-0

> <CASRN_ChemName_Relationship>
primary

> <TS_Description>
single chemical compound

> <ChemNote>


> <STRUCTURE_Shown>
tested chemical

> <STRUCTURE_Formula>
C13H24O4

> <STRUCTURE_MW>
244.3273

> <STRUCTURE_ChemType>
defined organic

> <STRUCTURE_DefinedOrganicForm>
parent

> <STRUCTURE_IUPAC>
diethyl dipropylmalonate

> <STRUCTURE_SMILES>
CCCC(CCC)(C(=O)OCC)C(=O)OCC

> <STRUCTURE_SMILES_Desalt>
CCCC(CCC)(C(=O)OCC)C(=O)OCC

> <Substance_modify_yyyymmdd>
20131018

$$$$
