60676-84-8
ChemmineR-0915142007XD

 16 16  0  0  0  0  0  0  0  0  1 V2000
    5.5117   -1.9880    0.0000 C    0  0  0  0  0  0  0  0  0  0  0  0
    4.3549    0.0000    0.0000 N    0  0  0  0  0  0  0  0  0  0  0  0
    4.3549   -2.6595    0.0000 C    0  0  0  0  0  0  0  0  0  0  0  0
    5.5117   -0.6582    0.0000 C    0  0  0  0  0  0  0  0  0  0  0  0
    4.3549   -3.9892    0.0000 C    0  0  0  0  0  0  0  0  0  0  0  0
    3.2047   -1.9880    0.0000 C    0  0  0  0  0  0  0  0  0  0  0  0
    6.6487    0.0000    0.0000 C    0  0  0  0  0  0  0  0  0  0  0  0
    2.0478   -2.6595    0.0000 C    0  0  0  0  0  0  0  0  0  0  0  0
    3.2047   -4.6474    0.0000 C    0  0  0  0  0  0  0  0  0  0  0  0
    2.0478   -3.9892    0.0000 C    0  0  0  0  0  0  0  0  0  0  0  0
    3.2047   -5.9771    0.0000 O    0  0  0  0  0  0  0  0  0  0  0  0
    2.0478   -6.6487    0.0000 C    0  0  0  0  0  0  0  0  0  0  0  0
    0.7845   -2.2406    0.0000 O    0  0  0  0  0  0  0  0  0  0  0  0
    0.0000   -3.3177    0.0000 C    0  0  0  0  0  0  0  0  0  0  0  0
    0.7845   -4.3881    0.0000 O    0  0  0  0  0  0  0  0  0  0  0  0
    5.1594   -5.2857    0.0000 Cl   0  0  0  0  0  0  0  0  0  0  0  0
  1  3  1  0  0  0  0
  1  4  1  0  0  0  0
  2  4  1  0  0  0  0
  3  5  1  0  0  0  0
  3  6  2  0  0  0  0
  4  7  1  0  0  0  0
  5  9  2  0  0  0  0
  6  8  1  0  0  0  0
  8 10  2  0  0  0  0
  8 13  1  0  0  0  0
  9 10  1  0  0  0  0
  9 11  1  0  0  0  0
 10 15  1  0  0  0  0
 11 12  1  0  0  0  0
 13 14  1  0  0  0  0
 14 15  1  0  0  0  0
M  END
> <ID>
13879

> <Formula>
C11H16ClNO3

> <FW>
245.7026 (209.2417+36.4609)

> <DSSTox_CID>
28816

> <DSSTox_RID>
83085

> <DSSTox_GSID>
48890

> <DSSTox_FileID_Sort>
7762

> <TS_ChemName>
1-(7-Methoxy-1,3-benzodioxol-5-yl)propan-2-amine hydrochloride

> <TS_ChemName_Synonyms>
(?)-3-Methoxy-4,5-methylenedioxyamphetamine hydrochloride

> <TS_CASRN>
60676-84-8

> <CASRN_ChemName_Relationship>
primary

> <TS_Description>
single chemical compound

> <ChemNote>


> <STRUCTURE_Shown>
tested chemical

> <STRUCTURE_Formula>
C11H16ClNO3

> <STRUCTURE_MW>
245.7026

> <STRUCTURE_ChemType>
defined organic

> <STRUCTURE_DefinedOrganicForm>
complex

> <STRUCTURE_IUPAC>
1-(7-methoxy-1,3-benzodioxol-5-yl)propan-2-amine hydrochloride (1:1)

> <STRUCTURE_SMILES>
Cl.CC(N)Cc1cc2OCOc2c(c1)OC

> <STRUCTURE_SMILES_Desalt>
CC(N)Cc1cc2OCOc2c(c1)OC

> <Substance_modify_yyyymmdd>
20111204

$$$$
