607-90-9
ChemmineR-0915142007XD

 13 13  0  0  0  0  0  0  0  0  1 V2000
    8.0668   -1.3472    0.0000 C   0  0  0  0  0  0  0  0  0  0  0  0
    6.9133   -2.0006    0.0000 C   0  0  0  0  0  0  0  0  0  0  0  0
    5.7597   -1.3310    0.0000 C   0  0  0  0  0  0  0  0  0  0  0  0
    4.6062   -2.0006    0.0000 O   0  0  0  0  0  0  0  0  0  0  0  0
    3.4607   -1.3310    0.0000 C   0  0  0  0  0  0  0  0  0  0  0  0
    3.4607    0.0000    0.0000 O   0  0  0  0  0  0  0  0  0  0  0  0
    2.3071   -1.9844    0.0000 C   0  0  0  0  0  0  0  0  0  0  0  0
    1.1536   -1.3149    0.0000 C   0  0  0  0  0  0  0  0  0  0  0  0
    0.0000   -1.9764    0.0000 C   0  0  0  0  0  0  0  0  0  0  0  0
    0.0000   -3.3074    0.0000 C   0  0  0  0  0  0  0  0  0  0  0  0
    1.1536   -3.9769    0.0000 C   0  0  0  0  0  0  0  0  0  0  0  0
    2.3071   -3.3235    0.0000 C   0  0  0  0  0  0  0  0  0  0  0  0
    3.4445   -3.9931    0.0000 O   0  0  0  0  0  0  0  0  0  0  0  0
  1  2  1  0  0  0  0
  2  3  1  0  0  0  0
  3  4  1  0  0  0  0
  4  5  1  0  0  0  0
  5  6  2  0  0  0  0
  5  7  1  0  0  0  0
  7  8  2  0  0  0  0
  7 12  1  0  0  0  0
  8  9  1  0  0  0  0
  9 10  2  0  0  0  0
 10 11  1  0  0  0  0
 11 12  2  0  0  0  0
 12 13  1  0  0  0  0
M  END
> <ID>
11971

> <Formula>
C10H12O3

> <FW>
180.2005

> <DSSTox_CID>
26790

> <DSSTox_RID>
81907

> <DSSTox_GSID>
46790

> <DSSTox_FileID_Sort>
6588

> <TS_ChemName>
Propyl salicylate

> <TS_ChemName_Synonyms>


> <TS_CASRN>
607-90-9

> <CASRN_ChemName_Relationship>
primary

> <TS_Description>
single chemical compound

> <ChemNote>


> <STRUCTURE_Shown>
tested chemical

> <STRUCTURE_Formula>
C10H12O3

> <STRUCTURE_MW>
180.2005

> <STRUCTURE_ChemType>
defined organic

> <STRUCTURE_DefinedOrganicForm>
parent

> <STRUCTURE_IUPAC>
propyl 2-hydroxybenzoate

> <STRUCTURE_SMILES>
Oc1ccccc1C(=O)OCCC

> <STRUCTURE_SMILES_Desalt>
Oc1ccccc1C(=O)OCCC

> <Substance_modify_yyyymmdd>
20110802

$$$$
