607-91-0
ChemmineR-0915142007XD

 14 15  0  0  0  0  0  0  0  0  1 V2000
    5.8819   -4.3965    0.0000 O   0  0  0  0  0  0  0  0  0  0  0  0
    6.6613   -3.3107    0.0000 C   0  0  0  0  0  0  0  0  0  0  0  0
    5.8819   -2.2449    0.0000 O   0  0  0  0  0  0  0  0  0  0  0  0
    4.6163   -3.9768    0.0000 C   0  0  0  0  0  0  0  0  0  0  0  0
    3.4639   -4.6429    0.0000 C   0  0  0  0  0  0  0  0  0  0  0  0
    2.3115   -3.9768    0.0000 C   0  0  0  0  0  0  0  0  0  0  0  0
    2.3115   -2.6445    0.0000 C   0  0  0  0  0  0  0  0  0  0  0  0
    1.1524   -4.6429    0.0000 C   0  0  0  0  0  0  0  0  0  0  0  0
    1.1524   -5.9752    0.0000 C   0  0  0  0  0  0  0  0  0  0  0  0
    0.0000   -6.6413    0.0000 C   0  0  0  0  0  0  0  0  0  0  0  0
    4.6163   -2.6445    0.0000 C   0  0  0  0  0  0  0  0  0  0  0  0
    3.4639   -1.9784    0.0000 C   0  0  0  0  0  0  0  0  0  0  0  0
    3.4639   -0.6661    0.0000 O   0  0  0  0  0  0  0  0  0  0  0  0
    2.3115    0.0000    0.0000 C   0  0  0  0  0  0  0  0  0  0  0  0
  1  2  1  0  0  0  0
  1  4  1  0  0  0  0
  2  3  1  0  0  0  0
  3 11  1  0  0  0  0
  4  5  2  0  0  0  0
  4 11  1  0  0  0  0
  5  6  1  0  0  0  0
  6  7  2  0  0  0  0
  6  8  1  0  0  0  0
  7 12  1  0  0  0  0
  8  9  1  0  0  0  0
  9 10  2  0  0  0  0
 11 12  2  0  0  0  0
 12 13  1  0  0  0  0
 13 14  1  0  0  0  0
M  END
> <ID>
4352

> <Formula>
C11H12O3

> <FW>
192.2112

> <DSSTox_CID>
5693

> <DSSTox_RID>
77884

> <DSSTox_GSID>
25693

> <DSSTox_FileID_Sort>
2567

> <TS_ChemName>
Myristicin

> <TS_ChemName_Synonyms>


> <TS_CASRN>
607-91-0

> <CASRN_ChemName_Relationship>
primary

> <TS_Description>
single chemical compound

> <ChemNote>


> <STRUCTURE_Shown>
tested chemical

> <STRUCTURE_Formula>
C11H12O3

> <STRUCTURE_MW>
192.2112

> <STRUCTURE_ChemType>
defined organic

> <STRUCTURE_DefinedOrganicForm>
parent

> <STRUCTURE_IUPAC>
4-methoxy-6-(prop-2-en-1-yl)-1,3-benzodioxole

> <STRUCTURE_SMILES>
C=CCc1cc2OCOc2c(c1)OC

> <STRUCTURE_SMILES_Desalt>
C=CCc1cc2OCOc2c(c1)OC

> <Substance_modify_yyyymmdd>
20080429

$$$$
