60719-84-8
ChemmineR-0915142007XD

 14 15  0  0  0  0  0  0  0  0  1 V2000
    5.9818   -1.1485    0.0000 C   0  0  0  0  0  0  0  0  0  0  0  0
    6.6438    0.0000    0.0000 N   0  0  0  0  0  0  0  0  0  0  0  0
    6.6438   -2.3050    0.0000 C   0  0  0  0  0  0  0  0  0  0  0  0
    7.9757   -2.3050    0.0000 O   0  0  0  0  0  0  0  0  0  0  0  0
    5.9818   -3.4535    0.0000 N   0  0  0  0  0  0  0  0  0  0  0  0
    4.6499   -3.4535    0.0000 C   0  0  0  0  0  0  0  0  0  0  0  0
    3.9879   -2.3050    0.0000 C   0  0  0  0  0  0  0  0  0  0  0  0
    2.6559   -2.3050    0.0000 C   0  0  0  0  0  0  0  0  0  0  0  0
    1.9939   -3.4535    0.0000 C   0  0  0  0  0  0  0  0  0  0  0  0
    0.6620   -3.4535    0.0000 C   0  0  0  0  0  0  0  0  0  0  0  0
    0.0000   -2.3050    0.0000 N   0  0  0  0  0  0  0  0  0  0  0  0
    0.6620   -1.1485    0.0000 C   0  0  0  0  0  0  0  0  0  0  0  0
    1.9939   -1.1485    0.0000 C   0  0  0  0  0  0  0  0  0  0  0  0
    4.6499   -1.1485    0.0000 C   0  0  0  0  0  0  0  0  0  0  0  0
  1  2  1  0  0  0  0
  1  3  1  0  0  0  0
  1 14  2  0  0  0  0
  3  4  2  0  0  0  0
  3  5  1  0  0  0  0
  5  6  1  0  0  0  0
  6  7  2  0  0  0  0
  7  8  1  0  0  0  0
  7 14  1  0  0  0  0
  8  9  2  0  0  0  0
  8 13  1  0  0  0  0
  9 10  1  0  0  0  0
 10 11  2  0  0  0  0
 11 12  1  0  0  0  0
 12 13  2  0  0  0  0
M  END
> <ID>
2359

> <Formula>
C10H9N3O

> <FW>
187.198

> <DSSTox_CID>
2603

> <DSSTox_RID>
76655

> <DSSTox_GSID>
22603

> <DSSTox_FileID_Sort>
1339

> <TS_ChemName>
Amrinone

> <TS_ChemName_Synonyms>


> <TS_CASRN>
60719-84-8

> <CASRN_ChemName_Relationship>
primary

> <TS_Description>
single chemical compound

> <ChemNote>


> <STRUCTURE_Shown>
tested chemical

> <STRUCTURE_Formula>
C10H9N3O

> <STRUCTURE_MW>
187.198

> <STRUCTURE_ChemType>
defined organic

> <STRUCTURE_DefinedOrganicForm>
parent

> <STRUCTURE_IUPAC>
5-amino-3,4'-bipyridin-6(1H)-one

> <STRUCTURE_SMILES>
NC1=CC(=CNC1=O)c2ccncc2

> <STRUCTURE_SMILES_Desalt>
NC1=CC(=CNC1=O)c2ccncc2

> <Substance_modify_yyyymmdd>
20080429

$$$$
