60719-82-6
ChemmineR-0915142007XD

 17 17  0  0  0  0  0  0  0  0  1 V2000
    1.1552   -3.3278    0.0000 C    0  0  0  0  0  0  0  0  0  0  0  0
    1.1552   -1.9924    0.0000 C    0  0  0  0  0  0  0  0  0  0  0  0
    0.0000   -1.3354    0.0000 N    0  0  0  0  0  0  0  0  0  0  0  0
    2.2998   -1.3354    0.0000 C    0  0  0  0  0  0  0  0  0  0  0  0
    2.2998    0.0000    0.0000 O    0  0  0  0  0  0  0  0  0  0  0  0
    3.4550   -1.9924    0.0000 O    0  0  0  0  0  0  0  0  0  0  0  0
    4.6101   -1.3354    0.0000 C    0  0  0  0  0  0  0  0  0  0  0  0
    3.9425   -0.1802    0.0000 C    0  0  0  0  0  0  0  0  0  0  0  0
    5.7653   -0.6677    0.0000 C    0  0  0  0  0  0  0  0  0  0  0  0
    5.2778   -2.4799    0.0000 C    0  0  0  0  0  0  0  0  0  0  0  0
    6.6026   -2.4799    0.0000 C    0  0  0  0  0  0  0  0  0  0  0  0
    7.2703   -1.3354    0.0000 C    0  0  0  0  0  0  0  0  0  0  0  0
    8.6056   -1.3354    0.0000 C    0  0  0  0  0  0  0  0  0  0  0  0
    9.2627   -2.4799    0.0000 C    0  0  0  0  0  0  0  0  0  0  0  0
   10.5980   -2.4799    0.0000 Cl   0  0  0  0  0  0  0  0  0  0  0  0
    8.6056   -3.6351    0.0000 C    0  0  0  0  0  0  0  0  0  0  0  0
    7.2703   -3.6351    0.0000 C    0  0  0  0  0  0  0  0  0  0  0  0
  1  2  1  0  0  0  0
  2  3  1  0  0  0  0
  2  4  1  0  0  0  0
  4  5  2  0  0  0  0
  4  6  1  0  0  0  0
  6  7  1  0  0  0  0
  7  8  1  0  0  0  0
  7  9  1  0  0  0  0
  7 10  1  0  0  0  0
 10 11  1  0  0  0  0
 11 12  2  0  0  0  0
 11 17  1  0  0  0  0
 12 13  1  0  0  0  0
 13 14  2  0  0  0  0
 14 15  1  0  0  0  0
 14 16  1  0  0  0  0
 16 17  2  0  0  0  0
M  END
> <ID>
10755

> <Formula>
C13H18ClNO2

> <FW>
255.7405

> <DSSTox_CID>
25122

> <DSSTox_RID>
80687

> <DSSTox_GSID>
45122

> <DSSTox_FileID_Sort>
5369

> <TS_ChemName>
Alaproclate

> <TS_ChemName_Synonyms>


> <TS_CASRN>
60719-82-6

> <CASRN_ChemName_Relationship>
primary

> <TS_Description>
single chemical compound

> <ChemNote>


> <STRUCTURE_Shown>
tested chemical

> <STRUCTURE_Formula>
C13H18ClNO2

> <STRUCTURE_MW>
255.7405

> <STRUCTURE_ChemType>
defined organic

> <STRUCTURE_DefinedOrganicForm>
parent

> <STRUCTURE_IUPAC>
1-(4-chlorophenyl)-2-methylpropan-2-yl alaninate

> <STRUCTURE_SMILES>
Clc1ccc(CC(C)(C)OC(=O)C(C)N)cc1

> <STRUCTURE_SMILES_Desalt>
Clc1ccc(CC(C)(C)OC(=O)C(C)N)cc1

> <Substance_modify_yyyymmdd>
20100107

$$$$
