608-66-2
ChemmineR-0915142007XD

 12 11  0  0  1  0  0  0  0  0  1 V2000
    2.2759   -2.0114    0.0000 C   0  0  0  0  0  0  0  0  0  0  0  0
    3.4218   -1.3303    0.0000 C   0  0  0  0  0  0  0  0  0  0  0  0
    4.5758   -2.0114    0.0000 C   0  0  0  0  0  0  0  0  0  0  0  0
    5.7218   -1.3303    0.0000 C   0  0  0  0  0  0  0  0  0  0  0  0
    6.8677   -2.0114    0.0000 C   0  0  0  0  0  0  0  0  0  0  0  0
    1.1299   -1.3303    0.0000 C   0  0  0  0  0  0  0  0  0  0  0  0
    3.4218    0.0000    0.0000 O   0  0  0  0  0  0  0  0  0  0  0  0
    4.5758   -3.3337    0.0000 O   0  0  0  0  0  0  0  0  0  0  0  0
    5.7218    0.0000    0.0000 O   0  0  0  0  0  0  0  0  0  0  0  0
    2.2759   -3.3337    0.0000 O   0  0  0  0  0  0  0  0  0  0  0  0
    0.0000   -2.0114    0.0000 O   0  0  0  0  0  0  0  0  0  0  0  0
    8.0137   -1.3303    0.0000 O   0  0  0  0  0  0  0  0  0  0  0  0
  1  2  1  0  0  0  0
  1  6  1  0  0  0  0
  1 10  1  1  0  0  0
  2  3  1  0  0  0  0
  2  7  1  1  0  0  0
  3  4  1  0  0  0  0
  3  8  1  6  0  0  0
  4  5  1  0  0  0  0
  4  9  1  6  0  0  0
  5 12  1  0  0  0  0
  6 11  1  0  0  0  0
M  END
> <ID>
11375

> <Formula>
C6H14O6

> <FW>
182.1718

> <DSSTox_CID>
26051

> <DSSTox_RID>
81307

> <DSSTox_GSID>
46051

> <DSSTox_FileID_Sort>
5988

> <TS_ChemName>
D-Galactitol

> <TS_ChemName_Synonyms>


> <TS_CASRN>
608-66-2

> <CASRN_ChemName_Relationship>
primary

> <TS_Description>
single chemical compound

> <ChemNote>
stereochem

> <STRUCTURE_Shown>
tested chemical

> <STRUCTURE_Formula>
C6H14O6

> <STRUCTURE_MW>
182.1718

> <STRUCTURE_ChemType>
defined organic

> <STRUCTURE_DefinedOrganicForm>
parent

> <STRUCTURE_IUPAC>
D-galactitol

> <STRUCTURE_SMILES>
O[C@H]([C@@H](O)CO)[C@@H](O)[C@H](O)CO

> <STRUCTURE_SMILES_Desalt>
O[C@H]([C@@H](O)CO)[C@@H](O)[C@H](O)CO

> <Substance_modify_yyyymmdd>
20110822

$$$$
