608-71-9
ChemmineR-0915142007XD

 12 12  0  0  0  0  0  0  0  0  1 V2000
    0.0000   -2.3036    0.0000 O    0  0  0  0  0  0  0  0  0  0  0  0
    1.3300   -2.3036    0.0000 C    0  0  0  0  0  0  0  0  0  0  0  0
    1.9950   -1.1491    0.0000 C    0  0  0  0  0  0  0  0  0  0  0  0
    1.3300    0.0000    0.0000 Br   0  0  0  0  0  0  0  0  0  0  0  0
    3.3250   -1.1491    0.0000 C    0  0  0  0  0  0  0  0  0  0  0  0
    3.9901    0.0000    0.0000 Br   0  0  0  0  0  0  0  0  0  0  0  0
    3.9901   -2.3036    0.0000 C    0  0  0  0  0  0  0  0  0  0  0  0
    5.3201   -2.3036    0.0000 Br   0  0  0  0  0  0  0  0  0  0  0  0
    3.3250   -3.4580    0.0000 C    0  0  0  0  0  0  0  0  0  0  0  0
    3.9901   -4.6072    0.0000 Br   0  0  0  0  0  0  0  0  0  0  0  0
    1.9950   -3.4580    0.0000 C    0  0  0  0  0  0  0  0  0  0  0  0
    1.3300   -4.6072    0.0000 Br   0  0  0  0  0  0  0  0  0  0  0  0
  1  2  1  0  0  0  0
  2  3  2  0  0  0  0
  2 11  1  0  0  0  0
  3  4  1  0  0  0  0
  3  5  1  0  0  0  0
  5  6  1  0  0  0  0
  5  7  2  0  0  0  0
  7  8  1  0  0  0  0
  7  9  1  0  0  0  0
  9 10  1  0  0  0  0
  9 11  2  0  0  0  0
 11 12  1  0  0  0  0
M  END
> <ID>
1922

> <Formula>
C6HBr5O

> <FW>
488.5915

> <DSSTox_CID>
2079

> <DSSTox_RID>
76480

> <DSSTox_GSID>
22079

> <DSSTox_FileID_Sort>
1164

> <TS_ChemName>
Pentabromophenol

> <TS_ChemName_Synonyms>


> <TS_CASRN>
608-71-9

> <CASRN_ChemName_Relationship>
primary

> <TS_Description>
single chemical compound

> <ChemNote>


> <STRUCTURE_Shown>
tested chemical

> <STRUCTURE_Formula>
C6HBr5O

> <STRUCTURE_MW>
488.5915

> <STRUCTURE_ChemType>
defined organic

> <STRUCTURE_DefinedOrganicForm>
parent

> <STRUCTURE_IUPAC>
pentabromophenol

> <STRUCTURE_SMILES>
Brc1c(O)c(Br)c(Br)c(Br)c1Br

> <STRUCTURE_SMILES_Desalt>
Brc1c(O)c(Br)c(Br)c(Br)c1Br

> <Substance_modify_yyyymmdd>
20080429

$$$$
