6080-56-4
ChemmineR-0915142007XD

 12  6  0  0  0  0  0  0  0  0  2 V2000
    4.8329   -3.2716    0.0000 C    0  0  0  0  0  0  0  0  0  0  0  0
    5.4995   -2.1138    0.0000 O    0  5  0  0  0  0  0  0  0  0  0  0
    5.4995   -4.4119    0.0000 C    0  0  0  0  0  0  0  0  0  0  0  0
    3.4997   -3.2716    0.0000 O    0  0  0  0  0  0  0  0  0  0  0  0
    2.8243   -5.7539    0.0000 Pb   0  2  0  0  0  2  0  0  0  0  0  0
    2.2893   -2.1138    0.0000 O    0  5  0  0  0  0  0  0  0  0  0  0
    1.6314   -3.2716    0.0000 C    0  0  0  0  0  0  0  0  0  0  0  0
    2.2893   -4.4119    0.0000 C    0  0  0  0  0  0  0  0  0  0  0  0
    0.2894   -3.2716    0.0000 O    0  0  0  0  0  0  0  0  0  0  0  0
    0.0000   -5.4030    0.0000 O    0  0  0  0  0  0  0  0  0  0  0  0
    8.7711   -3.6225    0.0000 O    0  0  0  0  0  0  0  0  0  0  0  0
    2.4208    0.0000    0.0000 O    0  0  0  0  0  0  0  0  0  0  0  0
  1  2  1  0  0  0  0
  1  3  1  0  0  0  0
  1  4  2  0  0  0  0
  6  7  1  0  0  0  0
  7  8  1  0  0  0  0
  7  9  2  0  0  0  0
M  END
> <ID>
6339

> <Formula>
C4H12O7Pb

> <FW>
379.3339 (59.0446+207.1989+59.0446+18.0153+18.0153+18.0153)

> <DSSTox_CID>
11521

> <DSSTox_RID>
78882

> <DSSTox_GSID>
31521

> <DSSTox_FileID_Sort>
3564

> <TS_ChemName>
Lead(II) acetate trihydrate

> <TS_ChemName_Synonyms>


> <TS_CASRN>
6080-56-4

> <CASRN_ChemName_Relationship>
primary

> <TS_Description>
single chemical compound

> <ChemNote>


> <STRUCTURE_Shown>
tested chemical

> <STRUCTURE_Formula>
C4H12O7Pb

> <STRUCTURE_MW>
379.3339

> <STRUCTURE_ChemType>
organometallic

> <STRUCTURE_DefinedOrganicForm>


> <STRUCTURE_IUPAC>
lead(2+) acetate hydrate (1:2:3)

> <STRUCTURE_SMILES>
[O-]C(C)=O.[O-]C(C)=O.[Pb+2].O.O.O

> <STRUCTURE_SMILES_Desalt>
CC(=O)O

> <Substance_modify_yyyymmdd>
20080429

$$$$
