608140-12-1
ChemmineR-0915142007XD

 25 24  0  0  0  0  0  0  0  0  2 V2000
    3.7747   -4.8844    0.0000 C   0  0  0  0  0  0  0  0  0  0  0  0
    0.4912   -3.7566    0.0000 C   0  0  0  0  0  0  0  0  0  0  0  0
    3.1017   -3.7566    0.0000 C   0  0  0  0  0  0  0  0  0  0  0  0
    1.1279    0.0000    0.0000 C   0  0  0  0  0  0  0  0  0  0  0  0
    0.0000   -0.6640    0.0000 C   0  0  0  0  0  0  0  0  0  0  0  0
    2.2648   -0.6458    0.0000 C   0  0  0  0  0  0  0  0  0  0  0  0
    1.8101   -3.7566    0.0000 C   0  0  0  0  0  0  0  0  0  0  0  0
    0.0000   -1.9829    0.0000 C   0  0  0  0  0  0  0  0  0  0  0  0
    2.2648   -1.9465    0.0000 C   0  0  0  0  0  0  0  0  0  0  0  0
    1.1370   -2.6105    0.0000 N   0  3  0  0  0  0  0  0  0  0  0  0
    6.4944   -6.5490    0.0000 S   0  0  0  0  0  0  0  0  0  0  0  0
    2.6469   -7.7769    0.0000 C   0  0  0  0  0  0  0  0  0  0  0  0
    1.3280   -7.7769    0.0000 F   0  0  0  0  0  0  0  0  0  0  0  0
    2.6469   -9.0958    0.0000 F   0  0  0  0  0  0  0  0  0  0  0  0
    2.6469   -6.4671    0.0000 F   0  0  0  0  0  0  0  0  0  0  0  0
    5.2755   -7.7769    0.0000 N   0  5  0  0  0  0  0  0  0  0  0  0
    3.9658   -9.0958    0.0000 O   0  0  0  0  0  0  0  0  0  0  0  0
    3.9658   -6.4671    0.0000 O   0  0  0  0  0  0  0  0  0  0  0  0
    3.9658   -7.7769    0.0000 S   0  0  0  0  0  0  0  0  0  0  0  0
    7.1493   -5.4029    0.0000 C   0  0  0  0  0  0  0  0  0  0  0  0
    8.2862   -6.0578    0.0000 F   0  0  0  0  0  0  0  0  0  0  0  0
    6.0032   -4.7571    0.0000 F   0  0  0  0  0  0  0  0  0  0  0  0
    7.8133   -4.2659    0.0000 F   0  0  0  0  0  0  0  0  0  0  0  0
    7.6404   -7.1948    0.0000 O   0  0  0  0  0  0  0  0  0  0  0  0
    5.3574   -5.8941    0.0000 O   0  0  0  0  0  0  0  0  0  0  0  0
  1  3  1  0  0  0  0
  2 10  1  0  0  0  0
  3  7  1  0  0  0  0
  4  5  1  0  0  0  0
  4  6  1  0  0  0  0
  5  8  1  0  0  0  0
  6  9  1  0  0  0  0
  7 10  1  0  0  0  0
  8 10  1  0  0  0  0
  9 10  1  0  0  0  0
 11 16  1  0  0  0  0
 11 20  1  0  0  0  0
 11 24  2  0  0  0  0
 11 25  2  0  0  0  0
 12 13  1  0  0  0  0
 12 14  1  0  0  0  0
 12 15  1  0  0  0  0
 12 19  1  0  0  0  0
 16 19  1  0  0  0  0
 17 19  2  0  0  0  0
 18 19  2  0  0  0  0
 20 21  1  0  0  0  0
 20 22  1  0  0  0  0
 20 23  1  0  0  0  0
M  END
> <ID>
14193

> <Formula>
C11H20F6N2O4S2

> <FW>
422.4079 (142.2613+280.1467)

> <DSSTox_CID>
29285

> <DSSTox_RID>
83404

> <DSSTox_GSID>
49329

> <DSSTox_FileID_Sort>
8079

> <TS_ChemName>
1-Methyl-1-propylpiperidinium bis(trifluoromethylsulfonyl)imide

> <TS_ChemName_Synonyms>


> <TS_CASRN>
608140-12-1

> <CASRN_ChemName_Relationship>
primary

> <TS_Description>
single chemical compound

> <ChemNote>


> <STRUCTURE_Shown>
tested chemical

> <STRUCTURE_Formula>
C11H20F6N2O4S2

> <STRUCTURE_MW>
422.4079

> <STRUCTURE_ChemType>
defined organic

> <STRUCTURE_DefinedOrganicForm>
complex

> <STRUCTURE_IUPAC>
1-methyl-1-propylpiperidinium bis[(trifluoromethyl)sulfonyl]azanide

> <STRUCTURE_SMILES>
CCC[N+]1(C)CCCCC1.FC(F)(F)S(=O)(=O)[N-]S(=O)(=O)C(F)(F)F

> <STRUCTURE_SMILES_Desalt>
O=S(=O)(NS(=O)(=O)C(F)(F)F)C(F)(F)F

> <Substance_modify_yyyymmdd>
20111204

$$$$
