60812-23-9
ChemmineR-0915142007XD

 17 15  0  0  0  0  0  0  0  0  1 V2000
   16.1534   -1.4861    0.0000 C    0  0  0  0  0  0  0  0  0  0  0  0
   14.9904   -2.1484    0.0000 C    0  0  0  0  0  0  0  0  0  0  0  0
   13.8435   -1.4861    0.0000 C    0  0  0  0  0  0  0  0  0  0  0  0
   12.6804   -2.1484    0.0000 C    0  0  0  0  0  0  0  0  0  0  0  0
   11.5335   -1.4861    0.0000 C    0  0  0  0  0  0  0  0  0  0  0  0
   10.3705   -2.1484    0.0000 C    0  0  0  0  0  0  0  0  0  0  0  0
    9.2236   -1.4861    0.0000 C    0  0  0  0  0  0  0  0  0  0  0  0
    8.0767   -2.1484    0.0000 C    0  0  0  0  0  0  0  0  0  0  0  0
    6.9298   -1.4861    0.0000 C    0  0  0  0  0  0  0  0  0  0  0  0
    5.7829   -2.1484    0.0000 C    0  0  0  0  0  0  0  0  0  0  0  0
    4.6199   -1.4861    0.0000 O    0  0  0  0  0  0  0  0  0  0  0  0
    3.4730   -2.1484    0.0000 C    0  0  0  0  0  0  0  0  0  0  0  0
    2.3099   -1.4861    0.0000 C    0  0  0  0  0  0  0  0  0  0  0  0
    2.3099   -0.1615    0.0000 O    0  0  0  0  0  0  0  0  0  0  0  0
    1.1630   -2.1484    0.0000 C    0  0  0  0  0  0  0  0  0  0  0  0
    0.0000   -1.4861    0.0000 N    0  0  0  0  0  0  0  0  0  0  0  0
    8.5613    0.0000    0.0000 Cl   0  0  0  0  0  0  0  0  0  0  0  0
  1  2  1  0  0  0  0
  2  3  1  0  0  0  0
  3  4  1  0  0  0  0
  4  5  1  0  0  0  0
  5  6  1  0  0  0  0
  6  7  1  0  0  0  0
  7  8  1  0  0  0  0
  8  9  1  0  0  0  0
  9 10  1  0  0  0  0
 10 11  1  0  0  0  0
 11 12  1  0  0  0  0
 12 13  1  0  0  0  0
 13 14  1  0  0  0  0
 13 15  1  0  0  0  0
 15 16  1  0  0  0  0
M  END
> <ID>
11760

> <Formula>
C13H30ClNO2

> <FW>
267.8358 (231.3749+36.4609)

> <DSSTox_CID>
26529

> <DSSTox_RID>
81694

> <DSSTox_GSID>
46529

> <DSSTox_FileID_Sort>
6375

> <TS_ChemName>
Decominol hydrochloride

> <TS_ChemName_Synonyms>


> <TS_CASRN>
60812-23-9

> <CASRN_ChemName_Relationship>
primary

> <TS_Description>
single chemical compound

> <ChemNote>
parent [60812-23-9]

> <STRUCTURE_Shown>
tested chemical

> <STRUCTURE_Formula>
C13H30ClNO2

> <STRUCTURE_MW>
267.8358

> <STRUCTURE_ChemType>
defined organic

> <STRUCTURE_DefinedOrganicForm>
complex

> <STRUCTURE_IUPAC>
1-amino-3-(decyloxy)propan-2-ol hydrochloride (1:1)

> <STRUCTURE_SMILES>
Cl.OC(COCCCCCCCCCC)CN

> <STRUCTURE_SMILES_Desalt>
OC(COCCCCCCCCCC)CN

> <Substance_modify_yyyymmdd>
20110811

$$$$
