608140-09-6
ChemmineR-0915142007XD

 10  9  0  0  0  0  0  0  0  0  2 V2000
    3.7394   -4.3431    0.0000 C    0  0  0  0  0  0  0  0  0  0  0  0
    0.4165   -3.2105    0.0000 C    0  0  0  0  0  0  0  0  0  0  0  0
    3.0654   -3.1965    0.0000 C    0  0  0  0  0  0  0  0  0  0  0  0
    1.7410    0.0000    0.0000 C    0  0  0  0  0  0  0  0  0  0  0  0
    0.4165    0.0000    0.0000 C    0  0  0  0  0  0  0  0  0  0  0  0
    1.7410   -3.1965    0.0000 C    0  0  0  0  0  0  0  0  0  0  0  0
    2.1575   -1.2636    0.0000 C    0  0  0  0  0  0  0  0  0  0  0  0
    0.0000   -1.2777    0.0000 C    0  0  0  0  0  0  0  0  0  0  0  0
    1.0717   -2.0592    0.0000 N    0  3  0  0  0  0  0  0  0  0  0  0
    1.4040   -4.6801    0.0000 Br   0  5  0  0  0  0  0  0  0  0  0  0
  1  3  1  0  0  0  0
  2  9  1  0  0  0  0
  3  6  1  0  0  0  0
  4  5  1  0  0  0  0
  4  7  1  0  0  0  0
  5  8  1  0  0  0  0
  6  9  1  0  0  0  0
  7  9  1  0  0  0  0
  8  9  1  0  0  0  0
M  END
> <ID>
14192

> <Formula>
C8H18BrN

> <FW>
208.1392 (128.2347+79.9045)

> <DSSTox_CID>
29284

> <DSSTox_RID>
83403

> <DSSTox_GSID>
49328

> <DSSTox_FileID_Sort>
8078

> <TS_ChemName>
1-Methyl-1-propylpyrrolidinium bromide

> <TS_ChemName_Synonyms>


> <TS_CASRN>
608140-09-6

> <CASRN_ChemName_Relationship>
primary

> <TS_Description>
single chemical compound

> <ChemNote>


> <STRUCTURE_Shown>
tested chemical

> <STRUCTURE_Formula>
C8H18BrN

> <STRUCTURE_MW>
208.1392

> <STRUCTURE_ChemType>
defined organic

> <STRUCTURE_DefinedOrganicForm>
salt

> <STRUCTURE_IUPAC>
1-methyl-1-propylpyrrolidinium bromide

> <STRUCTURE_SMILES>
[Br-].C[N+]1(CCC)CCCC1

> <STRUCTURE_SMILES_Desalt>
C[N+]1(CCC)CCCC1

> <Substance_modify_yyyymmdd>
20111204

$$$$
