60875-16-3
ChemmineR-0915142007XD

 16 17  0  0  0  0  0  0  0  0  1 V2000
    8.4415   -1.4554    0.0000 C   0  0  0  0  0  0  0  0  0  0  0  0
    9.0964   -0.3002    0.0000 O   0  0  0  0  0  0  0  0  0  0  0  0
    7.1134   -1.4554    0.0000 C   0  0  0  0  0  0  0  0  0  0  0  0
    9.0964   -2.6107    0.0000 O   0  0  0  0  0  0  0  0  0  0  0  0
    6.4403   -2.6107    0.0000 C   0  0  0  0  0  0  0  0  0  0  0  0
    6.4403   -0.3002    0.0000 C   0  0  0  0  0  0  0  0  0  0  0  0
    5.1122   -2.6107    0.0000 C   0  0  0  0  0  0  0  0  0  0  0  0
    5.1122   -0.3002    0.0000 C   0  0  0  0  0  0  0  0  0  0  0  0
    4.4482   -1.4554    0.0000 C   0  0  0  0  0  0  0  0  0  0  0  0
    2.3378   -0.3821    0.0000 N   0  0  0  0  0  0  0  0  0  0  0  0
    3.1201   -1.4554    0.0000 N   0  0  0  0  0  0  0  0  0  0  0  0
    1.0734   -2.1104    0.0000 C   0  0  0  0  0  0  0  0  0  0  0  0
    2.3378   -2.5288    0.0000 C   0  0  0  0  0  0  0  0  0  0  0  0
    1.0734   -0.7823    0.0000 C   0  0  0  0  0  0  0  0  0  0  0  0
    0.0000    0.0000    0.0000 C   0  0  0  0  0  0  0  0  0  0  0  0
    2.7562   -3.7932    0.0000 O   0  0  0  0  0  0  0  0  0  0  0  0
  1  2  2  0  0  0  0
  1  3  1  0  0  0  0
  1  4  1  0  0  0  0
  3  5  2  0  0  0  0
  3  6  1  0  0  0  0
  5  7  1  0  0  0  0
  6  8  2  0  0  0  0
  7  9  2  0  0  0  0
  8  9  1  0  0  0  0
  9 11  1  0  0  0  0
 10 11  1  0  0  0  0
 10 14  2  0  0  0  0
 11 13  1  0  0  0  0
 12 13  1  0  0  0  0
 12 14  1  0  0  0  0
 13 16  2  0  0  0  0
 14 15  1  0  0  0  0
M  END
> <ID>
10610

> <Formula>
C11H10N2O3

> <FW>
218.2087

> <DSSTox_CID>
24963

> <DSSTox_RID>
80618

> <DSSTox_GSID>
44963

> <DSSTox_FileID_Sort>
5300

> <TS_ChemName>
4-(3-Methyl-5-oxo-4,5-dihydro-1H-pyrazol-1-yl)benzoic acid

> <TS_ChemName_Synonyms>
4-(3-Methyl-5-oxo-4,5-dihydro-1H-pyrazol-1-yl)benzoic acid (Benzoic acid, 4-(4,5-dihydro-3-methyl-5-oxo-1H-pyrazol-1-yl)-)

> <TS_CASRN>
60875-16-3

> <CASRN_ChemName_Relationship>
primary

> <TS_Description>
single chemical compound

> <ChemNote>
tautomers

> <STRUCTURE_Shown>
tested chemical

> <STRUCTURE_Formula>
C11H10N2O3

> <STRUCTURE_MW>
218.2087

> <STRUCTURE_ChemType>
defined organic

> <STRUCTURE_DefinedOrganicForm>
parent

> <STRUCTURE_IUPAC>
4-(3-methyl-5-oxo-4,5-dihydro-1H-pyrazol-1-yl)benzoic acid

> <STRUCTURE_SMILES>
O=C(O)c1ccc(cc1)N2N=C(C)CC2=O

> <STRUCTURE_SMILES_Desalt>
O=C(O)c1ccc(cc1)N2N=C(C)CC2=O

> <Substance_modify_yyyymmdd>
20091116

$$$$
