6088-51-3
ChemmineR-0915142007XD

 24 27  0  0  0  0  0  0  0  0  1 V2000
   14.9592    0.0000    0.0000 O   0  0  0  0  0  0  0  0  0  0  0  0
   13.8074   -0.6732    0.0000 C   0  0  0  0  0  0  0  0  0  0  0  0
   13.8074   -1.9896    0.0000 C   0  0  0  0  0  0  0  0  0  0  0  0
   12.6555   -2.6627    0.0000 C   0  0  0  0  0  0  0  0  0  0  0  0
   11.5036   -1.9896    0.0000 C   0  0  0  0  0  0  0  0  0  0  0  0
   10.3518   -2.6627    0.0000 C   0  0  0  0  0  0  0  0  0  0  0  0
    9.1999   -1.9896    0.0000 C   0  0  0  0  0  0  0  0  0  0  0  0
    8.0481   -2.6627    0.0000 S   0  0  0  0  0  0  0  0  0  0  0  0
    6.8962   -1.9896    0.0000 S   0  0  0  0  0  0  0  0  0  0  0  0
    5.7593   -2.6627    0.0000 C   0  0  0  0  0  0  0  0  0  0  0  0
    5.7593   -3.9941    0.0000 C   0  0  0  0  0  0  0  0  0  0  0  0
    4.6074   -4.6523    0.0000 C   0  0  0  0  0  0  0  0  0  0  0  0
    3.4556   -3.9941    0.0000 C   0  0  0  0  0  0  0  0  0  0  0  0
    2.3037   -4.6523    0.0000 C   0  0  0  0  0  0  0  0  0  0  0  0
    1.1519   -3.9941    0.0000 C   0  0  0  0  0  0  0  0  0  0  0  0
    0.0000   -4.6523    0.0000 O   0  0  0  0  0  0  0  0  0  0  0  0
    1.1519   -2.6627    0.0000 C   0  0  0  0  0  0  0  0  0  0  0  0
    2.3037   -1.9896    0.0000 C   0  0  0  0  0  0  0  0  0  0  0  0
    3.4556   -2.6627    0.0000 C   0  0  0  0  0  0  0  0  0  0  0  0
    4.6074   -1.9896    0.0000 C   0  0  0  0  0  0  0  0  0  0  0  0
    9.1999   -0.6732    0.0000 C   0  0  0  0  0  0  0  0  0  0  0  0
   10.3518    0.0000    0.0000 C   0  0  0  0  0  0  0  0  0  0  0  0
   11.5036   -0.6732    0.0000 C   0  0  0  0  0  0  0  0  0  0  0  0
   12.6555    0.0000    0.0000 C   0  0  0  0  0  0  0  0  0  0  0  0
  1  2  1  0  0  0  0
  2  3  2  0  0  0  0
  2 24  1  0  0  0  0
  3  4  1  0  0  0  0
  4  5  2  0  0  0  0
  5  6  1  0  0  0  0
  5 23  1  0  0  0  0
  6  7  2  0  0  0  0
  7  8  1  0  0  0  0
  7 21  1  0  0  0  0
  8  9  1  0  0  0  0
  9 10  1  0  0  0  0
 10 11  2  0  0  0  0
 10 20  1  0  0  0  0
 11 12  1  0  0  0  0
 12 13  2  0  0  0  0
 13 14  1  0  0  0  0
 13 19  1  0  0  0  0
 14 15  2  0  0  0  0
 15 16  1  0  0  0  0
 15 17  1  0  0  0  0
 17 18  2  0  0  0  0
 18 19  1  0  0  0  0
 19 20  2  0  0  0  0
 21 22  2  0  0  0  0
 22 23  1  0  0  0  0
 23 24  2  0  0  0  0
M  END
> <ID>
4191

> <Formula>
C20H14O2S2

> <FW>
350.454

> <DSSTox_CID>
5429

> <DSSTox_RID>
77783

> <DSSTox_GSID>
25429

> <DSSTox_FileID_Sort>
2466

> <TS_ChemName>
6-Hydroxy-2-naphthyl disulfide

> <TS_ChemName_Synonyms>
6-hydroxy-2-naphthyl disulfide (DDD) (6,6’-Dithiodi-(2-naphthol))

> <TS_CASRN>
6088-51-3

> <CASRN_ChemName_Relationship>
primary

> <TS_Description>
single chemical compound

> <ChemNote>


> <STRUCTURE_Shown>
tested chemical

> <STRUCTURE_Formula>
C20H14O2S2

> <STRUCTURE_MW>
350.454

> <STRUCTURE_ChemType>
defined organic

> <STRUCTURE_DefinedOrganicForm>
parent

> <STRUCTURE_IUPAC>
6,6'-disulfanediyldinaphthalen-2-ol

> <STRUCTURE_SMILES>
Oc1ccc2cc(ccc2c1)SSc3ccc4cc(O)ccc4c3

> <STRUCTURE_SMILES_Desalt>
Oc1ccc2cc(ccc2c1)SSc3ccc4cc(O)ccc4c3

> <Substance_modify_yyyymmdd>
20080429

$$$$
