609-15-4
ChemmineR-0915142007XD

 10  9  0  0  0  0  0  0  0  0  1 V2000
    6.8950   -1.9996    0.0000 C    0  0  0  0  0  0  0  0  0  0  0  0
    0.0000   -1.9996    0.0000 C    0  0  0  0  0  0  0  0  0  0  0  0
    5.7436   -1.3307    0.0000 C    0  0  0  0  0  0  0  0  0  0  0  0
    1.1377   -1.3307    0.0000 C    0  0  0  0  0  0  0  0  0  0  0  0
    2.2891   -1.9996    0.0000 C    0  0  0  0  0  0  0  0  0  0  0  0
    3.4406   -1.3307    0.0000 C    0  0  0  0  0  0  0  0  0  0  0  0
    2.2891   -3.3303    0.0000 Cl   0  0  0  0  0  0  0  0  0  0  0  0
    1.1377    0.0000    0.0000 O    0  0  0  0  0  0  0  0  0  0  0  0
    3.4406    0.0000    0.0000 O    0  0  0  0  0  0  0  0  0  0  0  0
    4.5921   -1.9996    0.0000 O    0  0  0  0  0  0  0  0  0  0  0  0
  1  3  1  0  0  0  0
  2  4  1  0  0  0  0
  3 10  1  0  0  0  0
  4  5  1  0  0  0  0
  4  8  2  0  0  0  0
  5  6  1  0  0  0  0
  5  7  1  0  0  0  0
  6  9  2  0  0  0  0
  6 10  1  0  0  0  0
M  END
> <ID>
14194

> <Formula>
C6H9ClO3

> <FW>
164.5869

> <DSSTox_CID>
29286

> <DSSTox_RID>
83405

> <DSSTox_GSID>
49330

> <DSSTox_FileID_Sort>
8080

> <TS_ChemName>
Ethyl 2-chloroacetoacetate

> <TS_ChemName_Synonyms>


> <TS_CASRN>
609-15-4

> <CASRN_ChemName_Relationship>
primary

> <TS_Description>
single chemical compound

> <ChemNote>


> <STRUCTURE_Shown>
tested chemical

> <STRUCTURE_Formula>
C6H9ClO3

> <STRUCTURE_MW>
164.5869

> <STRUCTURE_ChemType>
defined organic

> <STRUCTURE_DefinedOrganicForm>
parent

> <STRUCTURE_IUPAC>
ethyl 2-chloro-3-oxobutanoate

> <STRUCTURE_SMILES>
O=C(C)C(Cl)C(=O)OCC

> <STRUCTURE_SMILES_Desalt>
O=C(C)C(Cl)C(=O)OCC

> <Substance_modify_yyyymmdd>
20111204

$$$$
