609-36-9
ChemmineR-0915142007XD

  8  8  0  0  0  0  0  0  0  0  1 V2000
    3.3971   -1.2939    0.0000 C   0  0  0  0  0  0  0  0  0  0  0  0
    1.0761   -1.0094    0.0000 N   0  0  0  0  0  0  0  0  0  0  0  0
    2.1521   -1.7519    0.0000 C   0  0  0  0  0  0  0  0  0  0  0  0
    3.6461    0.0000    0.0000 O   0  0  0  0  0  0  0  0  0  0  0  0
    4.4465   -2.1121    0.0000 O   0  0  0  0  0  0  0  0  0  0  0  0
    0.0000   -1.7519    0.0000 C   0  0  0  0  0  0  0  0  0  0  0  0
    1.7386   -3.0503    0.0000 C   0  0  0  0  0  0  0  0  0  0  0  0
    0.4135   -3.0503    0.0000 C   0  0  0  0  0  0  0  0  0  0  0  0
  1  3  1  0  0  0  0
  1  4  2  0  0  0  0
  1  5  1  0  0  0  0
  2  3  1  0  0  0  0
  2  6  1  0  0  0  0
  3  7  1  0  0  0  0
  6  8  1  0  0  0  0
  7  8  1  0  0  0  0
M  END
> <ID>
8107

> <Formula>
C5H9NO2

> <FW>
115.1305

> <DSSTox_CID>
21104

> <DSSTox_RID>
79626

> <DSSTox_GSID>
41104

> <DSSTox_FileID_Sort>
4308

> <TS_ChemName>
Proline

> <TS_ChemName_Synonyms>


> <TS_CASRN>
609-36-9

> <CASRN_ChemName_Relationship>
primary

> <TS_Description>
single chemical compound

> <ChemNote>


> <STRUCTURE_Shown>
tested chemical

> <STRUCTURE_Formula>
C5H9NO2

> <STRUCTURE_MW>
115.1305

> <STRUCTURE_ChemType>
defined organic

> <STRUCTURE_DefinedOrganicForm>
parent

> <STRUCTURE_IUPAC>
proline

> <STRUCTURE_SMILES>
O=C(O)C1CCCN1

> <STRUCTURE_SMILES_Desalt>
O=C(O)C1CCCN1

> <Substance_modify_yyyymmdd>
20080429

$$$$
