609-14-3
ChemmineR-0915142007XD

 10  9  0  0  0  0  0  0  0  0  1 V2000
    3.4693   -1.3391    0.0000 C   0  0  0  0  0  0  0  0  0  0  0  0
    4.6488   -1.9844    0.0000 C   0  0  0  0  0  0  0  0  0  0  0  0
    5.7798   -1.3391    0.0000 C   0  0  0  0  0  0  0  0  0  0  0  0
    6.9385   -1.9844    0.0000 C   0  0  0  0  0  0  0  0  0  0  0  0
    3.4693    0.0000    0.0000 O   0  0  0  0  0  0  0  0  0  0  0  0
    2.3383   -1.9844    0.0000 O   0  0  0  0  0  0  0  0  0  0  0  0
    4.6488   -3.3236    0.0000 C   0  0  0  0  0  0  0  0  0  0  0  0
    5.7798    0.0000    0.0000 O   0  0  0  0  0  0  0  0  0  0  0  0
    1.1796   -1.3391    0.0000 C   0  0  0  0  0  0  0  0  0  0  0  0
    0.0000   -1.9983    0.0000 C   0  0  0  0  0  0  0  0  0  0  0  0
  1  2  1  0  0  0  0
  1  6  1  0  0  0  0
  1  5  2  0  0  0  0
  2  3  1  0  0  0  0
  2  7  1  0  0  0  0
  3  4  1  0  0  0  0
  3  8  2  0  0  0  0
  6  9  1  0  0  0  0
  9 10  1  0  0  0  0
M  END
> <ID>
6629

> <Formula>
C7H12O3

> <FW>
144.1684

> <DSSTox_CID>
13493

> <DSSTox_RID>
79078

> <DSSTox_GSID>
33493

> <DSSTox_FileID_Sort>
3760

> <TS_ChemName>
Ethyl-2-methyl acetoacetate

> <TS_ChemName_Synonyms>


> <TS_CASRN>
609-14-3

> <CASRN_ChemName_Relationship>
primary

> <TS_Description>
single chemical compound

> <ChemNote>
tautomers

> <STRUCTURE_Shown>
tested chemical

> <STRUCTURE_Formula>
C7H12O3

> <STRUCTURE_MW>
144.1684

> <STRUCTURE_ChemType>
defined organic

> <STRUCTURE_DefinedOrganicForm>
parent

> <STRUCTURE_IUPAC>
ethyl 2-methyl-3-oxobutanoate

> <STRUCTURE_SMILES>
O=C(C)C(C)C(=O)OCC

> <STRUCTURE_SMILES_Desalt>
O=C(C)C(C)C(=O)OCC

> <Substance_modify_yyyymmdd>
20080429

$$$$
