609-93-8
ChemmineR-0915142007XD

 14 14  0  0  0  0  0  0  0  0  2 V2000
    3.4607   -1.3263    0.0000 C   0  0  0  0  0  0  0  0  0  0  0  0
    3.4607    0.0000    0.0000 O   0  0  0  0  0  0  0  0  0  0  0  0
    4.6004   -2.0032    0.0000 C   0  0  0  0  0  0  0  0  0  0  0  0
    2.3071   -2.0032    0.0000 C   0  0  0  0  0  0  0  0  0  0  0  0
    2.3071   -3.3295    0.0000 C   0  0  0  0  0  0  0  0  0  0  0  0
    4.6004   -3.3295    0.0000 C   0  0  0  0  0  0  0  0  0  0  0  0
    3.4607   -3.9857    0.0000 C   0  0  0  0  0  0  0  0  0  0  0  0
    3.4607   -5.3188    0.0000 C   0  0  0  0  0  0  0  0  0  0  0  0
    5.7540   -1.3263    0.0000 N   0  3  0  0  0  0  0  0  0  0  0  0
    5.7540    0.0000    0.0000 O   0  5  0  0  0  0  0  0  0  0  0  0
    6.9076   -2.0032    0.0000 O   0  0  0  0  0  0  0  0  0  0  0  0
    1.1536   -1.3263    0.0000 N   0  3  0  0  0  0  0  0  0  0  0  0
    0.0000   -2.0032    0.0000 O   0  5  0  0  0  0  0  0  0  0  0  0
    1.1536    0.0000    0.0000 O   0  0  0  0  0  0  0  0  0  0  0  0
  1  2  1  0  0  0  0
  1  3  2  0  0  0  0
  1  4  1  0  0  0  0
  3  6  1  0  0  0  0
  3  9  1  0  0  0  0
  4  5  2  0  0  0  0
  4 12  1  0  0  0  0
  5  7  1  0  0  0  0
  6  7  2  0  0  0  0
  7  8  1  0  0  0  0
  9 10  1  0  0  0  0
  9 11  2  0  0  0  0
 12 13  1  0  0  0  0
 12 14  2  0  0  0  0
M  END
> <ID>
5016

> <Formula>
C7H6N2O5

> <FW>
198.1329

> <DSSTox_CID>
7239

> <DSSTox_RID>
78363

> <DSSTox_GSID>
27239

> <DSSTox_FileID_Sort>
3046

> <TS_ChemName>
4-Methyl-2,6-dinitrophenol

> <TS_ChemName_Synonyms>


> <TS_CASRN>
609-93-8

> <CASRN_ChemName_Relationship>
primary

> <TS_Description>
single chemical compound

> <ChemNote>


> <STRUCTURE_Shown>
tested chemical

> <STRUCTURE_Formula>
C7H6N2O5

> <STRUCTURE_MW>
198.1329

> <STRUCTURE_ChemType>
defined organic

> <STRUCTURE_DefinedOrganicForm>
parent

> <STRUCTURE_IUPAC>
4-methyl-2,6-dinitrophenol

> <STRUCTURE_SMILES>
O=[N+]([O-])c1cc(C)cc([N+]([O-])=O)c1O

> <STRUCTURE_SMILES_Desalt>
O=[N+]([O-])c1cc(C)cc([N+]([O-])=O)c1O

> <Substance_modify_yyyymmdd>
20080429

$$$$
