60925-61-3
ChemmineR-0915142007XD

 37 40  0  0  1  0  0  0  0  0  1 V2000
    8.2689   -3.7411    0.0000 N   0  0  0  0  0  0  0  0  0  0  0  0
    6.7130   -3.7411    0.0000 C   0  0  0  0  0  0  0  0  0  0  0  0
    8.2689   -2.2901    0.0000 C   0  0  0  0  0  0  0  0  0  0  0  0
    6.7130   -2.2901    0.0000 C   0  0  0  0  0  0  0  0  0  0  0  0
   14.1079   -1.6433    0.0000 N   0  0  0  0  0  0  0  0  0  0  0  0
   12.9890   -2.3251    0.0000 C   0  0  0  0  0  0  0  0  0  0  0  0
    9.4053   -4.4229    0.0000 C   0  0  0  0  0  0  0  0  0  0  0  0
   11.9401   -1.6258    0.0000 N   0  0  0  0  0  0  0  0  0  0  0  0
   12.3597   -0.2972    0.0000 N   0  0  0  0  0  0  0  0  0  0  0  0
   13.6883   -0.2972    0.0000 N   0  0  0  0  0  0  0  0  0  0  0  0
    9.4053   -1.6433    0.0000 S   0  0  0  0  0  0  0  0  0  0  0  0
   10.6290   -3.7062    0.0000 C   0  0  0  0  0  0  0  0  0  0  0  0
   15.2442   -2.1153    0.0000 C   0  0  0  0  0  0  0  0  0  0  0  0
    5.5592   -2.2901    0.0000 N   0  0  0  0  0  0  0  0  0  0  0  0
    9.4053   -5.7341    0.0000 C   0  0  0  0  0  0  0  0  0  0  0  0
    4.4404   -1.5209    0.0000 C   0  0  0  0  0  0  0  0  0  0  0  0
   12.9890   -3.6712    0.0000 S   0  0  0  0  0  0  0  0  0  0  0  0
   10.6290   -2.2901    0.0000 C   0  0  0  0  0  0  0  0  0  0  0  0
   16.2756   -1.3461    0.0000 C   0  0  0  0  0  0  0  0  0  0  0  0
    5.8914   -4.6677    0.0000 O   0  0  0  0  0  0  0  0  0  0  0  0
   11.8352   -4.3355    0.0000 C   0  0  0  0  0  0  0  0  0  0  0  0
    3.3740   -3.4439    0.0000 C   0  0  0  0  0  0  0  0  0  0  0  0
    3.3740   -2.1678    0.0000 C   0  0  0  0  0  0  0  0  0  0  0  0
   10.5416   -6.4508    0.0000 O   0  0  0  0  0  0  0  0  0  0  0  0
    4.4404   -0.1573    0.0000 O   0  0  0  0  0  0  0  0  0  0  0  0
   16.2756    0.0000    0.0000 O   0  0  0  0  0  0  0  0  0  0  0  0
    2.1852   -4.0733    0.0000 C   0  0  0  0  0  0  0  0  0  0  0  0
    8.3389   -6.4508    0.0000 O   0  0  0  0  0  0  0  0  0  0  0  0
   17.4819   -2.0803    0.0000 O   0  0  0  0  0  0  0  0  0  0  0  0
    0.0000   -4.1607    0.0000 N   0  0  0  0  0  0  0  0  0  0  0  0
    1.1188   -3.4090    0.0000 C   0  0  0  0  0  0  0  0  0  0  0  0
    4.5103   -4.0733    0.0000 C   0  0  0  0  0  0  0  0  0  0  0  0
    2.1852   -5.4194    0.0000 C   0  0  0  0  0  0  0  0  0  0  0  0
    4.5103   -5.4369    0.0000 C   0  0  0  0  0  0  0  0  0  0  0  0
    3.3740   -6.1012    0.0000 C   0  0  0  0  0  0  0  0  0  0  0  0
    8.2689   -1.2937    0.0000 H   0  0  0  0  0  0  0  0  0  0  0  0
    6.7130   -1.1888    0.0000 H   0  0  0  0  0  0  0  0  0  0  0  0
  1  2  1  0  0  0  0
  1  3  1  0  0  0  0
  1  7  1  0  0  0  0
  2 20  2  0  0  0  0
  2  4  1  0  0  0  0
  3  4  1  0  0  0  0
  3 11  1  0  0  0  0
  3 36  1  6  0  0  0
  4 14  1  1  0  0  0
  4 37  1  6  0  0  0
  5  6  1  0  0  0  0
  5 10  1  0  0  0  0
  5 13  1  0  0  0  0
  6 17  1  0  0  0  0
  6  8  2  0  0  0  0
  7 12  2  0  0  0  0
  7 15  1  0  0  0  0
  8  9  1  0  0  0  0
  9 10  2  0  0  0  0
 11 18  1  0  0  0  0
 12 18  1  0  0  0  0
 12 21  1  0  0  0  0
 13 19  1  0  0  0  0
 14 16  1  0  0  0  0
 15 24  2  0  0  0  0
 15 28  1  0  0  0  0
 16 23  1  0  0  0  0
 16 25  2  0  0  0  0
 17 21  1  0  0  0  0
 19 26  2  0  0  0  0
 19 29  1  0  0  0  0
 22 23  1  0  0  0  0
 22 27  1  0  0  0  0
 22 32  2  0  0  0  0
 27 31  1  0  0  0  0
 27 33  2  0  0  0  0
 30 31  1  0  0  0  0
 32 34  1  0  0  0  0
 33 35  1  0  0  0  0
 34 35  2  0  0  0  0
M  END
> <ID>
2499

> <Formula>
C20H21N7O6S2

> <FW>
519.554

> <DSSTox_CID>
2760

> <DSSTox_RID>
76719

> <DSSTox_GSID>
22760

> <DSSTox_FileID_Sort>
1403

> <TS_ChemName>
Ceforanide

> <TS_ChemName_Synonyms>


> <TS_CASRN>
60925-61-3

> <CASRN_ChemName_Relationship>
primary

> <TS_Description>
single chemical compound

> <ChemNote>
stereochem

> <STRUCTURE_Shown>
tested chemical

> <STRUCTURE_Formula>
C20H21N7O6S2

> <STRUCTURE_MW>
519.554

> <STRUCTURE_ChemType>
defined organic

> <STRUCTURE_DefinedOrganicForm>
parent

> <STRUCTURE_IUPAC>
(6R,7R)-7-({[2-(aminomethyl)phenyl]acetyl}amino)-3-({[1-(carboxymethyl)-1H-tetrazol-5-yl]sulfanyl}methyl)-8-oxo-5-thia-1-azabicyclo[4.2.0]oct-2-ene-2-carboxylic acid

> <STRUCTURE_SMILES>
NCc4ccccc4CC(=O)N[C@@H]3C(=O)N2C(=C(CSc1nnnn1CC(=O)O)CS[C@@H]23)C(=O)O

> <STRUCTURE_SMILES_Desalt>
NCc4ccccc4CC(=O)N[C@@H]3C(=O)N2C(=C(CSc1nnnn1CC(=O)O)CS[C@@H]23)C(=O)O

> <Substance_modify_yyyymmdd>
20080429

$$$$
