6092-18-8
ChemmineR-0915142007XD

 21 22  0  0  0  0  0  0  0  0  1 V2000
    8.0714   -7.3231    0.0000 O   0  0  0  0  0  0  0  0  0  0  0  0
    2.3047    0.0000    0.0000 C   0  0  0  0  0  0  0  0  0  0  0  0
    2.3047   -1.3269    0.0000 C   0  0  0  0  0  0  0  0  0  0  0  0
    1.1573   -2.0054    0.0000 N   0  0  0  0  0  0  0  0  0  0  0  0
    1.1573   -3.3323    0.0000 C   0  0  0  0  0  0  0  0  0  0  0  0
    2.3047   -3.9908    0.0000 C   0  0  0  0  0  0  0  0  0  0  0  0
    2.3047   -5.3177    0.0000 C   0  0  0  0  0  0  0  0  0  0  0  0
    3.4620   -5.9862    0.0000 N   0  0  0  0  0  0  0  0  0  0  0  0
    4.6094   -5.3177    0.0000 C   0  0  0  0  0  0  0  0  0  0  0  0
    5.7667   -5.9862    0.0000 O   0  0  0  0  0  0  0  0  0  0  0  0
    3.4620   -7.3231    0.0000 C   0  0  0  0  0  0  0  0  0  0  0  0
    2.3047   -7.9716    0.0000 C   0  0  0  0  0  0  0  0  0  0  0  0
    4.6094   -7.9716    0.0000 C   0  0  0  0  0  0  0  0  0  0  0  0
    4.6094   -9.3085    0.0000 C   0  0  0  0  0  0  0  0  0  0  0  0
    5.7667   -9.9770    0.0000 C   0  0  0  0  0  0  0  0  0  0  0  0
    6.9141   -9.3085    0.0000 O   0  0  0  0  0  0  0  0  0  0  0  0
    6.9141   -7.9716    0.0000 C   0  0  0  0  0  0  0  0  0  0  0  0
    5.7667   -7.3231    0.0000 S   0  0  0  0  0  0  0  0  0  0  0  0
    3.4620   -3.3323    0.0000 C   0  0  0  0  0  0  0  0  0  0  0  0
    3.4620   -2.0054    0.0000 N   0  0  0  0  0  0  0  0  0  0  0  0
    0.0000   -3.9908    0.0000 N   0  0  0  0  0  0  0  0  0  0  0  0
  1 17  2  0  0  0  0
  2  3  1  0  0  0  0
  3  4  2  0  0  0  0
  3 20  1  0  0  0  0
  4  5  1  0  0  0  0
  5  6  2  0  0  0  0
  5 21  1  0  0  0  0
  6  7  1  0  0  0  0
  6 19  1  0  0  0  0
  7  8  1  0  0  0  0
  8  9  1  0  0  0  0
  8 11  1  0  0  0  0
  9 10  2  0  0  0  0
 11 12  1  0  0  0  0
 11 13  2  0  0  0  0
 13 14  1  0  0  0  0
 13 18  1  0  0  0  0
 14 15  1  0  0  0  0
 15 16  1  0  0  0  0
 16 17  1  0  0  0  0
 17 18  1  0  0  0  0
 19 20  2  0  0  0  0
M  END
> <ID>
16183

> <Formula>
C13H16N4O3S

> <FW>
308.3561

> <DSSTox_CID>
31573

> <DSSTox_RID>
97458

> <DSSTox_GSID>
57784

> <DSSTox_FileID_Sort>
8525

> <TS_ChemName>
Cycotiamine

> <TS_ChemName_Synonyms>


> <TS_CASRN>
6092-18-8

> <CASRN_ChemName_Relationship>
primary

> <TS_Description>
single chemical compound

> <ChemNote>


> <STRUCTURE_Shown>
tested chemical

> <STRUCTURE_Formula>
C13H16N4O3S

> <STRUCTURE_MW>
308.3561

> <STRUCTURE_ChemType>
defined organic

> <STRUCTURE_DefinedOrganicForm>
parent

> <STRUCTURE_IUPAC>
N-[(4-amino-2-methylpyrimidin-5-yl)methyl]-N-[(1Z)-1-(2-oxo-1,3-oxathian-4-ylidene)ethyl]formamide

> <STRUCTURE_SMILES>
O=C1OCC\C(S1)=C(/C)N(C=O)Cc2cnc(C)nc2N

> <STRUCTURE_SMILES_Desalt>
O=C1OCC\C(S1)=C(/C)N(C=O)Cc2cnc(C)nc2N

> <Substance_modify_yyyymmdd>
20131018

$$$$
