60940-34-3
ChemmineR-0915142007XD

 16 18  0  0  0  0  0  0  0  0  1 V2000
    4.3603    0.0000    0.0000 O    0  0  0  0  0  0  0  0  0  0  0  0
    4.7689   -1.2673    0.0000 C    0  0  0  0  0  0  0  0  0  0  0  0
    3.9852   -2.3427    0.0000 N    0  0  0  0  0  0  0  0  0  0  0  0
    4.7689   -3.4182    0.0000 Se   0  0  0  0  0  0  0  0  0  0  0  0
    6.0361   -3.0014    0.0000 C    0  0  0  0  0  0  0  0  0  0  0  0
    6.0361   -1.6758    0.0000 C    0  0  0  0  0  0  0  0  0  0  0  0
    7.1867   -1.0088    0.0000 C    0  0  0  0  0  0  0  0  0  0  0  0
    8.3372   -1.6758    0.0000 C    0  0  0  0  0  0  0  0  0  0  0  0
    8.3372   -3.0014    0.0000 C    0  0  0  0  0  0  0  0  0  0  0  0
    7.1867   -3.6684    0.0000 C    0  0  0  0  0  0  0  0  0  0  0  0
    2.6596   -2.3427    0.0000 C    0  0  0  0  0  0  0  0  0  0  0  0
    1.9926   -3.4933    0.0000 C    0  0  0  0  0  0  0  0  0  0  0  0
    0.6670   -3.4933    0.0000 C    0  0  0  0  0  0  0  0  0  0  0  0
    0.0000   -2.3427    0.0000 C    0  0  0  0  0  0  0  0  0  0  0  0
    0.6670   -1.1839    0.0000 C    0  0  0  0  0  0  0  0  0  0  0  0
    1.9926   -1.1839    0.0000 C    0  0  0  0  0  0  0  0  0  0  0  0
  1  2  2  0  0  0  0
  2  3  1  0  0  0  0
  2  6  1  0  0  0  0
  3  4  1  0  0  0  0
  3 11  1  0  0  0  0
  4  5  1  0  0  0  0
  5  6  2  0  0  0  0
  5 10  1  0  0  0  0
  6  7  1  0  0  0  0
  7  8  2  0  0  0  0
  8  9  1  0  0  0  0
  9 10  2  0  0  0  0
 11 12  2  0  0  0  0
 11 16  1  0  0  0  0
 12 13  1  0  0  0  0
 13 14  2  0  0  0  0
 14 15  1  0  0  0  0
 15 16  2  0  0  0  0
M  END
> <ID>
10773

> <Formula>
C13H9NOSe

> <FW>
274.1767

> <DSSTox_CID>
25150

> <DSSTox_RID>
80704

> <DSSTox_GSID>
45150

> <DSSTox_FileID_Sort>
5385

> <TS_ChemName>
Ebselen

> <TS_ChemName_Synonyms>


> <TS_CASRN>
60940-34-3

> <CASRN_ChemName_Relationship>
primary

> <TS_Description>
single chemical compound

> <ChemNote>


> <STRUCTURE_Shown>
tested chemical

> <STRUCTURE_Formula>
C13H9NOSe

> <STRUCTURE_MW>
274.1767

> <STRUCTURE_ChemType>
organometallic

> <STRUCTURE_DefinedOrganicForm>


> <STRUCTURE_IUPAC>
2-phenyl-1,2-benzoselenazol-3(2H)-one

> <STRUCTURE_SMILES>
O=C1c3ccccc3[Se]N1c2ccccc2

> <STRUCTURE_SMILES_Desalt>
O=C1c3ccccc3[Se]N1c2ccccc2

> <Substance_modify_yyyymmdd>
20100107

$$$$
