6099-90-7
ChemmineR-0915142007XD

 11  9  0  0  0  0  0  0  0  0  1 V2000
    0.0000   -0.0138    0.0000 O   0  0  0  0  0  0  0  0  0  0  0  0
    1.1512   -0.6723    0.0000 C   0  0  0  0  0  0  0  0  0  0  0  0
    2.3023    0.0000    0.0000 C   0  0  0  0  0  0  0  0  0  0  0  0
    3.4535   -0.6723    0.0000 C   0  0  0  0  0  0  0  0  0  0  0  0
    3.4535   -1.9984    0.0000 C   0  0  0  0  0  0  0  0  0  0  0  0
    2.3023   -2.6707    0.0000 C   0  0  0  0  0  0  0  0  0  0  0  0
    1.1512   -1.9984    0.0000 C   0  0  0  0  0  0  0  0  0  0  0  0
    2.3023   -3.9968    0.0000 O   0  0  0  0  0  0  0  0  0  0  0  0
    4.6046    0.0000    0.0000 O   0  0  0  0  0  0  0  0  0  0  0  0
    0.0645   -2.6523    0.0000 O   0  0  0  0  0  0  0  0  0  0  0  0
    4.5724   -2.7490    0.0000 O   0  0  0  0  0  0  0  0  0  0  0  0
  1  2  1  0  0  0  0
  2  3  2  0  0  0  0
  2  7  1  0  0  0  0
  3  4  1  0  0  0  0
  4  5  2  0  0  0  0
  4  9  1  0  0  0  0
  5  6  1  0  0  0  0
  6  7  2  0  0  0  0
  6  8  1  0  0  0  0
M  END
> <ID>
11810

> <Formula>
C6H10O5

> <FW>
162.1406 (126.1100+18.0153+18.0153)

> <DSSTox_CID>
26586

> <DSSTox_RID>
81744

> <DSSTox_GSID>
46586

> <DSSTox_FileID_Sort>
6425

> <TS_ChemName>
1,3,5-Trihydroxybenzene dihydrate

> <TS_ChemName_Synonyms>


> <TS_CASRN>
6099-90-7

> <CASRN_ChemName_Relationship>
primary

> <TS_Description>
single chemical compound

> <ChemNote>
parent [108-73-6]

> <STRUCTURE_Shown>
tested chemical

> <STRUCTURE_Formula>
C6H10O5

> <STRUCTURE_MW>
162.1406

> <STRUCTURE_ChemType>
defined organic

> <STRUCTURE_DefinedOrganicForm>
complex

> <STRUCTURE_IUPAC>
benzene-1,3,5-triol dihydrate

> <STRUCTURE_SMILES>
O.O.Oc1cc(O)cc(O)c1

> <STRUCTURE_SMILES_Desalt>
Oc1cc(O)cc(O)c1

> <Substance_modify_yyyymmdd>
20110810

$$$$
