61-16-5
ChemmineR-0915142007XD

 16 15  0  0  0  0  0  0  0  0  1 V2000
    4.6636   -3.3312    0.0000 C    0  0  0  0  0  0  0  0  0  0  0  0
    4.6636   -2.0068    0.0000 C    0  0  0  0  0  0  0  0  0  0  0  0
    5.8173   -3.9893    0.0000 C    0  0  0  0  0  0  0  0  0  0  0  0
    3.5099   -3.9893    0.0000 C    0  0  0  0  0  0  0  0  0  0  0  0
    3.5099   -1.3325    0.0000 C    0  0  0  0  0  0  0  0  0  0  0  0
    5.8173   -1.3325    0.0000 O    0  0  0  0  0  0  0  0  0  0  0  0
    6.9711   -3.3312    0.0000 C    0  0  0  0  0  0  0  0  0  0  0  0
    5.8173   -5.3217    0.0000 O    0  0  0  0  0  0  0  0  0  0  0  0
    2.3562   -3.3312    0.0000 C    0  0  0  0  0  0  0  0  0  0  0  0
    2.3562   -2.0068    0.0000 C    0  0  0  0  0  0  0  0  0  0  0  0
    5.8173    0.0000    0.0000 C    0  0  0  0  0  0  0  0  0  0  0  0
    8.1248   -3.9893    0.0000 C    0  0  0  0  0  0  0  0  0  0  0  0
    6.9711   -2.0068    0.0000 N    0  0  0  0  0  0  0  0  0  0  0  0
    1.2025   -3.9893    0.0000 O    0  0  0  0  0  0  0  0  0  0  0  0
    0.0000   -3.4124    0.0000 C    0  0  0  0  0  0  0  0  0  0  0  0
    2.6568   -5.0211    0.0000 Cl   0  0  0  0  0  0  0  0  0  0  0  0
  1  2  1  0  0  0  0
  1  3  1  0  0  0  0
  1  4  2  0  0  0  0
  2  5  2  0  0  0  0
  2  6  1  0  0  0  0
  3  7  1  0  0  0  0
  3  8  1  0  0  0  0
  4  9  1  0  0  0  0
  5 10  1  0  0  0  0
  6 11  1  0  0  0  0
  7 12  1  0  0  0  0
  7 13  1  0  0  0  0
  9 14  1  0  0  0  0
  9 10  2  0  0  0  0
 14 15  1  0  0  0  0
M  END
> <ID>
11192

> <Formula>
C11H18ClNO3

> <FW>
247.7185 (211.2576+36.4609)

> <DSSTox_CID>
25782

> <DSSTox_RID>
81124

> <DSSTox_GSID>
45782

> <DSSTox_FileID_Sort>
5805

> <TS_ChemName>
Methoxamine hydrochloride

> <TS_ChemName_Synonyms>


> <TS_CASRN>
61-16-5

> <CASRN_ChemName_Relationship>
primary

> <TS_Description>
single chemical compound

> <ChemNote>
parent [390-28-3]

> <STRUCTURE_Shown>
tested chemical

> <STRUCTURE_Formula>
C11H18ClNO3

> <STRUCTURE_MW>
247.7185

> <STRUCTURE_ChemType>
defined organic

> <STRUCTURE_DefinedOrganicForm>
complex

> <STRUCTURE_IUPAC>
2-amino-1-(2,5-dimethoxyphenyl)propan-1-ol hydrochloride (1:1)

> <STRUCTURE_SMILES>
Cl.COc1ccc(cc1C(O)C(C)N)OC

> <STRUCTURE_SMILES_Desalt>
COc1ccc(cc1C(O)C(C)N)OC

> <Substance_modify_yyyymmdd>
20110902

$$$$
