61-19-8
ChemmineR-0915142007XD

 23 25  0  0  1  0  0  0  0  0  1 V2000
    6.7423   -3.5735    0.0000 N   0  0  0  0  0  0  0  0  0  0  0  0
    5.5666   -3.1765    0.0000 C   0  0  0  0  0  0  0  0  0  0  0  0
    5.5666   -1.8919    0.0000 C   0  0  0  0  0  0  0  0  0  0  0  0
    6.7423   -1.5182    0.0000 N   0  0  0  0  0  0  0  0  0  0  0  0
    7.4897   -2.5459    0.0000 C   0  0  0  0  0  0  0  0  0  0  0  0
    4.4222   -1.2535    0.0000 C   0  0  0  0  0  0  0  0  0  0  0  0
    4.4222   -3.8227    0.0000 N   0  0  0  0  0  0  0  0  0  0  0  0
    3.3478   -1.8919    0.0000 N   0  0  0  0  0  0  0  0  0  0  0  0
    3.3478   -3.1765    0.0000 C   0  0  0  0  0  0  0  0  0  0  0  0
    4.4222    0.0000    0.0000 N   0  0  0  0  0  0  0  0  0  0  0  0
    6.6955   -5.4576    0.0000 C   0  0  0  0  0  0  0  0  0  0  0  0
    4.5701   -5.4576    0.0000 C   0  0  0  0  0  0  0  0  0  0  0  0
    5.6289   -4.6635    0.0000 O   0  0  0  0  0  0  0  0  0  0  0  0
    4.9749   -6.7267    0.0000 C   0  0  0  0  0  0  0  0  0  0  0  0
    6.2985   -6.7267    0.0000 C   0  0  0  0  0  0  0  0  0  0  0  0
    4.1964   -7.7855    0.0000 O   0  0  0  0  0  0  0  0  0  0  0  0
    7.0537   -7.7855    0.0000 O   0  0  0  0  0  0  0  0  0  0  0  0
    3.2777   -5.0294    0.0000 C   0  0  0  0  0  0  0  0  0  0  0  0
    2.3045   -5.9403    0.0000 O   0  0  0  0  0  0  0  0  0  0  0  0
    0.0000   -5.9403    0.0000 O   0  0  0  0  0  0  0  0  0  0  0  0
    1.1445   -5.2708    0.0000 P   0  0  0  0  0  0  0  0  0  0  0  0
    1.1445   -3.9550    0.0000 O   0  0  0  0  0  0  0  0  0  0  0  0
    0.5061   -6.5943    0.0000 O   0  0  0  0  0  0  0  0  0  0  0  0
  1  2  1  0  0  0  0
  1  5  1  0  0  0  0
 11  1  1  1  0  0  0
  2  3  2  0  0  0  0
  2  7  1  0  0  0  0
  3  6  1  0  0  0  0
  3  4  1  0  0  0  0
  4  5  2  0  0  0  0
  6 10  1  0  0  0  0
  6  8  2  0  0  0  0
  7  9  2  0  0  0  0
  8  9  1  0  0  0  0
 11 13  1  0  0  0  0
 11 15  1  0  0  0  0
 12 13  1  0  0  0  0
 12 14  1  0  0  0  0
 12 18  1  1  0  0  0
 14 15  1  0  0  0  0
 14 16  1  6  0  0  0
 15 17  1  6  0  0  0
 18 19  1  0  0  0  0
 19 21  1  0  0  0  0
 20 21  1  0  0  0  0
 21 22  2  0  0  0  0
 21 23  1  0  0  0  0
M  END
> <ID>
2322

> <Formula>
C10H14N5O7P

> <FW>
347.2212

> <DSSTox_CID>
2560

> <DSSTox_RID>
76630

> <DSSTox_GSID>
22560

> <DSSTox_FileID_Sort>
1314

> <TS_ChemName>
Adenosine-5-phosphate

> <TS_ChemName_Synonyms>


> <TS_CASRN>
61-19-8

> <CASRN_ChemName_Relationship>
primary

> <TS_Description>
single chemical compound

> <ChemNote>
stereochem

> <STRUCTURE_Shown>
tested chemical

> <STRUCTURE_Formula>
C10H14N5O7P

> <STRUCTURE_MW>
347.2212

> <STRUCTURE_ChemType>
defined organic

> <STRUCTURE_DefinedOrganicForm>
parent

> <STRUCTURE_IUPAC>
5'-adenylic acid

> <STRUCTURE_SMILES>
O=P(O)(O)OC[C@H]3O[C@@H](n2cnc1c(N)ncnc12)[C@H](O)[C@@H]3O

> <STRUCTURE_SMILES_Desalt>
O=P(O)(O)OC[C@H]3O[C@@H](n2cnc1c(N)ncnc12)[C@H](O)[C@@H]3O

> <Substance_modify_yyyymmdd>
20080429

$$$$
