61-25-6
ChemmineR-0915142007XD

 26 27  0  0  0  0  0  0  0  0  1 V2000
   11.9641   -4.6113    0.0000 C    0  0  0  0  0  0  0  0  0  0  0  0
   10.6375   -4.6113    0.0000 O    0  0  0  0  0  0  0  0  0  0  0  0
    9.9679   -3.4490    0.0000 C    0  0  0  0  0  0  0  0  0  0  0  0
    8.6414   -3.4490    0.0000 C    0  0  0  0  0  0  0  0  0  0  0  0
    7.9845   -2.2993    0.0000 C    0  0  0  0  0  0  0  0  0  0  0  0
    6.6453   -2.2993    0.0000 C    0  0  0  0  0  0  0  0  0  0  0  0
    5.9883   -3.4490    0.0000 C    0  0  0  0  0  0  0  0  0  0  0  0
    4.6492   -3.4490    0.0000 C    0  0  0  0  0  0  0  0  0  0  0  0
    3.9922   -4.6113    0.0000 C    0  0  0  0  0  0  0  0  0  0  0  0
    2.6657   -4.6113    0.0000 C    0  0  0  0  0  0  0  0  0  0  0  0
    1.9961   -5.7609    0.0000 O    0  0  0  0  0  0  0  0  0  0  0  0
    0.6696   -5.7609    0.0000 C    0  0  0  0  0  0  0  0  0  0  0  0
    1.9961   -3.4490    0.0000 C    0  0  0  0  0  0  0  0  0  0  0  0
    0.6696   -3.4490    0.0000 O    0  0  0  0  0  0  0  0  0  0  0  0
    0.0000   -4.6113    0.0000 C    0  0  0  0  0  0  0  0  0  0  0  0
    2.6657   -2.2993    0.0000 C    0  0  0  0  0  0  0  0  0  0  0  0
    3.9922   -2.2993    0.0000 C    0  0  0  0  0  0  0  0  0  0  0  0
    5.9883   -1.1497    0.0000 N    0  0  0  0  0  0  0  0  0  0  0  0
    6.6453    0.0000    0.0000 C    0  0  0  0  0  0  0  0  0  0  0  0
    7.9845    0.0000    0.0000 C    0  0  0  0  0  0  0  0  0  0  0  0
    8.6414   -1.1497    0.0000 C    0  0  0  0  0  0  0  0  0  0  0  0
    9.9679   -1.1497    0.0000 C    0  0  0  0  0  0  0  0  0  0  0  0
   10.6375   -2.2993    0.0000 C    0  0  0  0  0  0  0  0  0  0  0  0
   11.9641   -2.2993    0.0000 O    0  0  0  0  0  0  0  0  0  0  0  0
   12.6336   -1.1497    0.0000 C    0  0  0  0  0  0  0  0  0  0  0  0
    7.0496   -7.0875    0.0000 Cl   0  0  0  0  0  0  0  0  0  0  0  0
  1  2  1  0  0  0  0
  2  3  1  0  0  0  0
  3  4  2  0  0  0  0
  3 23  1  0  0  0  0
  4  5  1  0  0  0  0
  5  6  1  0  0  0  0
  5 21  2  0  0  0  0
  6  7  1  0  0  0  0
  6 18  2  0  0  0  0
  7  8  1  0  0  0  0
  8  9  2  0  0  0  0
  8 17  1  0  0  0  0
  9 10  1  0  0  0  0
 10 11  1  0  0  0  0
 10 13  2  0  0  0  0
 11 12  1  0  0  0  0
 13 14  1  0  0  0  0
 13 16  1  0  0  0  0
 14 15  1  0  0  0  0
 16 17  2  0  0  0  0
 18 19  1  0  0  0  0
 19 20  2  0  0  0  0
 20 21  1  0  0  0  0
 21 22  1  0  0  0  0
 22 23  2  0  0  0  0
 23 24  1  0  0  0  0
 24 25  1  0  0  0  0
M  END
> <ID>
4425

> <Formula>
C20H22ClNO4

> <FW>
375.8460 (339.3850+36.4609)

> <DSSTox_CID>
5825

> <DSSTox_RID>
77939

> <DSSTox_GSID>
25825

> <DSSTox_FileID_Sort>
2622

> <TS_ChemName>
Papaverine hydrochloride

> <TS_ChemName_Synonyms>


> <TS_CASRN>
61-25-6

> <CASRN_ChemName_Relationship>
primary

> <TS_Description>
single chemical compound

> <ChemNote>
parent [58-74-2]

> <STRUCTURE_Shown>
tested chemical

> <STRUCTURE_Formula>
C20H22ClNO4

> <STRUCTURE_MW>
375.846

> <STRUCTURE_ChemType>
defined organic

> <STRUCTURE_DefinedOrganicForm>
complex

> <STRUCTURE_IUPAC>
1-(3,4-dimethoxybenzyl)-6,7-dimethoxyisoquinoline hydrochloride (1:1)

> <STRUCTURE_SMILES>
Cl.COc1ccc(cc1OC)Cc3nccc2cc(OC)c(cc23)OC

> <STRUCTURE_SMILES_Desalt>
COc1ccc(cc1OC)Cc3nccc2cc(OC)c(cc23)OC

> <Substance_modify_yyyymmdd>
20080429

$$$$
