61-56-3
ChemmineR-0915142007XD

 18 19  0  0  0  0  0  0  0  0  1 V2000
    8.6416   -1.3023    0.0000 C   0  0  0  0  0  0  0  0  0  0  0  0
    9.3021   -2.4557    0.0000 C   0  0  0  0  0  0  0  0  0  0  0  0
    8.6416   -3.6092    0.0000 C   0  0  0  0  0  0  0  0  0  0  0  0
    7.3114   -3.6092    0.0000 C   0  0  0  0  0  0  0  0  0  0  0  0
    6.6417   -2.4557    0.0000 N   0  0  0  0  0  0  0  0  0  0  0  0
    5.3115   -2.4557    0.0000 C   0  0  0  0  0  0  0  0  0  0  0  0
    4.6510   -3.6092    0.0000 C   0  0  0  0  0  0  0  0  0  0  0  0
    3.3208   -3.6092    0.0000 C   0  0  0  0  0  0  0  0  0  0  0  0
    2.6604   -2.4557    0.0000 C   0  0  0  0  0  0  0  0  0  0  0  0
    1.3302   -2.4557    0.0000 S   0  0  0  0  0  0  0  0  0  0  0  0
    0.0000   -2.4557    0.0000 N   0  0  0  0  0  0  0  0  0  0  0  0
    1.3302   -1.1256    0.0000 O   0  0  0  0  0  0  0  0  0  0  0  0
    1.3302   -3.7859    0.0000 O   0  0  0  0  0  0  0  0  0  0  0  0
    3.3208   -1.3023    0.0000 C   0  0  0  0  0  0  0  0  0  0  0  0
    4.6510   -1.3023    0.0000 C   0  0  0  0  0  0  0  0  0  0  0  0
    7.3114   -1.3023    0.0000 S   0  0  0  0  0  0  0  0  0  0  0  0
    6.0557   -0.8558    0.0000 O   0  0  0  0  0  0  0  0  0  0  0  0
    7.5440    0.0000    0.0000 O   0  0  0  0  0  0  0  0  0  0  0  0
  1  2  1  0  0  0  0
  1 16  1  0  0  0  0
  2  3  1  0  0  0  0
  3  4  1  0  0  0  0
  4  5  1  0  0  0  0
  5  6  1  0  0  0  0
  5 16  1  0  0  0  0
  6  7  2  0  0  0  0
  6 15  1  0  0  0  0
  7  8  1  0  0  0  0
  8  9  2  0  0  0  0
  9 10  1  0  0  0  0
  9 14  1  0  0  0  0
 10 11  1  0  0  0  0
 10 12  2  0  0  0  0
 10 13  2  0  0  0  0
 14 15  2  0  0  0  0
 16 17  2  0  0  0  0
 16 18  2  0  0  0  0
M  END
> <ID>
3242

> <Formula>
C10H14N2O4S2

> <FW>
290.3592

> <DSSTox_CID>
3626

> <DSSTox_RID>
97552

> <DSSTox_GSID>
23626

> <DSSTox_FileID_Sort>
8327

> <TS_ChemName>
Sulthiame

> <TS_ChemName_Synonyms>


> <TS_CASRN>
61-56-3

> <CASRN_ChemName_Relationship>
primary

> <TS_Description>
single chemical compound

> <ChemNote>


> <STRUCTURE_Shown>
tested chemical

> <STRUCTURE_Formula>
C10H14N2O4S2

> <STRUCTURE_MW>
290.3592

> <STRUCTURE_ChemType>
defined organic

> <STRUCTURE_DefinedOrganicForm>
parent

> <STRUCTURE_IUPAC>
4-(1,1-dioxido-1,2-thiazinan-2-yl)benzenesulfonamide

> <STRUCTURE_SMILES>
O=S2(=O)CCCCN2c1ccc(cc1)S(N)(=O)=O

> <STRUCTURE_SMILES_Desalt>
O=S2(=O)CCCCN2c1ccc(cc1)S(N)(=O)=O

> <Substance_modify_yyyymmdd>
20080429

$$$$
