61-51-8_1
ChemmineR-0915142007XD

 40 41  0  0  0  0  0  0  0  0  1 V2000
    2.2859   -0.8939    0.0000 C   0  0  0  0  0  0  0  0  0  0  0  0
    2.2859   -2.2273    0.0000 C   0  0  0  0  0  0  0  0  0  0  0  0
    1.1576   -0.2198    0.0000 C   0  0  0  0  0  0  0  0  0  0  0  0
    1.1576   -2.9307    0.0000 C   0  0  0  0  0  0  0  0  0  0  0  0
    0.0000   -0.8939    0.0000 C   0  0  0  0  0  0  0  0  0  0  0  0
    0.0000   -2.2273    0.0000 C   0  0  0  0  0  0  0  0  0  0  0  0
    3.5461   -0.4836    0.0000 N   0  0  0  0  0  0  0  0  0  0  0  0
    4.3374   -1.5386    0.0000 C   0  0  0  0  0  0  0  0  0  0  0  0
    3.5461   -2.6523    0.0000 C   0  0  0  0  0  0  0  0  0  0  0  0
    3.9711   -3.9271    0.0000 C   0  0  0  0  0  0  0  0  0  0  0  0
    5.2459   -4.1909    0.0000 C   0  0  0  0  0  0  0  0  0  0  0  0
    5.6562   -5.4657    0.0000 N   0  0  0  0  0  0  0  0  0  0  0  0
    6.9897   -5.7295    0.0000 C   0  0  0  0  0  0  0  0  0  0  0  0
    4.7624   -6.4182    0.0000 C   0  0  0  0  0  0  0  0  0  0  0  0
    7.8249   -4.7038    0.0000 C   0  0  0  0  0  0  0  0  0  0  0  0
    3.4875   -6.1398    0.0000 C   0  0  0  0  0  0  0  0  0  0  0  0
    9.0998   -0.6887    0.0000 C   0  0  0  0  0  0  0  0  0  0  0  0
    9.0998   -2.0222    0.0000 C   0  0  0  0  0  0  0  0  0  0  0  0
    7.9861    0.0000    0.0000 C   0  0  0  0  0  0  0  0  0  0  0  0
    7.9861   -2.7109    0.0000 C   0  0  0  0  0  0  0  0  0  0  0  0
    6.8285   -0.6887    0.0000 C   0  0  0  0  0  0  0  0  0  0  0  0
    6.8285   -2.0222    0.0000 C   0  0  0  0  0  0  0  0  0  0  0  0
   10.3600   -0.2784    0.0000 N   0  0  0  0  0  0  0  0  0  0  0  0
   11.1659   -1.3335    0.0000 C   0  0  0  0  0  0  0  0  0  0  0  0
   10.3600   -2.4471    0.0000 C   0  0  0  0  0  0  0  0  0  0  0  0
   10.7996   -3.7220    0.0000 C   0  0  0  0  0  0  0  0  0  0  0  0
   12.0744   -3.9711    0.0000 C   0  0  0  0  0  0  0  0  0  0  0  0
   12.4847   -5.2459    0.0000 N   0  0  0  0  0  0  0  0  0  0  0  0
   13.8035   -5.5243    0.0000 C   0  0  0  0  0  0  0  0  0  0  0  0
   11.5909   -6.2131    0.0000 C   0  0  0  0  0  0  0  0  0  0  0  0
   14.6534   -4.4986    0.0000 C   0  0  0  0  0  0  0  0  0  0  0  0
   10.3160   -5.9346    0.0000 C   0  0  0  0  0  0  0  0  0  0  0  0
    9.0558   -9.1584    0.0000 C   0  0  0  0  0  0  0  0  0  0  0  0
    5.5830   -9.8178    0.0000 C   0  0  0  0  0  0  0  0  0  0  0  0
    6.7113   -9.1584    0.0000 C   0  0  0  0  0  0  0  0  0  0  0  0
    7.8982   -9.8325    0.0000 C   0  0  0  0  0  0  0  0  0  0  0  0
    9.0705   -7.8542    0.0000 O   0  0  0  0  0  0  0  0  0  0  0  0
    5.5830  -11.1366    0.0000 O   0  0  0  0  0  0  0  0  0  0  0  0
   10.1988   -9.8178    0.0000 O   0  0  0  0  0  0  0  0  0  0  0  0
    4.4400   -9.1437    0.0000 O   0  0  0  0  0  0  0  0  0  0  0  0
  1  3  2  0  0  0  0
  1  7  1  0  0  0  0
  1  2  1  0  0  0  0
  2  4  2  0  0  0  0
  2  9  1  0  0  0  0
  3  5  1  0  0  0  0
  4  6  1  0  0  0  0
  5  6  2  0  0  0  0
  7  8  1  0  0  0  0
  8  9  2  0  0  0  0
  9 10  1  0  0  0  0
 10 11  1  0  0  0  0
 11 12  1  0  0  0  0
 12 13  1  0  0  0  0
 12 14  1  0  0  0  0
 13 15  1  0  0  0  0
 14 16  1  0  0  0  0
 17 19  2  0  0  0  0
 17 23  1  0  0  0  0
 17 18  1  0  0  0  0
 18 20  2  0  0  0  0
 18 25  1  0  0  0  0
 19 21  1  0  0  0  0
 20 22  1  0  0  0  0
 21 22  2  0  0  0  0
 23 24  1  0  0  0  0
 24 25  2  0  0  0  0
 25 26  1  0  0  0  0
 26 27  1  0  0  0  0
 27 28  1  0  0  0  0
 28 29  1  0  0  0  0
 28 30  1  0  0  0  0
 29 31  1  0  0  0  0
 30 32  1  0  0  0  0
 33 36  1  0  0  0  0
 33 37  2  0  0  0  0
 33 39  1  0  0  0  0
 34 35  1  0  0  0  0
 34 38  2  0  0  0  0
 34 40  1  0  0  0  0
 35 36  2  0  0  0  0
M  END
> <ID>
13884

> <Formula>
C32H44N4O4

> <FW>
548.7162 (216.3220+216.3220+116.0722)

> <DSSTox_CID>
28821

> <DSSTox_RID>
83090

> <DSSTox_GSID>
48895

> <DSSTox_FileID_Sort>
7767

> <TS_ChemName>
N,N-Diethyltryptamine fumarate

> <TS_ChemName_Synonyms>
DET fumarate

> <TS_CASRN>
61-51-8_1

> <CASRN_ChemName_Relationship>
CAS for parent

> <TS_Description>
single chemical compound

> <ChemNote>
parent [61-51-8]

> <STRUCTURE_Shown>
tested chemical

> <STRUCTURE_Formula>
C32H44N4O4

> <STRUCTURE_MW>
548.7162

> <STRUCTURE_ChemType>
defined organic

> <STRUCTURE_DefinedOrganicForm>
complex

> <STRUCTURE_IUPAC>
N,N-diethyl-2-(1H-indol-3-yl)ethanamine (2E)-but-2-enedioate (2:1)

> <STRUCTURE_SMILES>
O=C(O)/C=C/C(=O)O.CCN(CC)CCc2cnc1ccccc12.CCN(CC)CCc2cnc1ccccc12

> <STRUCTURE_SMILES_Desalt>
CCN(CC)CCc2cnc1ccccc12

> <Substance_modify_yyyymmdd>
20130911

$$$$
