61-57-4
ChemmineR-0915142007XD

 14 15  0  0  0  0  0  0  0  0  2 V2000
    7.7572   -1.7686    0.0000 O   0  5  0  0  0  0  0  0  0  0  0  0
    6.5471   -1.2256    0.0000 N   0  3  0  0  0  0  0  0  0  0  0  0
    6.5161    0.0000    0.0000 O   0  0  0  0  0  0  0  0  0  0  0  0
    5.4688   -2.0091    0.0000 C   0  0  0  0  0  0  0  0  0  0  0  0
    5.4688   -3.3511    0.0000 C   0  0  0  0  0  0  0  0  0  0  0  0
    4.1967   -3.7700    0.0000 N   0  0  0  0  0  0  0  0  0  0  0  0
    3.4054   -2.6918    0.0000 C   0  0  0  0  0  0  0  0  0  0  0  0
    4.1967   -1.6057    0.0000 S   0  0  0  0  0  0  0  0  0  0  0  0
    2.0634   -2.6918    0.0000 N   0  0  0  0  0  0  0  0  0  0  0  0
    1.2722   -3.7700    0.0000 C   0  0  0  0  0  0  0  0  0  0  0  0
    0.0000   -3.3511    0.0000 C   0  0  0  0  0  0  0  0  0  0  0  0
    0.0000   -2.0246    0.0000 N   0  0  0  0  0  0  0  0  0  0  0  0
    1.2722   -1.6057    0.0000 C   0  0  0  0  0  0  0  0  0  0  0  0
    1.6911   -0.3336    0.0000 O   0  0  0  0  0  0  0  0  0  0  0  0
  1  2  1  0  0  0  0
  2  3  2  0  0  0  0
  2  4  1  0  0  0  0
  4  5  2  0  0  0  0
  4  8  1  0  0  0  0
  5  6  1  0  0  0  0
  6  7  2  0  0  0  0
  7  8  1  0  0  0  0
  7  9  1  0  0  0  0
  9 10  1  0  0  0  0
  9 13  1  0  0  0  0
 10 11  1  0  0  0  0
 11 12  1  0  0  0  0
 12 13  1  0  0  0  0
 13 14  2  0  0  0  0
M  END
> <ID>
10841

> <Formula>
C6H6N4O3S

> <FW>
214.2018

> <DSSTox_CID>
25244

> <DSSTox_RID>
80771

> <DSSTox_GSID>
45244

> <DSSTox_FileID_Sort>
5452

> <TS_ChemName>
Niridazole

> <TS_ChemName_Synonyms>


> <TS_CASRN>
61-57-4

> <CASRN_ChemName_Relationship>
primary

> <TS_Description>
single chemical compound

> <ChemNote>


> <STRUCTURE_Shown>
tested chemical

> <STRUCTURE_Formula>
C6H6N4O3S

> <STRUCTURE_MW>
214.2018

> <STRUCTURE_ChemType>
defined organic

> <STRUCTURE_DefinedOrganicForm>
parent

> <STRUCTURE_IUPAC>
1-(5-nitro-1,3-thiazol-2-yl)imidazolidin-2-one

> <STRUCTURE_SMILES>
[O-][N+](=O)c1cnc(s1)N2CCNC2=O

> <STRUCTURE_SMILES_Desalt>
[O-][N+](=O)c1cnc(s1)N2CCNC2=O

> <Substance_modify_yyyymmdd>
20100107

$$$$
