61-68-7
ChemmineR-0915142007XD

 18 19  0  0  0  0  0  0  0  0  1 V2000
    8.0591   -2.6595    0.0000 C   0  0  0  0  0  0  0  0  0  0  0  0
    8.0591   -3.9893    0.0000 C   0  0  0  0  0  0  0  0  0  0  0  0
    6.9067   -4.6501    0.0000 C   0  0  0  0  0  0  0  0  0  0  0  0
    5.7542   -3.9893    0.0000 C   0  0  0  0  0  0  0  0  0  0  0  0
    5.7542   -2.6595    0.0000 C   0  0  0  0  0  0  0  0  0  0  0  0
    4.6017   -1.9906    0.0000 N   0  0  0  0  0  0  0  0  0  0  0  0
    3.4574   -2.6595    0.0000 C   0  0  0  0  0  0  0  0  0  0  0  0
    3.4574   -3.9893    0.0000 C   0  0  0  0  0  0  0  0  0  0  0  0
    2.3049   -4.6501    0.0000 C   0  0  0  0  0  0  0  0  0  0  0  0
    1.1525   -3.9893    0.0000 C   0  0  0  0  0  0  0  0  0  0  0  0
    1.1525   -2.6595    0.0000 C   0  0  0  0  0  0  0  0  0  0  0  0
    0.0000   -1.9906    0.0000 C   0  0  0  0  0  0  0  0  0  0  0  0
    2.3049   -1.9906    0.0000 C   0  0  0  0  0  0  0  0  0  0  0  0
    2.3049   -0.6608    0.0000 C   0  0  0  0  0  0  0  0  0  0  0  0
    6.9067   -1.9906    0.0000 C   0  0  0  0  0  0  0  0  0  0  0  0
    6.9067   -0.6608    0.0000 C   0  0  0  0  0  0  0  0  0  0  0  0
    5.7542    0.0000    0.0000 O   0  0  0  0  0  0  0  0  0  0  0  0
    8.0591    0.0000    0.0000 O   0  0  0  0  0  0  0  0  0  0  0  0
  1  2  2  0  0  0  0
  1 15  1  0  0  0  0
  2  3  1  0  0  0  0
  3  4  2  0  0  0  0
  4  5  1  0  0  0  0
  5  6  1  0  0  0  0
  5 15  2  0  0  0  0
  6  7  1  0  0  0  0
  7  8  2  0  0  0  0
  7 13  1  0  0  0  0
  8  9  1  0  0  0  0
  9 10  2  0  0  0  0
 10 11  1  0  0  0  0
 11 12  1  0  0  0  0
 11 13  2  0  0  0  0
 13 14  1  0  0  0  0
 15 16  1  0  0  0  0
 16 17  2  0  0  0  0
 16 18  1  0  0  0  0
M  END
> <ID>
2916

> <Formula>
C15H15NO2

> <FW>
241.2851

> <DSSTox_CID>
3243

> <DSSTox_RID>
76938

> <DSSTox_GSID>
23243

> <DSSTox_FileID_Sort>
1622

> <TS_ChemName>
Mefenamic acid

> <TS_ChemName_Synonyms>


> <TS_CASRN>
61-68-7

> <CASRN_ChemName_Relationship>
primary

> <TS_Description>
single chemical compound

> <ChemNote>


> <STRUCTURE_Shown>
tested chemical

> <STRUCTURE_Formula>
C15H15NO2

> <STRUCTURE_MW>
241.2851

> <STRUCTURE_ChemType>
defined organic

> <STRUCTURE_DefinedOrganicForm>
parent

> <STRUCTURE_IUPAC>
2-[(2,3-dimethylphenyl)amino]benzoic acid

> <STRUCTURE_SMILES>
O=C(O)c2ccccc2Nc1cccc(C)c1C

> <STRUCTURE_SMILES_Desalt>
O=C(O)c2ccccc2Nc1cccc(C)c1C

> <Substance_modify_yyyymmdd>
20080429

$$$$
