61-76-7
ChemmineR-0915142007XD

 13 12  0  0  1  0  0  0  0  0  1 V2000
    3.4602   -2.0003    0.0000 C    0  0  0  0  0  0  0  0  0  0  0  0
    4.6056   -2.6617    0.0000 C    0  0  0  0  0  0  0  0  0  0  0  0
    5.7590   -2.0003    0.0000 C    0  0  0  0  0  0  0  0  0  0  0  0
    6.9124   -2.6617    0.0000 N    0  0  0  0  0  0  0  0  0  0  0  0
    8.0658   -2.0003    0.0000 C    0  0  0  0  0  0  0  0  0  0  0  0
    4.6056   -3.9926    0.0000 O    0  0  0  0  0  0  0  0  0  0  0  0
    2.3068   -2.6617    0.0000 C    0  0  0  0  0  0  0  0  0  0  0  0
    1.1534   -2.0003    0.0000 C    0  0  0  0  0  0  0  0  0  0  0  0
    1.1534   -0.6695    0.0000 C    0  0  0  0  0  0  0  0  0  0  0  0
    2.3068    0.0000    0.0000 C    0  0  0  0  0  0  0  0  0  0  0  0
    3.4602   -0.6695    0.0000 C    0  0  0  0  0  0  0  0  0  0  0  0
    0.0000   -2.6617    0.0000 O    0  0  0  0  0  0  0  0  0  0  0  0
    2.3068   -4.1700    0.0000 Cl   0  0  0  0  0  0  0  0  0  0  0  0
  1  2  1  0  0  0  0
  1  7  2  0  0  0  0
  1 11  1  0  0  0  0
  2  3  1  0  0  0  0
  2  6  1  6  0  0  0
  3  4  1  0  0  0  0
  4  5  1  0  0  0  0
  7  8  1  0  0  0  0
  8  9  2  0  0  0  0
  8 12  1  0  0  0  0
  9 10  1  0  0  0  0
 10 11  2  0  0  0  0
M  END
> <ID>
1098

> <Formula>
C9H14ClNO2

> <FW>
203.6660 (167.2050+36.4609)

> <DSSTox_CID>
1142

> <DSSTox_RID>
75972

> <DSSTox_GSID>
21142

> <DSSTox_FileID_Sort>
656

> <TS_ChemName>
Phenylephrine hydrochloride

> <TS_ChemName_Synonyms>


> <TS_CASRN>
61-76-7

> <CASRN_ChemName_Relationship>
primary

> <TS_Description>
single chemical compound

> <ChemNote>
stereochem; parent [59-42-7]

> <STRUCTURE_Shown>
tested chemical

> <STRUCTURE_Formula>
C9H14ClNO2

> <STRUCTURE_MW>
203.666

> <STRUCTURE_ChemType>
defined organic

> <STRUCTURE_DefinedOrganicForm>
complex

> <STRUCTURE_IUPAC>
3-[(1R)-1-hydroxy-2-(methylamino)ethyl]phenol hydrochloride (1:1)

> <STRUCTURE_SMILES>
Cl.O[C@@H](CNC)c1cc(O)ccc1

> <STRUCTURE_SMILES_Desalt>
O[C@@H](CNC)c1cc(O)ccc1

> <Substance_modify_yyyymmdd>
20080429

$$$$
