61-73-4
ChemmineR-0915142007XD

 21 22  0  0  0  0  0  0  0  0  2 V2000
    5.7581   -2.6310    0.0000 S    0  3  0  0  0  0  0  0  0  0  0  0
    5.7581    0.0000    0.0000 N    0  0  0  0  0  0  0  0  0  0  0  0
    6.9005   -1.9848    0.0000 C    0  0  0  0  0  0  0  0  0  0  0  0
    4.6157   -1.9848    0.0000 C    0  0  0  0  0  0  0  0  0  0  0  0
    3.4618   -2.6310    0.0000 C    0  0  0  0  0  0  0  0  0  0  0  0
    8.0775   -2.6310    0.0000 C    0  0  0  0  0  0  0  0  0  0  0  0
    6.9005   -0.6462    0.0000 C    0  0  0  0  0  0  0  0  0  0  0  0
    4.6157   -0.6462    0.0000 C    0  0  0  0  0  0  0  0  0  0  0  0
    9.2199   -1.9848    0.0000 C    0  0  0  0  0  0  0  0  0  0  0  0
    2.2848   -1.9848    0.0000 C    0  0  0  0  0  0  0  0  0  0  0  0
    1.1539   -2.6541    0.0000 N    0  0  0  0  0  0  0  0  0  0  0  0
   10.3854   -2.6541    0.0000 N    0  0  0  0  0  0  0  0  0  0  0  0
    2.2848   -0.6462    0.0000 C    0  0  0  0  0  0  0  0  0  0  0  0
    9.2199   -0.6462    0.0000 C    0  0  0  0  0  0  0  0  0  0  0  0
    3.4618    0.0000    0.0000 C    0  0  0  0  0  0  0  0  0  0  0  0
    8.0775    0.0000    0.0000 C    0  0  0  0  0  0  0  0  0  0  0  0
   10.3854   -4.0157    0.0000 C    0  0  0  0  0  0  0  0  0  0  0  0
    0.0000   -1.9963    0.0000 C    0  0  0  0  0  0  0  0  0  0  0  0
   11.5394   -1.9963    0.0000 C    0  0  0  0  0  0  0  0  0  0  0  0
    1.1539   -3.9926    0.0000 C    0  0  0  0  0  0  0  0  0  0  0  0
    5.5966   -4.0503    0.0000 Cl   0  5  0  0  0  0  0  0  0  0  0  0
  1  3  1  0  0  0  0
  1  4  2  0  0  0  0
  2  8  2  0  0  0  0
  2  7  1  0  0  0  0
  3  6  1  0  0  0  0
  3  7  2  0  0  0  0
  4  5  1  0  0  0  0
  4  8  1  0  0  0  0
  5 10  2  0  0  0  0
  6  9  2  0  0  0  0
  7 16  1  0  0  0  0
  8 15  1  0  0  0  0
  9 12  1  0  0  0  0
  9 14  1  0  0  0  0
 10 11  1  0  0  0  0
 10 13  1  0  0  0  0
 11 18  1  0  0  0  0
 11 20  1  0  0  0  0
 12 17  1  0  0  0  0
 12 19  1  0  0  0  0
 13 15  2  0  0  0  0
 14 16  2  0  0  0  0
M  END
> <ID>
2959

> <Formula>
C16H18ClN3S

> <FW>
319.8522 (284.3987+35.4535)

> <DSSTox_CID>
3296

> <DSSTox_RID>
76963

> <DSSTox_GSID>
23296

> <DSSTox_FileID_Sort>
1647

> <TS_ChemName>
Methylene blue

> <TS_ChemName_Synonyms>


> <TS_CASRN>
61-73-4

> <CASRN_ChemName_Relationship>
primary

> <TS_Description>
single chemical compound

> <ChemNote>


> <STRUCTURE_Shown>
tested chemical

> <STRUCTURE_Formula>
C16H18ClN3S

> <STRUCTURE_MW>
319.8522

> <STRUCTURE_ChemType>
defined organic

> <STRUCTURE_DefinedOrganicForm>
salt

> <STRUCTURE_IUPAC>
3,7-bis(dimethylamino)phenothiazin-5-ium chloride

> <STRUCTURE_SMILES>
[Cl-].CN(C)c1ccc2nc3ccc(cc3[s+]c2c1)N(C)C

> <STRUCTURE_SMILES_Desalt>
CN(C)c1ccc2nc3ccc(cc3[s+]c2c1)N(C)C

> <Substance_modify_yyyymmdd>
20080429

$$$$
