61-78-9
ChemmineR-0915142007XD

 14 14  0  0  0  0  0  0  0  0  1 V2000
    1.1511   -1.9890    0.0000 C   0  0  0  0  0  0  0  0  0  0  0  0
    1.1511   -0.6630    0.0000 C   0  0  0  0  0  0  0  0  0  0  0  0
    0.0000    0.0000    0.0000 N   0  0  0  0  0  0  0  0  0  0  0  0
    2.3021    0.0000    0.0000 C   0  0  0  0  0  0  0  0  0  0  0  0
    3.4532   -0.6630    0.0000 C   0  0  0  0  0  0  0  0  0  0  0  0
    3.4532   -1.9890    0.0000 C   0  0  0  0  0  0  0  0  0  0  0  0
    4.6043   -2.6613    0.0000 C   0  0  0  0  0  0  0  0  0  0  0  0
    4.6043   -3.9873    0.0000 O   0  0  0  0  0  0  0  0  0  0  0  0
    5.7553   -1.9890    0.0000 N   0  0  0  0  0  0  0  0  0  0  0  0
    6.9064   -2.6613    0.0000 C   0  0  0  0  0  0  0  0  0  0  0  0
    8.0574   -1.9890    0.0000 C   0  0  0  0  0  0  0  0  0  0  0  0
    9.2085   -2.6613    0.0000 O   0  0  0  0  0  0  0  0  0  0  0  0
    8.0574   -0.6630    0.0000 O   0  0  0  0  0  0  0  0  0  0  0  0
    2.3021   -2.6613    0.0000 C   0  0  0  0  0  0  0  0  0  0  0  0
  1  2  2  0  0  0  0
  1 14  1  0  0  0  0
  2  3  1  0  0  0  0
  2  4  1  0  0  0  0
  4  5  2  0  0  0  0
  5  6  1  0  0  0  0
  6  7  1  0  0  0  0
  6 14  2  0  0  0  0
  7  8  2  0  0  0  0
  7  9  1  0  0  0  0
  9 10  1  0  0  0  0
 10 11  1  0  0  0  0
 11 12  1  0  0  0  0
 11 13  2  0  0  0  0
M  END
> <ID>
2346

> <Formula>
C9H10N2O3

> <FW>
194.1873

> <DSSTox_CID>
2590

> <DSSTox_RID>
76648

> <DSSTox_GSID>
22590

> <DSSTox_FileID_Sort>
1332

> <TS_ChemName>
Aminohippuric acid

> <TS_ChemName_Synonyms>


> <TS_CASRN>
61-78-9

> <CASRN_ChemName_Relationship>
primary

> <TS_Description>
single chemical compound

> <ChemNote>


> <STRUCTURE_Shown>
tested chemical

> <STRUCTURE_Formula>
C9H10N2O3

> <STRUCTURE_MW>
194.1873

> <STRUCTURE_ChemType>
defined organic

> <STRUCTURE_DefinedOrganicForm>
parent

> <STRUCTURE_IUPAC>
N-(4-aminobenzoyl)glycine

> <STRUCTURE_SMILES>
O=C(NCC(=O)O)c1ccc(N)cc1

> <STRUCTURE_SMILES_Desalt>
O=C(NCC(=O)O)c1ccc(N)cc1

> <Substance_modify_yyyymmdd>
20080429

$$$$
