610-96-8
ChemmineR-0915142007XD

 11 11  0  0  0  0  0  0  0  0  1 V2000
    3.4648   -1.3340    0.0000 C    0  0  0  0  0  0  0  0  0  0  0  0
    3.4648    0.0000    0.0000 O    0  0  0  0  0  0  0  0  0  0  0  0
    2.3099   -1.9923    0.0000 C    0  0  0  0  0  0  0  0  0  0  0  0
    4.6198   -1.9923    0.0000 O    0  0  0  0  0  0  0  0  0  0  0  0
    1.1549   -1.3340    0.0000 C    0  0  0  0  0  0  0  0  0  0  0  0
    2.3099   -3.3205    0.0000 C    0  0  0  0  0  0  0  0  0  0  0  0
    0.0000   -1.9923    0.0000 C    0  0  0  0  0  0  0  0  0  0  0  0
    1.1549   -3.9788    0.0000 C    0  0  0  0  0  0  0  0  0  0  0  0
    0.0000   -3.3205    0.0000 C    0  0  0  0  0  0  0  0  0  0  0  0
    1.1549    0.0000    0.0000 Cl   0  0  0  0  0  0  0  0  0  0  0  0
    5.7747   -1.3340    0.0000 C    0  0  0  0  0  0  0  0  0  0  0  0
  1  2  2  0  0  0  0
  1  3  1  0  0  0  0
  1  4  1  0  0  0  0
  3  5  2  0  0  0  0
  3  6  1  0  0  0  0
  4 11  1  0  0  0  0
  5  7  1  0  0  0  0
  5 10  1  0  0  0  0
  6  8  2  0  0  0  0
  7  9  2  0  0  0  0
  8  9  1  0  0  0  0
M  END
> <ID>
10353

> <Formula>
C8H7ClO2

> <FW>
170.593

> <DSSTox_CID>
24701

> <DSSTox_RID>
80406

> <DSSTox_GSID>
44701

> <DSSTox_FileID_Sort>
5088

> <TS_ChemName>
Methyl 2-chlorobenzoate

> <TS_ChemName_Synonyms>
Methyl 2-chlorobenzoate (Benzoic acid, 2-chloro-, methyl ester)

> <TS_CASRN>
610-96-8

> <CASRN_ChemName_Relationship>
primary

> <TS_Description>
single chemical compound

> <ChemNote>


> <STRUCTURE_Shown>
tested chemical

> <STRUCTURE_Formula>
C8H7ClO2

> <STRUCTURE_MW>
170.593

> <STRUCTURE_ChemType>
defined organic

> <STRUCTURE_DefinedOrganicForm>
parent

> <STRUCTURE_IUPAC>
methyl 2-chlorobenzoate

> <STRUCTURE_SMILES>
Clc1ccccc1C(=O)OC

> <STRUCTURE_SMILES_Desalt>
Clc1ccccc1C(=O)OC

> <Substance_modify_yyyymmdd>
20091116

$$$$
