610-14-0
ChemmineR-0915142007XD

 12 12  0  0  0  0  0  0  0  0  2 V2000
    0.0000   -4.6082    0.0000 O    0  0  0  0  0  0  0  0  0  0  0  0
    0.6656   -3.4585    0.0000 C    0  0  0  0  0  0  0  0  0  0  0  0
    1.9969   -3.4585    0.0000 C    0  0  0  0  0  0  0  0  0  0  0  0
    2.6579   -2.3041    0.0000 C    0  0  0  0  0  0  0  0  0  0  0  0
    1.9969   -1.1544    0.0000 N    0  3  0  0  0  0  0  0  0  0  0  0
    0.6656   -1.1544    0.0000 O    0  0  0  0  0  0  0  0  0  0  0  0
    2.6579    0.0000    0.0000 O    0  5  0  0  0  0  0  0  0  0  0  0
    3.9891   -2.3041    0.0000 C    0  0  0  0  0  0  0  0  0  0  0  0
    4.6548   -3.4585    0.0000 C    0  0  0  0  0  0  0  0  0  0  0  0
    3.9891   -4.6082    0.0000 C    0  0  0  0  0  0  0  0  0  0  0  0
    2.6579   -4.6082    0.0000 C    0  0  0  0  0  0  0  0  0  0  0  0
    0.0000   -2.3041    0.0000 Cl   0  0  0  0  0  0  0  0  0  0  0  0
  1  2  2  0  0  0  0
  2  3  1  0  0  0  0
  2 12  1  0  0  0  0
  3  4  2  0  0  0  0
  3 11  1  0  0  0  0
  4  5  1  0  0  0  0
  4  8  1  0  0  0  0
  5  6  2  0  0  0  0
  5  7  1  0  0  0  0
  8  9  2  0  0  0  0
  9 10  1  0  0  0  0
 10 11  2  0  0  0  0
M  END
> <ID>
4377

> <Formula>
C7H4ClNO3

> <FW>
185.5646

> <DSSTox_CID>
5741

> <DSSTox_RID>
77902

> <DSSTox_GSID>
25741

> <DSSTox_FileID_Sort>
2585

> <TS_ChemName>
2-Nitrobenzoyl chloride

> <TS_ChemName_Synonyms>
2-Nitrobenzoyl chloride (o-Nitrobenzoyl chloride)

> <TS_CASRN>
610-14-0

> <CASRN_ChemName_Relationship>
primary

> <TS_Description>
single chemical compound

> <ChemNote>


> <STRUCTURE_Shown>
tested chemical

> <STRUCTURE_Formula>
C7H4ClNO3

> <STRUCTURE_MW>
185.5646

> <STRUCTURE_ChemType>
defined organic

> <STRUCTURE_DefinedOrganicForm>
parent

> <STRUCTURE_IUPAC>
2-nitrobenzoyl chloride

> <STRUCTURE_SMILES>
O=[N+]([O-])c1ccccc1C(Cl)=O

> <STRUCTURE_SMILES_Desalt>
O=[N+]([O-])c1ccccc1C(Cl)=O

> <Substance_modify_yyyymmdd>
20080429

$$$$
