610-66-2
ChemmineR-0915142007XD

 12 12  0  0  0  0  0  0  0  0  2 V2000
    0.0000   -5.7589    0.0000 O   0  0  0  0  0  0  0  0  0  0  0  0
    0.6623   -4.6071    0.0000 N   0  3  0  0  0  0  0  0  0  0  0  0
    0.0000   -3.4554    0.0000 O   0  5  0  0  0  0  0  0  0  0  0  0
    1.9926   -4.6071    0.0000 C   0  0  0  0  0  0  0  0  0  0  0  0
    2.6606   -3.4554    0.0000 C   0  0  0  0  0  0  0  0  0  0  0  0
    3.9909   -3.4554    0.0000 C   0  0  0  0  0  0  0  0  0  0  0  0
    4.6532   -4.6071    0.0000 C   0  0  0  0  0  0  0  0  0  0  0  0
    3.9909   -5.7589    0.0000 C   0  0  0  0  0  0  0  0  0  0  0  0
    1.9926   -2.3036    0.0000 C   0  0  0  0  0  0  0  0  0  0  0  0
    2.6606   -1.1518    0.0000 C   0  0  0  0  0  0  0  0  0  0  0  0
    3.3229    0.0000    0.0000 N   0  0  0  0  0  0  0  0  0  0  0  0
    2.6606   -5.7589    0.0000 C   0  0  0  0  0  0  0  0  0  0  0  0
  1  2  2  0  0  0  0
  2  3  1  0  0  0  0
  2  4  1  0  0  0  0
  4  5  2  0  0  0  0
  4 12  1  0  0  0  0
  5  6  1  0  0  0  0
  5  9  1  0  0  0  0
  6  7  2  0  0  0  0
  7  8  1  0  0  0  0
  8 12  2  0  0  0  0
  9 10  1  0  0  0  0
 10 11  3  0  0  0  0
M  END
> <ID>
4393

> <Formula>
C8H6N2O2

> <FW>
162.1454

> <DSSTox_CID>
5768

> <DSSTox_RID>
77917

> <DSSTox_GSID>
25768

> <DSSTox_FileID_Sort>
2600

> <TS_ChemName>
(2-Nitrophenyl)acetonitrile

> <TS_ChemName_Synonyms>
(o-Nitrophenyl)acetonitrile

> <TS_CASRN>
610-66-2

> <CASRN_ChemName_Relationship>
primary

> <TS_Description>
single chemical compound

> <ChemNote>


> <STRUCTURE_Shown>
tested chemical

> <STRUCTURE_Formula>
C8H6N2O2

> <STRUCTURE_MW>
162.1454

> <STRUCTURE_ChemType>
defined organic

> <STRUCTURE_DefinedOrganicForm>
parent

> <STRUCTURE_IUPAC>
(2-nitrophenyl)acetonitrile

> <STRUCTURE_SMILES>
O=[N+]([O-])c1ccccc1CC#N

> <STRUCTURE_SMILES_Desalt>
O=[N+]([O-])c1ccccc1CC#N

> <Substance_modify_yyyymmdd>
20080429

$$$$
