610-15-1
ChemmineR-0915142007XD

 12 12  0  0  0  0  0  0  0  0  2 V2000
    3.9891   -3.4585    0.0000 C   0  0  0  0  0  0  0  0  0  0  0  0
    4.6548   -4.6082    0.0000 N   0  0  0  0  0  0  0  0  0  0  0  0
    4.6548   -2.3041    0.0000 O   0  0  0  0  0  0  0  0  0  0  0  0
    2.6579   -3.4585    0.0000 C   0  0  0  0  0  0  0  0  0  0  0  0
    1.9969   -4.6082    0.0000 C   0  0  0  0  0  0  0  0  0  0  0  0
    0.6656   -4.6082    0.0000 C   0  0  0  0  0  0  0  0  0  0  0  0
    0.0000   -3.4585    0.0000 C   0  0  0  0  0  0  0  0  0  0  0  0
    0.6656   -2.3041    0.0000 C   0  0  0  0  0  0  0  0  0  0  0  0
    1.9969   -2.3041    0.0000 C   0  0  0  0  0  0  0  0  0  0  0  0
    2.6579   -1.1544    0.0000 N   0  3  0  0  0  0  0  0  0  0  0  0
    1.9969    0.0000    0.0000 O   0  0  0  0  0  0  0  0  0  0  0  0
    3.9891   -1.1544    0.0000 O   0  5  0  0  0  0  0  0  0  0  0  0
  1  2  1  0  0  0  0
  1  3  2  0  0  0  0
  1  4  1  0  0  0  0
  4  5  2  0  0  0  0
  4  9  1  0  0  0  0
  5  6  1  0  0  0  0
  6  7  2  0  0  0  0
  7  8  1  0  0  0  0
  8  9  2  0  0  0  0
  9 10  1  0  0  0  0
 10 11  2  0  0  0  0
 10 12  1  0  0  0  0
M  END
> <ID>
4373

> <Formula>
C7H6N2O3

> <FW>
166.1341

> <DSSTox_CID>
5733

> <DSSTox_RID>
77898

> <DSSTox_GSID>
25733

> <DSSTox_FileID_Sort>
2581

> <TS_ChemName>
2-Nitrobenzamide

> <TS_ChemName_Synonyms>
2-Nitrobenzamide (o-Nitrobenzamide)

> <TS_CASRN>
610-15-1

> <CASRN_ChemName_Relationship>
primary

> <TS_Description>
single chemical compound

> <ChemNote>


> <STRUCTURE_Shown>
tested chemical

> <STRUCTURE_Formula>
C7H6N2O3

> <STRUCTURE_MW>
166.1341

> <STRUCTURE_ChemType>
defined organic

> <STRUCTURE_DefinedOrganicForm>
parent

> <STRUCTURE_IUPAC>
2-nitrobenzamide

> <STRUCTURE_SMILES>
O=[N+]([O-])c1ccccc1C(N)=O

> <STRUCTURE_SMILES_Desalt>
O=[N+]([O-])c1ccccc1C(N)=O

> <Substance_modify_yyyymmdd>
20080429

$$$$
