61036-62-2
ChemmineR-0915142007XD

136149  0  0  1  0  0  0  0  0  1 V2000
   11.1218   -6.9049    0.0000 C    0  0  0  0  0  0  0  0  0  0  0  0
   11.1218   -8.1872    0.0000 C    0  0  0  0  0  0  0  0  0  0  0  0
    9.9874   -6.2390    0.0000 C    0  0  0  0  0  0  0  0  0  0  0  0
    9.9874   -8.8530    0.0000 C    0  0  0  0  0  0  0  0  0  0  0  0
    8.8777   -6.9049    0.0000 C    0  0  0  0  0  0  0  0  0  0  0  0
    8.8777   -8.1872    0.0000 C    0  0  0  0  0  0  0  0  0  0  0  0
   12.2561   -6.2390    0.0000 O    0  0  0  0  0  0  0  0  0  0  0  0
   13.3658   -6.9049    0.0000 C    0  0  0  0  0  0  0  0  0  0  0  0
   13.3658   -8.2119    0.0000 C    0  0  0  0  0  0  0  0  0  0  0  0
   14.5002   -6.2390    0.0000 C    0  0  0  0  0  0  0  0  0  0  0  0
   15.6346   -6.9049    0.0000 C    0  0  0  0  0  0  0  0  0  0  0  0
   14.5002   -8.8530    0.0000 C    0  0  0  0  0  0  0  0  0  0  0  0
   15.6346   -8.2119    0.0000 C    0  0  0  0  0  0  0  0  0  0  0  0
   16.7690   -6.2390    0.0000 O    0  0  0  0  0  0  0  0  0  0  0  0
   17.8787   -6.9049    0.0000 C    0  0  0  0  0  0  0  0  0  0  0  0
   17.8787   -8.2119    0.0000 C    0  0  0  0  0  0  0  0  0  0  0  0
   19.0377   -6.2390    0.0000 C    0  0  0  0  0  0  0  0  0  0  0  0
   20.1474   -6.9049    0.0000 C    0  0  0  0  0  0  0  0  0  0  0  0
   19.0377   -8.8530    0.0000 C    0  0  0  0  0  0  0  0  0  0  0  0
   20.1474   -8.2119    0.0000 C    0  0  0  0  0  0  0  0  0  0  0  0
   16.7690  -10.8752    0.0000 C    0  0  0  0  0  0  0  0  0  0  0  0
   19.0377  -10.8752    0.0000 N    0  0  0  0  0  0  0  0  0  0  0  0
   17.8787  -11.4917    0.0000 C    0  0  0  0  0  0  0  0  0  0  0  0
   14.5002  -10.8752    0.0000 C    0  0  0  0  0  0  0  0  0  0  0  0
   15.6346  -11.4917    0.0000 N    0  0  0  0  0  0  0  0  0  0  0  0
   12.2561  -10.8752    0.0000 N    0  0  0  0  0  0  0  0  0  0  0  0
   13.3658  -11.4917    0.0000 C    0  0  0  0  0  0  0  0  0  0  0  0
    9.9874  -10.8752    0.0000 C    0  0  0  0  0  0  0  0  0  0  0  0
   11.1218  -11.5163    0.0000 C    0  0  0  0  0  0  0  0  0  0  0  0
    9.9874   -4.9320    0.0000 Cl   0  0  0  0  0  0  0  0  0  0  0  0
    8.8530  -11.5163    0.0000 N    0  0  0  0  0  0  0  0  0  0  0  0
    7.7187  -10.8752    0.0000 C    0  0  0  0  0  0  0  0  0  0  0  0
    6.5843  -11.5163    0.0000 C    0  0  0  0  0  0  0  0  0  0  0  0
   14.5002  -12.1822    0.0000 H    0  0  0  0  0  0  0  0  0  0  0  0
   16.7690   -9.5682    0.0000 O    0  0  0  0  0  0  0  0  0  0  0  0
   20.1474  -11.5163    0.0000 C    0  0  0  0  0  0  0  0  0  0  0  0
   21.2818  -10.8752    0.0000 C    0  0  0  0  0  0  0  0  0  0  0  0
   13.3658  -12.7987    0.0000 O    0  0  0  0  0  0  0  0  0  0  0  0
   11.1218  -12.8233    0.0000 C    0  0  0  0  0  0  0  0  0  0  0  0
   12.2561  -13.4645    0.0000 C    0  0  0  0  0  0  0  0  0  0  0  0
    9.9874  -13.4645    0.0000 C    0  0  0  0  0  0  0  0  0  0  0  0
   12.2561  -14.7715    0.0000 C    0  0  0  0  0  0  0  0  0  0  0  0
    9.9874  -14.7715    0.0000 C    0  0  0  0  0  0  0  0  0  0  0  0
   11.1218  -15.4373    0.0000 C    0  0  0  0  0  0  0  0  0  0  0  0
   17.8787  -12.8233    0.0000 C    0  0  0  0  0  0  0  0  0  0  0  0
   19.0377  -13.4645    0.0000 C    0  0  0  0  0  0  0  0  0  0  0  0
   16.7690  -13.4645    0.0000 C    0  0  0  0  0  0  0  0  0  0  0  0
   19.0377  -14.7715    0.0000 C    0  0  0  0  0  0  0  0  0  0  0  0
   16.7690  -14.7715    0.0000 C    0  0  0  0  0  0  0  0  0  0  0  0
   17.8787  -15.4373    0.0000 C    0  0  0  0  0  0  0  0  0  0  0  0
   17.8787  -10.1847    0.0000 H    0  0  0  0  0  0  0  0  0  0  0  0
   11.1218  -10.2093    0.0000 H    0  0  0  0  0  0  0  0  0  0  0  0
   11.1218  -16.7443    0.0000 O    0  0  0  0  0  0  0  0  0  0  0  0
   15.6346  -15.4373    0.0000 O    0  0  0  0  0  0  0  0  0  0  0  0
   20.1474  -15.4126    0.0000 O    0  0  0  0  0  0  0  0  0  0  0  0
   21.2818  -14.7715    0.0000 C    0  0  0  0  0  0  0  0  0  0  0  0
   21.2818  -13.4645    0.0000 C    0  0  0  0  0  0  0  0  0  0  0  0
   22.3915  -15.4126    0.0000 C    0  0  0  0  0  0  0  0  0  0  0  0
   22.4162  -12.7987    0.0000 C    0  0  0  0  0  0  0  0  0  0  0  0
   23.5259  -14.7715    0.0000 C    0  0  0  0  0  0  0  0  0  0  0  0
   23.5259  -13.4645    0.0000 C    0  0  0  0  0  0  0  0  0  0  0  0
   22.3915  -16.7196    0.0000 O    0  0  0  0  0  0  0  0  0  0  0  0
   14.5002   -3.9456    0.0000 O    0  0  0  0  0  0  0  0  0  0  0  0
    7.7187   -8.8530    0.0000 C    0  0  0  0  0  0  0  0  0  0  0  0
    5.9678   -7.8420    0.0000 O    0  0  0  0  0  0  0  0  0  0  0  0
    5.4746  -10.8752    0.0000 O    0  0  0  0  0  0  0  0  0  0  0  0
    6.5843  -12.8233    0.0000 N    0  0  0  0  0  0  0  0  0  0  0  0
    7.7187  -13.4645    0.0000 C    0  0  0  0  0  0  0  0  0  0  0  0
    8.8530  -15.4373    0.0000 C    0  0  0  0  0  0  0  0  0  0  0  0
    7.7187  -14.7715    0.0000 C    0  0  0  0  0  0  0  0  0  0  0  0
    8.8530  -16.7443    0.0000 C    0  0  0  0  0  0  0  0  0  0  0  0
    7.7187  -17.3855    0.0000 C    0  0  0  0  0  0  0  0  0  0  0  0
    6.5843  -15.4373    0.0000 C    0  0  0  0  0  0  0  0  0  0  0  0
    6.5843  -16.7443    0.0000 C    0  0  0  0  0  0  0  0  0  0  0  0
    8.5324  -13.0206    0.0000 C    0  0  0  0  0  0  0  0  0  0  0  0
    8.5324  -12.0835    0.0000 O    0  0  0  0  0  0  0  0  0  0  0  0
    9.3462  -13.4645    0.0000 O    0  0  0  0  0  0  0  0  0  0  0  0
   15.6346   -3.2798    0.0000 C    0  0  0  0  0  0  0  0  0  0  0  0
   15.6346   -1.9728    0.0000 C    0  0  0  0  0  0  0  0  0  0  0  0
   16.7690   -3.9456    0.0000 O    0  0  0  0  0  0  0  0  0  0  0  0
   16.7690   -1.3070    0.0000 C    0  0  0  0  0  0  0  0  0  0  0  0
   17.9033   -3.2798    0.0000 C    0  0  0  0  0  0  0  0  0  0  0  0
   17.9033   -1.9728    0.0000 C    0  0  0  0  0  0  0  0  0  0  0  0
   19.0377   -3.9456    0.0000 C    0  0  0  0  0  0  0  0  0  0  0  0
   20.1721   -3.2798    0.0000 O    0  0  0  0  0  0  0  0  0  0  0  0
   19.0377   -4.9320    0.0000 Cl   0  0  0  0  0  0  0  0  0  0  0  0
   19.0377   -1.3070    0.0000 O    0  0  0  0  0  0  0  0  0  0  0  0
   16.7690    0.0000    0.0000 O    0  0  0  0  0  0  0  0  0  0  0  0
   14.5002   -1.3070    0.0000 N    0  0  0  0  0  0  0  0  0  0  0  0
   13.3658   -1.9728    0.0000 C    0  0  0  0  0  0  0  0  0  0  0  0
   13.3658   -3.2798    0.0000 O    0  0  0  0  0  0  0  0  0  0  0  0
   12.2561   -1.3070    0.0000 C    0  0  0  0  0  0  0  0  0  0  0  0
   11.1218   -1.9728    0.0000 C    0  0  0  0  0  0  0  0  0  0  0  0
    9.9874   -1.3070    0.0000 C    0  0  0  0  0  0  0  0  0  0  0  0
    8.8530   -1.9728    0.0000 C    0  0  0  0  0  0  0  0  0  0  0  0
    8.8530   -3.2798    0.0000 C    0  0  0  0  0  0  0  0  0  0  0  0
    7.7187   -3.9456    0.0000 C    0  0  0  0  0  0  0  0  0  0  0  0
    6.5843   -3.2798    0.0000 C    0  0  0  0  0  0  0  0  0  0  0  0
    5.4746   -3.9456    0.0000 C    0  0  0  0  0  0  0  0  0  0  0  0
    4.3402   -3.2798    0.0000 C    0  0  0  0  0  0  0  0  0  0  0  0
    3.9210   -7.8420    0.0000 C    0  0  0  0  0  0  0  0  0  0  0  0
    3.2552   -8.9763    0.0000 C    0  0  0  0  0  0  0  0  0  0  0  0
    3.2552   -6.6829    0.0000 O    0  0  0  0  0  0  0  0  0  0  0  0
    1.9482   -8.9763    0.0000 C    0  0  0  0  0  0  0  0  0  0  0  0
    1.9482   -6.6829    0.0000 C    0  0  0  0  0  0  0  0  0  0  0  0
    1.3070   -7.8420    0.0000 C    0  0  0  0  0  0  0  0  0  0  0  0
    1.3070   -5.5732    0.0000 C    0  0  0  0  0  0  0  0  0  0  0  0
    0.0000   -5.5732    0.0000 O    0  0  0  0  0  0  0  0  0  0  0  0
    0.0000   -7.8420    0.0000 O    0  0  0  0  0  0  0  0  0  0  0  0
    1.3070  -10.1107    0.0000 O    0  0  0  0  0  0  0  0  0  0  0  0
    3.9210  -10.1107    0.0000 N    0  0  0  0  0  0  0  0  0  0  0  0
    4.5621   -6.6829    0.0000 H    0  0  0  0  0  0  0  0  0  0  0  0
    3.2552  -11.2204    0.0000 C    0  0  0  0  0  0  0  0  0  0  0  0
    3.9210  -12.3548    0.0000 O    0  0  0  0  0  0  0  0  0  0  0  0
    1.9482  -11.2204    0.0000 C    0  0  0  0  0  0  0  0  0  0  0  0
    5.4746  -17.3855    0.0000 O    0  0  0  0  0  0  0  0  0  0  0  0
    9.9874  -17.3855    0.0000 O    0  0  0  0  0  0  0  0  0  0  0  0
    9.9874   -9.5682    0.0000 O    0  0  0  0  0  0  0  0  0  0  0  0
   20.1474  -12.8233    0.0000 O    0  0  0  0  0  0  0  0  0  0  0  0
   21.2818   -8.8530    0.0000 C    0  0  0  0  0  0  0  0  0  0  0  0
   23.5505  -10.8752    0.0000 C    0  0  0  0  0  0  0  0  0  0  0  0
   22.4162  -10.1847    0.0000 N    0  0  0  0  0  0  0  0  0  0  0  0
   23.5505  -12.1822    0.0000 C    0  0  0  0  0  0  0  0  0  0  0  0
   24.6602  -10.2093    0.0000 O    0  0  0  0  0  0  0  0  0  0  0  0
   24.6602  -12.8233    0.0000 N    0  0  0  0  0  0  0  0  0  0  0  0
    9.9874  -18.7171    0.0000 C    0  0  0  0  0  0  0  0  0  0  0  0
   11.1464  -19.3583    0.0000 O    0  0  0  0  0  0  0  0  0  0  0  0
    8.8530  -19.3583    0.0000 C    0  0  0  0  0  0  0  0  0  0  0  0
   11.1464  -20.6653    0.0000 C    0  0  0  0  0  0  0  0  0  0  0  0
    8.8530  -20.6653    0.0000 C    0  0  0  0  0  0  0  0  0  0  0  0
    9.9874  -21.3311    0.0000 C    0  0  0  0  0  0  0  0  0  0  0  0
    7.7187  -18.7171    0.0000 O    0  0  0  0  0  0  0  0  0  0  0  0
    7.7187  -21.3311    0.0000 O    0  0  0  0  0  0  0  0  0  0  0  0
    9.9874  -22.6381    0.0000 O    0  0  0  0  0  0  0  0  0  0  0  0
   12.2561  -21.3311    0.0000 C    0  0  0  0  0  0  0  0  0  0  0  0
   13.3905  -20.6653    0.0000 O    0  0  0  0  0  0  0  0  0  0  0  0
  1  3  2  0  0  0  0
  1  7  1  0  0  0  0
  1  2  1  0  0  0  0
  2  4  2  0  0  0  0
  3  5  1  0  0  0  0
  3 30  1  0  0  0  0
  4  6  1  0  0  0  0
  5  6  2  0  0  0  0
  6 64  1  0  0  0  0
  7  8  1  0  0  0  0
  8 10  1  0  0  0  0
  8  9  2  0  0  0  0
  9 12  1  0  0  0  0
 10 11  2  0  0  0  0
 10 63  1  0  0  0  0
 11 14  1  0  0  0  0
 11 13  1  0  0  0  0
 12 13  2  0  0  0  0
 12 24  1  0  0  0  0
 14 15  1  0  0  0  0
 15 17  1  0  0  0  0
 15 16  2  0  0  0  0
 16 19  1  0  0  0  0
 17 18  2  0  0  0  0
 17 86  1  0  0  0  0
 18 20  1  0  0  0  0
 19 20  2  0  0  0  0
 20120  1  0  0  0  0
 21 23  1  0  0  0  0
 21 25  1  0  0  0  0
 21 35  2  0  0  0  0
 22 23  1  0  0  0  0
 22 36  1  0  0  0  0
 23 45  1  0  0  0  0
 23 51  1  6  0  0  0
 24 25  1  0  0  0  0
 24 27  1  0  0  0  0
 24 34  1  6  0  0  0
 26 27  1  0  0  0  0
 26 29  1  0  0  0  0
 27 38  2  0  0  0  0
 28 29  1  0  0  0  0
 28 31  1  0  0  0  0
 28118  2  0  0  0  0
 29 39  1  0  0  0  0
 29 52  1  1  0  0  0
 31 32  1  0  0  0  0
 32 64  1  0  0  0  0
 32 33  1  6  0  0  0
 33 66  2  0  0  0  0
 33 67  1  0  0  0  0
 36 37  1  0  0  0  0
 36119  2  0  0  0  0
 37120  1  0  0  0  0
 37122  1  1  0  0  0
 39 40  1  0  0  0  0
 39 41  2  0  0  0  0
 40 42  2  0  0  0  0
 41 43  1  0  0  0  0
 42 44  1  0  0  0  0
 43 44  2  0  0  0  0
 43 69  1  0  0  0  0
 44 53  1  0  0  0  0
 45 46  1  0  0  0  0
 45 47  2  0  0  0  0
 46 48  2  0  0  0  0
 47 49  1  0  0  0  0
 48 50  1  0  0  0  0
 48 55  1  0  0  0  0
 49 50  2  0  0  0  0
 49 54  1  0  0  0  0
 55 56  1  0  0  0  0
 56 57  1  0  0  0  0
 56 58  2  0  0  0  0
 57 59  2  0  0  0  0
 58 60  1  0  0  0  0
 58 62  1  0  0  0  0
 59 61  1  0  0  0  0
 59123  1  0  0  0  0
 60 61  2  0  0  0  0
 78 63  1  1  0  0  0
 64 65  1  6  0  0  0
 65101  1  0  0  0  0
 67 68  1  0  0  0  0
 68 70  1  0  0  0  0
 68 75  1  1  0  0  0
 69 71  1  0  0  0  0
 69 70  2  0  0  0  0
 70 73  1  0  0  0  0
 71 72  2  0  0  0  0
 71117  1  0  0  0  0
 72 74  1  0  0  0  0
 73 74  2  0  0  0  0
 74116  1  0  0  0  0
 75 76  2  0  0  0  0
 75 77  1  0  0  0  0
 78 79  1  0  0  0  0
 78 80  1  0  0  0  0
 79 81  1  0  0  0  0
 79 89  1  6  0  0  0
 80 82  1  0  0  0  0
 81 83  1  0  0  0  0
 81 88  1  1  0  0  0
 82 83  1  0  0  0  0
 82 84  1  1  0  0  0
 83 87  1  6  0  0  0
 84 85  1  0  0  0  0
 89 90  1  0  0  0  0
 90 91  2  0  0  0  0
 90 92  1  0  0  0  0
 92 93  1  0  0  0  0
 93 94  1  0  0  0  0
 94 95  2  0  0  0  0
 95 96  1  0  0  0  0
 96 97  1  0  0  0  0
 97 98  1  0  0  0  0
 98 99  1  0  0  0  0
 99100  1  0  0  0  0
101102  1  0  0  0  0
101103  1  0  0  0  0
101112  1  6  0  0  0
102104  1  0  0  0  0
102111  1  6  0  0  0
103105  1  0  0  0  0
104106  1  0  0  0  0
104110  1  1  0  0  0
105106  1  0  0  0  0
105107  1  1  0  0  0
106109  1  6  0  0  0
107108  1  0  0  0  0
111113  1  0  0  0  0
113114  2  0  0  0  0
113115  1  0  0  0  0
126117  1  1  0  0  0
121122  1  0  0  0  0
121123  1  0  0  0  0
121124  2  0  0  0  0
123125  1  1  0  0  0
126127  1  0  0  0  0
126128  1  0  0  0  0
127129  1  0  0  0  0
128130  1  0  0  0  0
128132  1  6  0  0  0
129131  1  0  0  0  0
129135  1  6  0  0  0
130131  1  0  0  0  0
130133  1  6  0  0  0
131134  1  1  0  0  0
135136  1  0  0  0  0
M  END
> <ID>
12076

> <Formula>
C88H95Cl2N9O33

> <FW>
1877.6424

> <DSSTox_CID>
26917

> <DSSTox_RID>
82840

> <DSSTox_GSID>
48642

> <DSSTox_FileID_Sort>
7517

> <TS_ChemName>
Teicoplanin

> <TS_ChemName_Synonyms>


> <TS_CASRN>
61036-62-2

> <CASRN_ChemName_Relationship>
primary

> <TS_Description>
mixture or formulation

> <ChemNote>
mixture of several compounds, five major (named teicoplanin A2-1 through A2-5) and four minor (named teicoplanin RS-1 through RS-4). All share a same glycopeptide core, termed teicoplanin A3-1,  with two carbohydrates (mannose and N-acetylglucosamine) are

> <STRUCTURE_Shown>
representative component

> <STRUCTURE_Formula>
C88H95Cl2N9O33

> <STRUCTURE_MW>
1877.6424

> <STRUCTURE_ChemType>
defined organic

> <STRUCTURE_DefinedOrganicForm>
parent

> <STRUCTURE_IUPAC>
(1S,2R,19R,22S,34S,37R,40R,52R)-2-{[(2R,3R,4R,5S,6R)-3-(acetylamino)-4,5-dihydroxy-6-(hydroxymethyl)tetrahydro-2H-pyran-2-yl]oxy}-22-amino-5,15-dichloro-64-{[(2S,3R,4R,5S,6R)-3-[(4Z)-dec-4-enoylamino]-4,5-dihydroxy-6-(hydroxymethyl)tetrahydro-2H-pyran-2-y

> <STRUCTURE_SMILES>
Clc%14cc3ccc%14Oc%13cc7cc(Oc1ccc(cc1Cl)[C@@H](O[C@@H]2O[C@H](CO)[C@@H](O)[C@H](O)[C@H]2NC(C)=O)[C@@H]%10NC(=O)[C@H](NC(=O)[C@@H]7NC(=O)[C@H]5NC(=O)[C@@H](C3)NC(=O)[C@@H](N)c6ccc(O)c(Oc4cc5cc(O)c4)c6)c%11cc(c9c(O[C@H]8O[C@H](CO)[C@@H](O)[C@H](O)[C@@H]8O)cc

> <STRUCTURE_SMILES_Desalt>
Clc%14cc3ccc%14Oc%13cc7cc(Oc1ccc(cc1Cl)[C@@H](O[C@@H]2O[C@H](CO)[C@@H](O)[C@H](O)[C@H]2NC(C)=O)[C@@H]%10NC(=O)[C@H](NC(=O)[C@@H]7NC(=O)[C@H]5NC(=O)[C@@H](C3)NC(=O)[C@@H](N)c6ccc(O)c(Oc4cc5cc(O)c4)c6)c%11cc(c9c(O[C@H]8O[C@H](CO)[C@@H](O)[C@H](O)[C@@H]8O)cc

> <Substance_modify_yyyymmdd>
20111005

$$$$
