6106-81-6
ChemmineR-0915142007XD

 24 26  0  0  1  0  0  0  0  0  2 V2000
    3.2966   -3.9956    0.0000 C    0  0  0  0  0  0  0  0  0  0  0  0
    3.9956   -4.9241    0.0000 C    0  0  0  0  0  0  0  0  0  0  0  0
    3.5783   -3.0462    0.0000 C    0  0  0  0  0  0  0  0  0  0  0  0
    2.4620   -2.4203    0.0000 C    0  0  0  0  0  0  0  0  0  0  0  0
    1.2727   -2.8480    0.0000 C    0  0  0  0  0  0  0  0  0  0  0  0
    0.0000   -2.4620    0.0000 O    0  0  0  0  0  0  0  0  0  0  0  0
    0.8555   -3.8495    0.0000 C    0  0  0  0  0  0  0  0  0  0  0  0
    2.0343   -3.4531    0.0000 C    0  0  0  0  0  0  0  0  0  0  0  0
    2.0343   -1.1684    0.0000 N    0  3  0  0  0  0  0  0  0  0  0  0
    4.0790   -6.0195    0.0000 O    0  0  0  0  0  0  0  0  0  0  0  0
    5.1744   -6.6350    0.0000 C    0  0  0  0  0  0  0  0  0  0  0  0
    5.1744   -7.9077    0.0000 C    0  0  0  0  0  0  0  0  0  0  0  0
    6.2490   -6.0195    0.0000 O    0  0  0  0  0  0  0  0  0  0  0  0
    6.2490   -8.5441    0.0000 C    0  0  0  0  0  0  0  0  0  0  0  0
    6.2490   -9.8064    0.0000 O    0  0  0  0  0  0  0  0  0  0  0  0
    4.0790   -8.5441    0.0000 C    0  0  0  0  0  0  0  0  0  0  0  0
    4.0790   -9.8064    0.0000 C    0  0  0  0  0  0  0  0  0  0  0  0
    2.9628   -7.9077    0.0000 C    0  0  0  0  0  0  0  0  0  0  0  0
    2.9628  -10.4323    0.0000 C    0  0  0  0  0  0  0  0  0  0  0  0
    1.8674   -8.5441    0.0000 C    0  0  0  0  0  0  0  0  0  0  0  0
    1.8674   -9.8064    0.0000 C    0  0  0  0  0  0  0  0  0  0  0  0
    2.4933    0.0000    0.0000 C    0  0  0  0  0  0  0  0  0  0  0  0
    0.9702   -0.6990    0.0000 O    0  5  0  0  0  0  0  0  0  0  0  0
    4.5798   -1.7318    0.0000 Br   0  0  0  0  0  0  0  0  0  0  0  0
  1  8  1  0  0  0  0
  1  2  1  0  0  0  0
  2  3  1  0  0  0  0
  2 10  1  6  0  0  0
  3  4  1  0  0  0  0
  4  9  1  1  0  0  0
  4  5  1  0  0  0  0
  5  6  1  1  0  0  0
  5  7  1  0  0  0  0
  7  6  1  1  0  0  0
  7  8  1  0  0  0  0
  8  9  1  6  0  0  0
  9 22  1  0  0  0  0
  9 23  1  0  0  0  0
 10 11  1  0  0  0  0
 11 12  1  0  0  0  0
 11 13  2  0  0  0  0
 12 14  1  0  0  0  0
 12 16  1  6  0  0  0
 14 15  1  0  0  0  0
 16 17  1  0  0  0  0
 16 18  2  0  0  0  0
 17 19  2  0  0  0  0
 18 20  1  0  0  0  0
 19 21  1  0  0  0  0
 20 21  2  0  0  0  0
M  END
> <ID>
10739

> <Formula>
C17H22BrNO5

> <FW>
400.2643 (319.3523+80.9119)

> <DSSTox_CID>
25101

> <DSSTox_RID>
80670

> <DSSTox_GSID>
45101

> <DSSTox_FileID_Sort>
5352

> <TS_ChemName>
Scopolamine N-oxide hydrobromide

> <TS_ChemName_Synonyms>
Aminoxyscopolamine hydrobromide

> <TS_CASRN>
6106-81-6

> <CASRN_ChemName_Relationship>
primary

> <TS_Description>
single chemical compound

> <ChemNote>
stereochem; parent [97-75-6]

> <STRUCTURE_Shown>
tested chemical

> <STRUCTURE_Formula>
C17H22BrNO5

> <STRUCTURE_MW>
400.2643

> <STRUCTURE_ChemType>
defined organic

> <STRUCTURE_DefinedOrganicForm>
complex

> <STRUCTURE_IUPAC>
(1R,2R,4S,5S,7S)-9-methyl-9-oxido-3-oxa-9-azatricyclo[3.3.1.02,4]non-7-yl (2S)-3-hydroxy-2-phenylpropanoate hydrobromide

> <STRUCTURE_SMILES>
Br.OC[C@H](c1ccccc1)C(=O)O[C@@H]2C[C@@H]3[C@H]4O[C@H]4[C@H](C2)[N+]3(C)[O-]

> <STRUCTURE_SMILES_Desalt>
OC[C@H](c1ccccc1)C(=O)O[C@@H]2C[C@@H]3[C@H]4O[C@H]4[C@H](C2)[N+]3(O)C

> <Substance_modify_yyyymmdd>
20100107

$$$$
