6109-97-3
ChemmineR-0915142007XD

 17 18  0  0  0  0  0  0  0  0  1 V2000
    2.1191   -7.5412    0.0000 C    0  0  0  0  0  0  0  0  0  0  0  0
    1.7118   -6.2743    0.0000 C    0  0  0  0  0  0  0  0  0  0  0  0
    2.6017   -5.2864    0.0000 N    0  0  0  0  0  0  0  0  0  0  0  0
    3.9214   -5.4296    0.0000 C    0  0  0  0  0  0  0  0  0  0  0  0
    4.4644   -4.2155    0.0000 C    0  0  0  0  0  0  0  0  0  0  0  0
    5.7841   -4.0722    0.0000 C    0  0  0  0  0  0  0  0  0  0  0  0
    6.5684   -5.1506    0.0000 C    0  0  0  0  0  0  0  0  0  0  0  0
    6.0254   -6.3648    0.0000 C    0  0  0  0  0  0  0  0  0  0  0  0
    4.7057   -6.5005    0.0000 C    0  0  0  0  0  0  0  0  0  0  0  0
    3.4765   -3.3257    0.0000 C    0  0  0  0  0  0  0  0  0  0  0  0
    2.3227   -3.9893    0.0000 C    0  0  0  0  0  0  0  0  0  0  0  0
    1.1689   -3.3257    0.0000 C    0  0  0  0  0  0  0  0  0  0  0  0
    1.1689   -1.9909    0.0000 C    0  0  0  0  0  0  0  0  0  0  0  0
    2.3227   -1.3272    0.0000 C    0  0  0  0  0  0  0  0  0  0  0  0
    3.4765   -1.9909    0.0000 C    0  0  0  0  0  0  0  0  0  0  0  0
    2.3227    0.0000    0.0000 N    0  0  0  0  0  0  0  0  0  0  0  0
    0.0000   -4.6077    0.0000 Cl   0  0  0  0  0  0  0  0  0  0  0  0
  1  2  1  0  0  0  0
  2  3  1  0  0  0  0
  3  4  1  0  0  0  0
  3 11  1  0  0  0  0
  4  5  1  0  0  0  0
  4  9  2  0  0  0  0
  5  6  2  0  0  0  0
  5 10  1  0  0  0  0
  6  7  1  0  0  0  0
  7  8  2  0  0  0  0
  8  9  1  0  0  0  0
 10 11  2  0  0  0  0
 10 15  1  0  0  0  0
 11 12  1  0  0  0  0
 12 13  2  0  0  0  0
 13 14  1  0  0  0  0
 14 15  2  0  0  0  0
 14 16  1  0  0  0  0
M  END
> <ID>
53

> <Formula>
C14H15ClN2

> <FW>
246.7353 (210.2744+36.4609)

> <DSSTox_CID>
54

> <DSSTox_RID>
75338

> <DSSTox_GSID>
20054

> <DSSTox_FileID_Sort>
22

> <TS_ChemName>
3-Amino-9-ethylcarbazole hydrochloride

> <TS_ChemName_Synonyms>


> <TS_CASRN>
6109-97-3

> <CASRN_ChemName_Relationship>
primary

> <TS_Description>
single chemical compound

> <ChemNote>
parent [132-32-1]

> <STRUCTURE_Shown>
tested chemical

> <STRUCTURE_Formula>
C14H15ClN2

> <STRUCTURE_MW>
246.7353

> <STRUCTURE_ChemType>
defined organic

> <STRUCTURE_DefinedOrganicForm>
complex

> <STRUCTURE_IUPAC>
9-ethyl-9H-carbazol-3-amine hydrochloride (1:1)

> <STRUCTURE_SMILES>
Cl.Nc2cc3c1ccccc1n(CC)c3cc2

> <STRUCTURE_SMILES_Desalt>
Nc2cc3c1ccccc1n(CC)c3cc2

> <Substance_modify_yyyymmdd>
20080429

$$$$
