611-32-5
ChemmineR-0915142007XD

 11 12  0  0  0  0  0  0  0  0  1 V2000
    3.4555    0.0000    0.0000 C   0  0  0  0  0  0  0  0  0  0  0  0
    3.4555   -1.3315    0.0000 C   0  0  0  0  0  0  0  0  0  0  0  0
    4.6073   -1.9950    0.0000 C   0  0  0  0  0  0  0  0  0  0  0  0
    4.6073   -3.3265    0.0000 C   0  0  0  0  0  0  0  0  0  0  0  0
    3.4555   -3.9899    0.0000 C   0  0  0  0  0  0  0  0  0  0  0  0
    2.3037   -3.3265    0.0000 C   0  0  0  0  0  0  0  0  0  0  0  0
    1.1518   -3.9899    0.0000 C   0  0  0  0  0  0  0  0  0  0  0  0
    0.0000   -3.3265    0.0000 C   0  0  0  0  0  0  0  0  0  0  0  0
    0.0000   -1.9950    0.0000 C   0  0  0  0  0  0  0  0  0  0  0  0
    1.1518   -1.3315    0.0000 N   0  0  0  0  0  0  0  0  0  0  0  0
    2.3037   -1.9950    0.0000 C   0  0  0  0  0  0  0  0  0  0  0  0
  1  2  1  0  0  0  0
  2  3  2  0  0  0  0
  2 11  1  0  0  0  0
  3  4  1  0  0  0  0
  4  5  2  0  0  0  0
  5  6  1  0  0  0  0
  6  7  2  0  0  0  0
  6 11  1  0  0  0  0
  7  8  1  0  0  0  0
  8  9  2  0  0  0  0
  9 10  1  0  0  0  0
 10 11  2  0  0  0  0
M  END
> <ID>
854

> <Formula>
C10H9N

> <FW>
143.1852

> <DSSTox_CID>
888

> <DSSTox_RID>
75845

> <DSSTox_GSID>
20888

> <DSSTox_FileID_Sort>
529

> <TS_ChemName>
8-Methylquinoline

> <TS_ChemName_Synonyms>


> <TS_CASRN>
611-32-5

> <CASRN_ChemName_Relationship>
primary

> <TS_Description>
single chemical compound

> <ChemNote>


> <STRUCTURE_Shown>
tested chemical

> <STRUCTURE_Formula>
C10H9N

> <STRUCTURE_MW>
143.1852

> <STRUCTURE_ChemType>
defined organic

> <STRUCTURE_DefinedOrganicForm>
parent

> <STRUCTURE_IUPAC>
8-methylquinoline

> <STRUCTURE_SMILES>
Cc1cccc2cccnc12

> <STRUCTURE_SMILES_Desalt>
Cc1cccc2cccnc12

> <Substance_modify_yyyymmdd>
20080429

$$$$
