611-99-4
ChemmineR-0915142007XD

 16 17  0  0  0  0  0  0  0  0  1 V2000
    4.6048   -1.3262    0.0000 C   0  0  0  0  0  0  0  0  0  0  0  0
    5.7560   -1.9893    0.0000 C   0  0  0  0  0  0  0  0  0  0  0  0
    6.9072   -1.3262    0.0000 C   0  0  0  0  0  0  0  0  0  0  0  0
    8.0584   -1.9893    0.0000 C   0  0  0  0  0  0  0  0  0  0  0  0
    8.0584   -3.3247    0.0000 C   0  0  0  0  0  0  0  0  0  0  0  0
    6.9072   -3.9878    0.0000 C   0  0  0  0  0  0  0  0  0  0  0  0
    5.7560   -3.3247    0.0000 C   0  0  0  0  0  0  0  0  0  0  0  0
    9.2096   -3.9878    0.0000 O   0  0  0  0  0  0  0  0  0  0  0  0
    3.4536   -1.9893    0.0000 C   0  0  0  0  0  0  0  0  0  0  0  0
    3.4536   -3.3247    0.0000 C   0  0  0  0  0  0  0  0  0  0  0  0
    2.3024   -3.9878    0.0000 C   0  0  0  0  0  0  0  0  0  0  0  0
    1.1512   -3.3247    0.0000 C   0  0  0  0  0  0  0  0  0  0  0  0
    1.1512   -1.9893    0.0000 C   0  0  0  0  0  0  0  0  0  0  0  0
    2.3024   -1.3262    0.0000 C   0  0  0  0  0  0  0  0  0  0  0  0
    0.0000   -3.9878    0.0000 O   0  0  0  0  0  0  0  0  0  0  0  0
    4.6048    0.0000    0.0000 O   0  0  0  0  0  0  0  0  0  0  0  0
  1  2  1  0  0  0  0
  1  9  1  0  0  0  0
  1 16  2  0  0  0  0
  2  3  2  0  0  0  0
  2  7  1  0  0  0  0
  3  4  1  0  0  0  0
  4  5  2  0  0  0  0
  5  6  1  0  0  0  0
  5  8  1  0  0  0  0
  6  7  2  0  0  0  0
  9 10  2  0  0  0  0
  9 14  1  0  0  0  0
 10 11  1  0  0  0  0
 11 12  2  0  0  0  0
 12 13  1  0  0  0  0
 12 15  1  0  0  0  0
 13 14  2  0  0  0  0
M  END
> <ID>
2220

> <Formula>
C13H10O3

> <FW>
214.2167

> <DSSTox_CID>
2425

> <DSSTox_RID>
76587

> <DSSTox_GSID>
22425

> <DSSTox_FileID_Sort>
1271

> <TS_ChemName>
4,4'-Dihydoxybenzophenone

> <TS_ChemName_Synonyms>


> <TS_CASRN>
611-99-4

> <CASRN_ChemName_Relationship>
primary

> <TS_Description>
single chemical compound

> <ChemNote>


> <STRUCTURE_Shown>
tested chemical

> <STRUCTURE_Formula>
C13H10O3

> <STRUCTURE_MW>
214.2167

> <STRUCTURE_ChemType>
defined organic

> <STRUCTURE_DefinedOrganicForm>
parent

> <STRUCTURE_IUPAC>
bis(4-hydroxyphenyl)methanone

> <STRUCTURE_SMILES>
O=C(c1ccc(O)cc1)c2ccc(O)cc2

> <STRUCTURE_SMILES_Desalt>
O=C(c1ccc(O)cc1)c2ccc(O)cc2

> <Substance_modify_yyyymmdd>
20080429

$$$$
