611-71-2
ChemmineR-0915142007XD

 11 11  0  0  1  0  0  0  0  0  1 V2000
    2.3049   -1.9872    0.0000 C   0  0  0  0  0  0  0  0  0  0  0  0
    2.3049   -3.3158    0.0000 C   0  0  0  0  0  0  0  0  0  0  0  0
    1.1496   -1.3286    0.0000 C   0  0  0  0  0  0  0  0  0  0  0  0
    1.1496   -3.9859    0.0000 C   0  0  0  0  0  0  0  0  0  0  0  0
    0.0000   -1.9872    0.0000 C   0  0  0  0  0  0  0  0  0  0  0  0
    0.0000   -3.3158    0.0000 C   0  0  0  0  0  0  0  0  0  0  0  0
    3.4545   -1.3286    0.0000 C   0  0  0  0  0  0  0  0  0  0  0  0
    4.6098   -1.9872    0.0000 C   0  0  0  0  0  0  0  0  0  0  0  0
    5.7767   -1.3286    0.0000 O   0  0  0  0  0  0  0  0  0  0  0  0
    3.4545    0.0000    0.0000 O   0  0  0  0  0  0  0  0  0  0  0  0
    4.6098   -3.3158    0.0000 O   0  0  0  0  0  0  0  0  0  0  0  0
  1  2  1  0  0  0  0
  1  3  2  0  0  0  0
  1  7  1  0  0  0  0
  2  4  2  0  0  0  0
  3  5  1  0  0  0  0
  4  6  1  0  0  0  0
  5  6  2  0  0  0  0
  7  8  1  0  0  0  0
  7 10  1  1  0  0  0
  8  9  1  0  0  0  0
  8 11  2  0  0  0  0
M  END
> <ID>
11754

> <Formula>
C8H8O3

> <FW>
152.1473

> <DSSTox_CID>
26523

> <DSSTox_RID>
81688

> <DSSTox_GSID>
46523

> <DSSTox_FileID_Sort>
6369

> <TS_ChemName>
D-(-)-Mandelic acid

> <TS_ChemName_Synonyms>


> <TS_CASRN>
611-71-2

> <CASRN_ChemName_Relationship>
primary

> <TS_Description>
single chemical compound

> <ChemNote>
stereochem

> <STRUCTURE_Shown>
tested chemical

> <STRUCTURE_Formula>
C8H8O3

> <STRUCTURE_MW>
152.1473

> <STRUCTURE_ChemType>
defined organic

> <STRUCTURE_DefinedOrganicForm>
parent

> <STRUCTURE_IUPAC>
(2R)-hydroxy(phenyl)acetic acid

> <STRUCTURE_SMILES>
O[C@@H](C(=O)O)c1ccccc1

> <STRUCTURE_SMILES_Desalt>
O[C@@H](C(=O)O)c1ccccc1

> <Substance_modify_yyyymmdd>
20120222

$$$$
