611-20-1
ChemmineR-0915142007XD

  9  9  0  0  0  0  0  0  0  0  1 V2000
    3.4637   -1.3322    0.0000 C   0  0  0  0  0  0  0  0  0  0  0  0
    3.4637    0.0000    0.0000 N   0  0  0  0  0  0  0  0  0  0  0  0
    2.3105   -1.9884    0.0000 C   0  0  0  0  0  0  0  0  0  0  0  0
    1.1533   -1.3322    0.0000 C   0  0  0  0  0  0  0  0  0  0  0  0
    2.3105   -3.3206    0.0000 C   0  0  0  0  0  0  0  0  0  0  0  0
    0.0000   -1.9884    0.0000 C   0  0  0  0  0  0  0  0  0  0  0  0
    1.1533   -3.9767    0.0000 C   0  0  0  0  0  0  0  0  0  0  0  0
    0.0000   -3.3206    0.0000 C   0  0  0  0  0  0  0  0  0  0  0  0
    1.1533    0.0000    0.0000 O   0  0  0  0  0  0  0  0  0  0  0  0
  1  2  3  0  0  0  0
  1  3  1  0  0  0  0
  3  4  2  0  0  0  0
  3  5  1  0  0  0  0
  4  6  1  0  0  0  0
  4  9  1  0  0  0  0
  5  7  2  0  0  0  0
  6  8  2  0  0  0  0
  7  8  1  0  0  0  0
M  END
> <ID>
8617

> <Formula>
C7H5NO

> <FW>
119.1207

> <DSSTox_CID>
21661

> <DSSTox_RID>
79807

> <DSSTox_GSID>
41661

> <DSSTox_FileID_Sort>
4489

> <TS_ChemName>
Benzonitrile, 2-hydroxy-

> <TS_ChemName_Synonyms>


> <TS_CASRN>
611-20-1

> <CASRN_ChemName_Relationship>
primary

> <TS_Description>
single chemical compound

> <ChemNote>


> <STRUCTURE_Shown>
tested chemical

> <STRUCTURE_Formula>
C7H5NO

> <STRUCTURE_MW>
119.1207

> <STRUCTURE_ChemType>
defined organic

> <STRUCTURE_DefinedOrganicForm>
parent

> <STRUCTURE_IUPAC>
2-hydroxybenzonitrile

> <STRUCTURE_SMILES>
N#Cc1ccccc1O

> <STRUCTURE_SMILES_Desalt>
N#Cc1ccccc1O

> <Substance_modify_yyyymmdd>
20080825

$$$$
