611-70-1
ChemmineR-0915142007XD

 11 11  0  0  0  0  0  0  0  0  1 V2000
    2.3040   -1.3305    0.0000 C   0  0  0  0  0  0  0  0  0  0  0  0
    2.3040    0.0000    0.0000 O   0  0  0  0  0  0  0  0  0  0  0  0
    1.1520   -2.0045    0.0000 C   0  0  0  0  0  0  0  0  0  0  0  0
    1.1520   -3.3292    0.0000 C   0  0  0  0  0  0  0  0  0  0  0  0
    0.0000   -1.3305    0.0000 C   0  0  0  0  0  0  0  0  0  0  0  0
    5.7599   -2.0045    0.0000 C   0  0  0  0  0  0  0  0  0  0  0  0
    5.7599   -3.3292    0.0000 C   0  0  0  0  0  0  0  0  0  0  0  0
    4.6079   -3.9859    0.0000 C   0  0  0  0  0  0  0  0  0  0  0  0
    3.4560   -3.3292    0.0000 C   0  0  0  0  0  0  0  0  0  0  0  0
    3.4560   -2.0045    0.0000 C   0  0  0  0  0  0  0  0  0  0  0  0
    4.6079   -1.3305    0.0000 C   0  0  0  0  0  0  0  0  0  0  0  0
  1  2  2  0  0  0  0
  1  3  1  0  0  0  0
  1 10  1  0  0  0  0
  3  4  1  0  0  0  0
  3  5  1  0  0  0  0
  6 11  2  0  0  0  0
  6  7  1  0  0  0  0
  7  8  2  0  0  0  0
  8  9  1  0  0  0  0
  9 10  2  0  0  0  0
 10 11  1  0  0  0  0
M  END
> <ID>
13264

> <Formula>
C10H12O

> <FW>
148.2017

> <DSSTox_CID>
28177

> <DSSTox_RID>
82737

> <DSSTox_GSID>
48202

> <DSSTox_FileID_Sort>
7414

> <TS_ChemName>
Isopropyl phenyl ketone

> <TS_ChemName_Synonyms>


> <TS_CASRN>
611-70-1

> <CASRN_ChemName_Relationship>
primary

> <TS_Description>
single chemical compound

> <ChemNote>


> <STRUCTURE_Shown>
tested chemical

> <STRUCTURE_Formula>
C10H12O

> <STRUCTURE_MW>
148.2017

> <STRUCTURE_ChemType>
defined organic

> <STRUCTURE_DefinedOrganicForm>
parent

> <STRUCTURE_IUPAC>
2-methyl-1-phenylpropan-1-one

> <STRUCTURE_SMILES>
O=C(C(C)C)c1ccccc1

> <STRUCTURE_SMILES_Desalt>
O=C(C(C)C)c1ccccc1

> <Substance_modify_yyyymmdd>
20110901

$$$$
