611-19-8
ChemmineR-0915142007XD

  9  9  0  0  0  0  0  0  0  0  1 V2000
    3.4608   -1.3336    0.0000 C    0  0  0  0  0  0  0  0  0  0  0  0
    4.6144   -1.9888    0.0000 C    0  0  0  0  0  0  0  0  0  0  0  0
    4.6144   -3.3177    0.0000 C    0  0  0  0  0  0  0  0  0  0  0  0
    3.4608   -3.9914    0.0000 C    0  0  0  0  0  0  0  0  0  0  0  0
    2.3072   -3.3177    0.0000 C    0  0  0  0  0  0  0  0  0  0  0  0
    2.3072   -1.9888    0.0000 C    0  0  0  0  0  0  0  0  0  0  0  0
    3.4608    0.0000    0.0000 Cl   0  0  0  0  0  0  0  0  0  0  0  0
    1.1536   -1.3336    0.0000 C    0  0  0  0  0  0  0  0  0  0  0  0
    0.0000   -1.9888    0.0000 Cl   0  0  0  0  0  0  0  0  0  0  0  0
  1  2  2  0  0  0  0
  1  6  1  0  0  0  0
  1  7  1  0  0  0  0
  2  3  1  0  0  0  0
  3  4  2  0  0  0  0
  4  5  1  0  0  0  0
  5  6  2  0  0  0  0
  6  8  1  0  0  0  0
  8  9  1  0  0  0  0
M  END
> <ID>
5018

> <Formula>
C7H6Cl2

> <FW>
161.0285

> <DSSTox_CID>
7241

> <DSSTox_RID>
78365

> <DSSTox_GSID>
27241

> <DSSTox_FileID_Sort>
3048

> <TS_ChemName>
2-Chlorobenzyl chloride

> <TS_ChemName_Synonyms>
1-Chloro-2-(chloromethyl)benzene; Benzene, 1-chloro-2-(chloromethyl)-

> <TS_CASRN>
611-19-8

> <CASRN_ChemName_Relationship>
primary

> <TS_Description>
single chemical compound

> <ChemNote>


> <STRUCTURE_Shown>
tested chemical

> <STRUCTURE_Formula>
C7H6Cl2

> <STRUCTURE_MW>
161.0285

> <STRUCTURE_ChemType>
defined organic

> <STRUCTURE_DefinedOrganicForm>
parent

> <STRUCTURE_IUPAC>
1-chloro-2-(chloromethyl)benzene

> <STRUCTURE_SMILES>
ClCc1ccccc1Cl

> <STRUCTURE_SMILES_Desalt>
ClCc1ccccc1Cl

> <Substance_modify_yyyymmdd>
20080429

$$$$
