611-75-6
ChemmineR-0915142007XD

 19 19  0  0  0  0  0  0  0  0  1 V2000
    2.2875   -4.6119    0.0000 C    0  0  0  0  0  0  0  0  0  0  0  0
    2.2783   -5.9402    0.0000 Br   0  0  0  0  0  0  0  0  0  0  0  0
    1.1345   -3.9386    0.0000 C    0  0  0  0  0  0  0  0  0  0  0  0
    1.1530   -2.6104    0.0000 C    0  0  0  0  0  0  0  0  0  0  0  0
    0.0000   -1.9370    0.0000 Br   0  0  0  0  0  0  0  0  0  0  0  0
    2.3060   -1.9555    0.0000 C    0  0  0  0  0  0  0  0  0  0  0  0
    2.3060   -0.6272    0.0000 N    0  0  0  0  0  0  0  0  0  0  0  0
    3.4405   -2.6288    0.0000 C    0  0  0  0  0  0  0  0  0  0  0  0
    4.6119   -1.9647    0.0000 C    0  0  0  0  0  0  0  0  0  0  0  0
    5.7465   -2.6380    0.0000 N    0  0  0  0  0  0  0  0  0  0  0  0
    5.7465   -3.9663    0.0000 C    0  0  0  0  0  0  0  0  0  0  0  0
    6.8995   -1.9831    0.0000 C    0  0  0  0  0  0  0  0  0  0  0  0
    6.8995   -0.6549    0.0000 C    0  0  0  0  0  0  0  0  0  0  0  0
    8.0709    0.0000    0.0000 C    0  0  0  0  0  0  0  0  0  0  0  0
    9.2239   -0.6733    0.0000 C    0  0  0  0  0  0  0  0  0  0  0  0
    9.2054   -2.0016    0.0000 C    0  0  0  0  0  0  0  0  0  0  0  0
    8.0524   -2.6565    0.0000 C    0  0  0  0  0  0  0  0  0  0  0  0
    3.4405   -3.9570    0.0000 C    0  0  0  0  0  0  0  0  0  0  0  0
    8.4398   -3.9570    0.0000 Cl   0  0  0  0  0  0  0  0  0  0  0  0
  1  2  1  0  0  0  0
  1  3  2  0  0  0  0
  1 18  1  0  0  0  0
  3  4  1  0  0  0  0
  4  5  1  0  0  0  0
  4  6  2  0  0  0  0
  6  7  1  0  0  0  0
  6  8  1  0  0  0  0
  8  9  1  0  0  0  0
  8 18  2  0  0  0  0
  9 10  1  0  0  0  0
 10 11  1  0  0  0  0
 10 12  1  0  0  0  0
 12 13  1  0  0  0  0
 12 17  1  0  0  0  0
 13 14  1  0  0  0  0
 14 15  1  0  0  0  0
 15 16  1  0  0  0  0
 16 17  1  0  0  0  0
M  END
> <ID>
11268

> <Formula>
C14H21Br2ClN2

> <FW>
412.5909 (376.1300+36.4609)

> <DSSTox_CID>
25886

> <DSSTox_RID>
81200

> <DSSTox_GSID>
45886

> <DSSTox_FileID_Sort>
5881

> <TS_ChemName>
Bromhexine hydrochloride

> <TS_ChemName_Synonyms>


> <TS_CASRN>
611-75-6

> <CASRN_ChemName_Relationship>
primary

> <TS_Description>
single chemical compound

> <ChemNote>
parent [3572-43-8]

> <STRUCTURE_Shown>
tested chemical

> <STRUCTURE_Formula>
C14H21Br2ClN2

> <STRUCTURE_MW>
412.5909

> <STRUCTURE_ChemType>
defined organic

> <STRUCTURE_DefinedOrganicForm>
complex

> <STRUCTURE_IUPAC>
2,4-dibromo-6-{[cyclohexyl(methyl)amino]methyl}aniline hydrochloride (1:1)

> <STRUCTURE_SMILES>
Cl.CN(Cc1cc(Br)cc(Br)c1N)C2CCCCC2

> <STRUCTURE_SMILES_Desalt>
CN(Cc1cc(Br)cc(Br)c1N)C2CCCCC2

> <Substance_modify_yyyymmdd>
20110922

$$$$
