6114-21-2
ChemmineR-0915142007XD

 22 21  0  0  0  0  0  0  0  0  1 V2000
   11.5399   -1.2772    0.0000 C   0  0  0  0  0  0  0  0  0  0  0  0
   11.5399    0.0000    0.0000 O   0  0  0  0  0  0  0  0  0  0  0  0
    1.1720   -1.8181    0.0000 C   0  0  0  0  0  0  0  0  0  0  0  0
    0.0000   -3.7865    0.0000 C   0  0  0  0  0  0  0  0  0  0  0  0
    0.0000   -5.1088    0.0000 C   0  0  0  0  0  0  0  0  0  0  0  0
    2.3290   -1.1420    0.0000 C   0  0  0  0  0  0  0  0  0  0  0  0
   12.7119   -1.9984    0.0000 O   0  0  0  0  0  0  0  0  0  0  0  0
    1.1720   -3.1404    0.0000 C   0  0  0  0  0  0  0  0  0  0  0  0
   10.3829   -1.9083    0.0000 C   0  0  0  0  0  0  0  0  0  0  0  0
    1.1720   -5.7850    0.0000 C   0  0  0  0  0  0  0  0  0  0  0  0
    3.4559   -1.8181    0.0000 C   0  0  0  0  0  0  0  0  0  0  0  0
    9.3010   -1.2021    0.0000 C   0  0  0  0  0  0  0  0  0  0  0  0
    4.5979   -1.1420    0.0000 C   0  0  0  0  0  0  0  0  0  0  0  0
    2.3290   -5.1088    0.0000 C   0  0  0  0  0  0  0  0  0  0  0  0
    4.6129   -5.1088    0.0000 C   0  0  0  0  0  0  0  0  0  0  0  0
    3.4409   -5.7699    0.0000 C   0  0  0  0  0  0  0  0  0  0  0  0
    8.0689   -1.8482    0.0000 C   0  0  0  0  0  0  0  0  0  0  0  0
    5.7850   -1.8332    0.0000 C   0  0  0  0  0  0  0  0  0  0  0  0
    6.8969   -1.1570    0.0000 C   0  0  0  0  0  0  0  0  0  0  0  0
    5.7399   -5.7098    0.0000 C   0  0  0  0  0  0  0  0  0  0  0  0
   13.8839   -1.3674    0.0000 C   0  0  0  0  0  0  0  0  0  0  0  0
   15.0259   -2.0585    0.0000 C   0  0  0  0  0  0  0  0  0  0  0  0
  1  2  2  0  0  0  0
  1  7  1  0  0  0  0
  1  9  1  0  0  0  0
  3  6  2  0  0  0  0
  3  8  1  0  0  0  0
  4  8  1  0  0  0  0
  4  5  2  0  0  0  0
  5 10  1  0  0  0  0
  6 11  1  0  0  0  0
  7 21  1  0  0  0  0
  9 12  1  0  0  0  0
 10 14  1  0  0  0  0
 11 13  1  0  0  0  0
 12 17  1  0  0  0  0
 13 18  1  0  0  0  0
 14 16  1  0  0  0  0
 15 16  1  0  0  0  0
 15 20  1  0  0  0  0
 17 19  1  0  0  0  0
 18 19  1  0  0  0  0
 21 22  1  0  0  0  0
M  END
> <ID>
11996

> <Formula>
C20H36O2

> <FW>
308.4986

> <DSSTox_CID>
26820

> <DSSTox_RID>
81932

> <DSSTox_GSID>
46820

> <DSSTox_FileID_Sort>
6613

> <TS_ChemName>
Ethyl linoleate

> <TS_ChemName_Synonyms>


> <TS_CASRN>
6114-21-2

> <CASRN_ChemName_Relationship>
primary

> <TS_Description>
single chemical compound

> <ChemNote>
stereochem

> <STRUCTURE_Shown>
tested chemical

> <STRUCTURE_Formula>
C20H36O2

> <STRUCTURE_MW>
308.4986

> <STRUCTURE_ChemType>
defined organic

> <STRUCTURE_DefinedOrganicForm>
parent

> <STRUCTURE_IUPAC>
ethyl (9Z,12Z)-octadeca-9,12-dienoate

> <STRUCTURE_SMILES>
O=C(CCCCCCC/C=C\C/C=C\CCCCC)OCC

> <STRUCTURE_SMILES_Desalt>
O=C(CCCCCCC/C=C\C/C=C\CCCCC)OCC

> <Substance_modify_yyyymmdd>
20110801

$$$$
