61177-44-4
ChemmineR-0915142007XD

 17 17  0  0  1  0  0  0  0  0  2 V2000
    2.2778   -2.6306    0.0000 N    0  0  0  0  0  0  0  0  0  0  0  0
    0.9433   -2.6306    0.0000 C    0  0  0  0  0  0  0  0  0  0  0  0
    2.2778   -1.2808    0.0000 C    0  0  0  0  0  0  0  0  0  0  0  0
    3.5432   -3.0371    0.0000 C    0  0  0  0  0  0  0  0  0  0  0  0
    4.3178   -1.9710    0.0000 C    0  0  0  0  0  0  0  0  0  0  0  0
    3.5432   -0.8820    0.0000 O    0  0  0  0  0  0  0  0  0  0  0  0
    0.9433   -1.2808    0.0000 C    0  0  0  0  0  0  0  0  0  0  0  0
    4.6706   -3.7580    0.0000 C    0  0  0  0  0  0  0  0  0  0  0  0
    5.6446   -1.9710    0.0000 C    0  0  0  0  0  0  0  0  0  0  0  0
    0.0000   -3.5662    0.0000 O    0  0  0  0  0  0  0  0  0  0  0  0
    5.8440   -3.1444    0.0000 O    0  0  0  0  0  0  0  0  0  0  0  0
    4.6706   -5.0388    0.0000 O    0  5  0  0  0  0  0  0  0  0  0  0
    6.3195   -0.8206    0.0000 C    0  0  0  0  0  0  0  0  0  0  0  0
    7.6693   -0.8360    0.0000 O    0  0  0  0  0  0  0  0  0  0  0  0
    2.5692    0.0000    0.0000 H    0  0  0  0  0  0  0  0  0  0  0  0
    2.6459   -4.0264    0.0000 H    0  0  0  0  0  0  0  0  0  0  0  0
    5.9974   -4.5249    0.0000 Li   0  3  0  0  0  0  0  0  0  0  0  0
  1  2  1  0  0  0  0
  1  3  1  0  0  0  0
  1  4  1  0  0  0  0
  2 10  2  0  0  0  0
  2  7  1  0  0  0  0
  3  6  1  0  0  0  0
  3  7  1  0  0  0  0
  3 15  1  6  0  0  0
  4  5  1  0  0  0  0
  4  8  1  6  0  0  0
  4 16  1  1  0  0  0
  5  9  2  0  0  0  0
  5  6  1  0  0  0  0
  8 11  2  0  0  0  0
  8 12  1  0  0  0  0
  9 13  1  0  0  0  0
 13 14  1  0  0  0  0
M  END
> <ID>
11356

> <Formula>
C8H8LiNO5

> <FW>
205.0938 (198.1534+6.9405)

> <DSSTox_CID>
26012

> <DSSTox_RID>
81288

> <DSSTox_GSID>
46012

> <DSSTox_FileID_Sort>
5969

> <TS_ChemName>
Clavulanate lithium

> <TS_ChemName_Synonyms>


> <TS_CASRN>
61177-44-4

> <CASRN_ChemName_Relationship>
primary

> <TS_Description>
single chemical compound

> <ChemNote>
stereochem; parent [58001-44-8]

> <STRUCTURE_Shown>
tested chemical

> <STRUCTURE_Formula>
C8H8LiNO5

> <STRUCTURE_MW>
205.0938

> <STRUCTURE_ChemType>
defined organic

> <STRUCTURE_DefinedOrganicForm>
salt

> <STRUCTURE_IUPAC>
lithium (2R,3Z,5R)-3-(2-hydroxyethylidene)-7-oxo-4-oxa-1-azabicyclo[3.2.0]heptane-2-carboxylate

> <STRUCTURE_SMILES>
[Li+].O=C([O-])[C@H]1C(=C\CO)\O[C@@H]2CC(=O)N12

> <STRUCTURE_SMILES_Desalt>
OC(=O)[C@H]1C(=C\CO)\O[C@@H]2CC(=O)N12

> <Substance_modify_yyyymmdd>
20110824

$$$$
