6119-47-7
ChemmineR-0915142007XD

 28 28  0  0  1  0  0  0  0  0  1 V2000
    4.5402   -1.3899    0.0000 C    0  0  0  0  0  0  0  0  0  0  0  0
    5.7447   -2.0848    0.0000 C    0  0  0  0  0  0  0  0  0  0  0  0
    4.5402    0.0000    0.0000 C    0  0  0  0  0  0  0  0  0  0  0  0
    3.3588   -2.0848    0.0000 C    0  0  0  0  0  0  0  0  0  0  0  0
    4.9919   -2.1890    0.0000 N    0  0  0  0  0  0  0  0  0  0  0  0
    6.1733   -2.8608    0.0000 C    0  0  0  0  0  0  0  0  0  0  0  0
    4.9919   -0.7876    0.0000 C    0  0  0  0  0  0  0  0  0  0  0  0
    3.7989   -2.8608    0.0000 C    0  0  0  0  0  0  0  0  0  0  0  0
    6.7176   -1.1235    0.0000 C    0  0  0  0  0  0  0  0  0  0  0  0
    8.0727   -1.4825    0.0000 C    0  0  0  0  0  0  0  0  0  0  0  0
    3.4283   -4.1927    0.0000 C    0  0  0  0  0  0  0  0  0  0  0  0
    4.8761   -3.7179    0.0000 H    0  0  0  0  0  0  0  0  0  0  0  0
    2.0848   -4.5518    0.0000 O    0  0  0  0  0  0  0  0  0  0  0  0
    4.3780   -5.1772    0.0000 C    0  0  0  0  0  0  0  0  0  0  0  0
    5.7216   -4.8297    0.0000 C    0  0  0  0  0  0  0  0  0  0  0  0
    4.0074   -6.5092    0.0000 C    0  0  0  0  0  0  0  0  0  0  0  0
    6.6945   -5.8258    0.0000 C    0  0  0  0  0  0  0  0  0  0  0  0
    4.9803   -7.4936    0.0000 C    0  0  0  0  0  0  0  0  0  0  0  0
    6.3238   -7.1578    0.0000 N    0  0  0  0  0  0  0  0  0  0  0  0
    2.6755   -6.8566    0.0000 C    0  0  0  0  0  0  0  0  0  0  0  0
    2.2933   -8.1770    0.0000 C    0  0  0  0  0  0  0  0  0  0  0  0
    4.6097   -8.8372    0.0000 C    0  0  0  0  0  0  0  0  0  0  0  0
    3.2777   -9.1730    0.0000 C    0  0  0  0  0  0  0  0  0  0  0  0
    0.9613   -8.5244    0.0000 O    0  0  0  0  0  0  0  0  0  0  0  0
    0.0000   -7.5400    0.0000 C    0  0  0  0  0  0  0  0  0  0  0  0
   10.2154   -5.3741    0.0000 Cl   0  0  0  0  0  0  0  0  0  0  0  0
    8.9182   -7.6210    0.0000 O    0  0  0  0  0  0  0  0  0  0  0  0
   11.5821   -7.7253    0.0000 O    0  0  0  0  0  0  0  0  0  0  0  0
  1  2  1  0  0  0  0
  3  1  1  6  0  0  0
  1  4  1  0  0  0  0
  2  6  1  0  0  0  0
  2  9  1  1  0  0  0
  3  7  1  0  0  0  0
  4  8  1  0  0  0  0
  5  6  1  0  0  0  0
  7  5  1  6  0  0  0
  5  8  1  0  0  0  0
  8 11  1  0  0  0  0
  8 12  1  1  0  0  0
  9 10  2  0  0  0  0
 11 13  1  1  0  0  0
 11 14  1  0  0  0  0
 14 15  2  0  0  0  0
 14 16  1  0  0  0  0
 15 17  1  0  0  0  0
 16 20  2  0  0  0  0
 16 18  1  0  0  0  0
 17 19  2  0  0  0  0
 18 19  1  0  0  0  0
 18 22  2  0  0  0  0
 20 21  1  0  0  0  0
 21 23  2  0  0  0  0
 21 24  1  0  0  0  0
 22 23  1  0  0  0  0
 24 25  1  0  0  0  0
M  END
> <ID>
12815

> <Formula>
C20H29ClN2O4

> <FW>
396.9083 (324.4168+36.4609+18.0153+18.0153)

> <DSSTox_CID>
27694

> <DSSTox_RID>
82504

> <DSSTox_GSID>
47694

> <DSSTox_FileID_Sort>
7185

> <TS_ChemName>
Quinine hydrochloride dihydrate

> <TS_ChemName_Synonyms>


> <TS_CASRN>
6119-47-7

> <CASRN_ChemName_Relationship>
primary

> <TS_Description>
single chemical compound

> <ChemNote>
stereochem; parent [130-95-0]

> <STRUCTURE_Shown>
tested chemical

> <STRUCTURE_Formula>
C20H29ClN2O4

> <STRUCTURE_MW>
396.9083

> <STRUCTURE_ChemType>
defined organic

> <STRUCTURE_DefinedOrganicForm>
complex

> <STRUCTURE_IUPAC>
(8alpha,9R)-6'-methoxycinchonan-9-ol hydrochloride dihydrate

> <STRUCTURE_SMILES>
Cl.O.O.COc1cc2c(cc1)nccc2[C@@H](O)[C@@H]4CC3CCN4C[C@@H]3C=C

> <STRUCTURE_SMILES_Desalt>
COc1cc2c(cc1)nccc2[C@@H](O)[C@@H]4CC3CCN4C[C@@H]3C=C

> <Substance_modify_yyyymmdd>
20101215

$$$$
