612-23-7
ChemmineR-0915142007XD

 11 11  0  0  0  0  0  0  0  0  2 V2000
    1.9971   -1.1545    0.0000 C    0  0  0  0  0  0  0  0  0  0  0  0
    2.6581    0.0000    0.0000 Cl   0  0  0  0  0  0  0  0  0  0  0  0
    2.6581   -2.3043    0.0000 C    0  0  0  0  0  0  0  0  0  0  0  0
    3.9895   -2.3043    0.0000 C    0  0  0  0  0  0  0  0  0  0  0  0
    4.6552   -3.4588    0.0000 C    0  0  0  0  0  0  0  0  0  0  0  0
    3.9895   -4.6086    0.0000 C    0  0  0  0  0  0  0  0  0  0  0  0
    2.6581   -4.6086    0.0000 C    0  0  0  0  0  0  0  0  0  0  0  0
    1.9971   -3.4588    0.0000 C    0  0  0  0  0  0  0  0  0  0  0  0
    0.6657   -3.4588    0.0000 N    0  3  0  0  0  0  0  0  0  0  0  0
    0.0000   -4.6086    0.0000 O    0  0  0  0  0  0  0  0  0  0  0  0
    0.0000   -2.3043    0.0000 O    0  5  0  0  0  0  0  0  0  0  0  0
  1  2  1  0  0  0  0
  1  3  1  0  0  0  0
  3  4  2  0  0  0  0
  3  8  1  0  0  0  0
  4  5  1  0  0  0  0
  5  6  2  0  0  0  0
  6  7  1  0  0  0  0
  7  8  2  0  0  0  0
  8  9  1  0  0  0  0
  9 10  2  0  0  0  0
  9 11  1  0  0  0  0
M  END
> <ID>
4380

> <Formula>
C7H6ClNO2

> <FW>
171.581

> <DSSTox_CID>
5744

> <DSSTox_RID>
77905

> <DSSTox_GSID>
25744

> <DSSTox_FileID_Sort>
2588

> <TS_ChemName>
2-Nitrobenzyl chloride

> <TS_ChemName_Synonyms>
2-Nitrobenzyl chloride (o-Nitrobenzyl chloride)

> <TS_CASRN>
612-23-7

> <CASRN_ChemName_Relationship>
primary

> <TS_Description>
single chemical compound

> <ChemNote>


> <STRUCTURE_Shown>
tested chemical

> <STRUCTURE_Formula>
C7H6ClNO2

> <STRUCTURE_MW>
171.581

> <STRUCTURE_ChemType>
defined organic

> <STRUCTURE_DefinedOrganicForm>
parent

> <STRUCTURE_IUPAC>
1-(chloromethyl)-2-nitrobenzene

> <STRUCTURE_SMILES>
O=[N+]([O-])c1ccccc1CCl

> <STRUCTURE_SMILES_Desalt>
O=[N+]([O-])c1ccccc1CCl

> <Substance_modify_yyyymmdd>
20080429

$$$$
