612-82-8
ChemmineR-0915142007XD

 18 17  0  0  0  0  0  0  0  0  1 V2000
    3.9959   -2.3100    0.0000 C    0  0  0  0  0  0  0  0  0  0  0  0
    5.3185   -2.3100    0.0000 C    0  0  0  0  0  0  0  0  0  0  0  0
    5.9892   -1.1550    0.0000 C    0  0  0  0  0  0  0  0  0  0  0  0
    7.3211   -1.1550    0.0000 C    0  0  0  0  0  0  0  0  0  0  0  0
    7.9825   -2.3100    0.0000 C    0  0  0  0  0  0  0  0  0  0  0  0
    9.3144   -2.3100    0.0000 N    0  0  0  0  0  0  0  0  0  0  0  0
    7.3211   -3.4557    0.0000 C    0  0  0  0  0  0  0  0  0  0  0  0
    5.9892   -3.4557    0.0000 C    0  0  0  0  0  0  0  0  0  0  0  0
    7.9825    0.0000    0.0000 C    0  0  0  0  0  0  0  0  0  0  0  0
    3.3253   -3.4557    0.0000 C    0  0  0  0  0  0  0  0  0  0  0  0
    1.9933   -3.4557    0.0000 C    0  0  0  0  0  0  0  0  0  0  0  0
    1.3320   -2.3100    0.0000 C    0  0  0  0  0  0  0  0  0  0  0  0
    0.0000   -2.3100    0.0000 N    0  0  0  0  0  0  0  0  0  0  0  0
    1.9933   -1.1550    0.0000 C    0  0  0  0  0  0  0  0  0  0  0  0
    3.3253   -1.1550    0.0000 C    0  0  0  0  0  0  0  0  0  0  0  0
    1.3320   -4.6106    0.0000 C    0  0  0  0  0  0  0  0  0  0  0  0
    5.8588   -5.1043    0.0000 Cl   0  0  0  0  0  0  0  0  0  0  0  0
    3.8655   -5.1695    0.0000 Cl   0  0  0  0  0  0  0  0  0  0  0  0
  1  2  1  0  0  0  0
  1 10  2  0  0  0  0
  1 15  1  0  0  0  0
  2  3  2  0  0  0  0
  2  8  1  0  0  0  0
  3  4  1  0  0  0  0
  4  5  2  0  0  0  0
  4  9  1  0  0  0  0
  5  6  1  0  0  0  0
  5  7  1  0  0  0  0
  7  8  2  0  0  0  0
 10 11  1  0  0  0  0
 11 12  2  0  0  0  0
 11 16  1  0  0  0  0
 12 13  1  0  0  0  0
 12 14  1  0  0  0  0
 14 15  2  0  0  0  0
M  END
> <ID>
494

> <Formula>
C14H18Cl2N2

> <FW>
285.2121 (212.2902+36.4609+36.4609)

> <DSSTox_CID>
511

> <DSSTox_RID>
75633

> <DSSTox_GSID>
20511

> <DSSTox_FileID_Sort>
317

> <TS_ChemName>
3,3'-Dimethylbenzidine dihydrochloride

> <TS_ChemName_Synonyms>


> <TS_CASRN>
612-82-8

> <CASRN_ChemName_Relationship>
primary

> <TS_Description>
single chemical compound

> <ChemNote>
parent [119-93-7]

> <STRUCTURE_Shown>
tested chemical

> <STRUCTURE_Formula>
C14H18Cl2N2

> <STRUCTURE_MW>
285.2121

> <STRUCTURE_ChemType>
defined organic

> <STRUCTURE_DefinedOrganicForm>
complex

> <STRUCTURE_IUPAC>
3,3'-dimethylbiphenyl-4,4'-diamine dihydrochloride

> <STRUCTURE_SMILES>
Cl.Cl.Cc1cc(ccc1N)c2ccc(N)c(C)c2

> <STRUCTURE_SMILES_Desalt>
Cc1cc(ccc1N)c2ccc(N)c(C)c2

> <Substance_modify_yyyymmdd>
20080429

$$$$
