61270-78-8
ChemmineR-0915142007XD

 39 40  0  0  1  0  0  0  0  0  2 V2000
    8.3481   -4.2045    0.0000 N    0  0  0  0  0  0  0  0  0  0  0  0
    6.8044   -4.2045    0.0000 C    0  0  0  0  0  0  0  0  0  0  0  0
    6.8044   -2.7421    0.0000 C    0  0  0  0  0  0  0  0  0  0  0  0
    8.3481   -2.7421    0.0000 C    0  0  0  0  0  0  0  0  0  0  0  0
   15.5587   -4.3467    0.0000 N    0  0  0  0  0  0  0  0  0  0  0  0
   14.3400   -4.8342    0.0000 C    0  0  0  0  0  0  0  0  0  0  0  0
    9.5464   -4.9154    0.0000 C    0  0  0  0  0  0  0  0  0  0  0  0
   17.1226   -2.7421    0.0000 S    0  0  0  0  0  0  0  0  0  0  0  0
   14.3400   -6.1341    0.0000 N    0  0  0  0  0  0  0  0  0  0  0  0
   15.6602   -6.5403    0.0000 N    0  0  0  0  0  0  0  0  0  0  0  0
   15.8227   -3.1686    0.0000 C    0  0  0  0  0  0  0  0  0  0  0  0
   16.4320   -5.4029    0.0000 N    0  0  0  0  0  0  0  0  0  0  0  0
    5.6466   -2.7421    0.0000 N    0  0  0  0  0  0  0  0  0  0  0  0
    9.5464   -2.0718    0.0000 S    0  0  0  0  0  0  0  0  0  0  0  0
   10.7854   -4.2045    0.0000 C    0  0  0  0  0  0  0  0  0  0  0  0
    4.5701   -1.9702    0.0000 C    0  0  0  0  0  0  0  0  0  0  0  0
    9.5464   -6.2560    0.0000 C    0  0  0  0  0  0  0  0  0  0  0  0
   13.1416   -4.1639    0.0000 S    0  0  0  0  0  0  0  0  0  0  0  0
   10.7854   -2.7421    0.0000 C    0  0  0  0  0  0  0  0  0  0  0  0
    3.4530   -2.6202    0.0000 C    0  0  0  0  0  0  0  0  0  0  0  0
    5.9716   -5.1591    0.0000 O    0  0  0  0  0  0  0  0  0  0  0  0
   11.9838   -4.7935    0.0000 C    0  0  0  0  0  0  0  0  0  0  0  0
   17.4476   -3.9608    0.0000 O    0  0  0  0  0  0  0  0  0  0  0  0
   16.7570   -1.5640    0.0000 O    0  0  0  0  0  0  0  0  0  0  0  0
    4.5701   -0.5687    0.0000 O    0  0  0  0  0  0  0  0  0  0  0  0
   10.7042   -6.9262    0.0000 O    0  0  0  0  0  0  0  0  0  0  0  0
   18.1788   -2.5186    0.0000 O    0  5  0  0  0  0  0  0  0  0  0  0
    2.3155   -1.9905    0.0000 C    0  0  0  0  0  0  0  0  0  0  0  0
    8.4293   -6.9262    0.0000 O    0  5  0  0  0  0  0  0  0  0  0  0
    3.5342   -3.9201    0.0000 O    0  0  0  0  0  0  0  0  0  0  0  0
    2.3155   -0.6703    0.0000 C    0  0  0  0  0  0  0  0  0  0  0  0
    1.1984   -2.7014    0.0000 C    0  0  0  0  0  0  0  0  0  0  0  0
    0.0000   -2.0515    0.0000 C    0  0  0  0  0  0  0  0  0  0  0  0
    1.0765    0.0000    0.0000 C    0  0  0  0  0  0  0  0  0  0  0  0
    0.0000   -0.7109    0.0000 C    0  0  0  0  0  0  0  0  0  0  0  0
    6.8044   -1.6452    0.0000 H    0  0  0  0  0  0  0  0  0  0  0  0
    8.3481   -1.7062    0.0000 H    0  0  0  0  0  0  0  0  0  0  0  0
    9.6277   -7.7590    0.0000 Na   0  3  0  0  0  0  0  0  0  0  0  0
   20.3116   -2.5999    0.0000 Na   0  3  0  0  0  0  0  0  0  0  0  0
  1  2  1  0  0  0  0
  1  4  1  0  0  0  0
  1  7  1  0  0  0  0
  2 21  2  0  0  0  0
  2  3  1  0  0  0  0
  3  4  1  0  0  0  0
  3 13  1  1  0  0  0
  3 36  1  6  0  0  0
  4 14  1  0  0  0  0
  4 37  1  6  0  0  0
  5  6  1  0  0  0  0
  5 11  1  0  0  0  0
  5 12  1  0  0  0  0
  6 18  1  0  0  0  0
  6  9  2  0  0  0  0
  7 15  2  0  0  0  0
  7 17  1  0  0  0  0
  8 11  1  0  0  0  0
  8 23  2  0  0  0  0
  8 24  2  0  0  0  0
  8 27  1  0  0  0  0
  9 10  1  0  0  0  0
 10 12  2  0  0  0  0
 13 16  1  0  0  0  0
 14 19  1  0  0  0  0
 15 19  1  0  0  0  0
 15 22  1  0  0  0  0
 16 20  1  0  0  0  0
 16 25  2  0  0  0  0
 17 26  2  0  0  0  0
 17 29  1  0  0  0  0
 18 22  1  0  0  0  0
 20 28  1  0  0  0  0
 20 30  1  6  0  0  0
 28 31  2  0  0  0  0
 28 32  1  0  0  0  0
 31 34  1  0  0  0  0
 32 33  2  0  0  0  0
 33 35  1  0  0  0  0
 34 35  2  0  0  0  0
M  END
> <ID>
11853

> <Formula>
C18H16N6Na2O8S3

> <FW>
586.5296 (540.5511+22.9892+22.9892)

> <DSSTox_CID>
26642

> <DSSTox_RID>
81788

> <DSSTox_GSID>
46642

> <DSSTox_FileID_Sort>
6469

> <TS_ChemName>
Cefonicid sodium

> <TS_ChemName_Synonyms>


> <TS_CASRN>
61270-78-8

> <CASRN_ChemName_Relationship>
primary

> <TS_Description>
single chemical compound

> <ChemNote>
stereochem

> <STRUCTURE_Shown>
tested chemical

> <STRUCTURE_Formula>
C18H16N6Na2O8S3

> <STRUCTURE_MW>
586.5296

> <STRUCTURE_ChemType>
defined organic

> <STRUCTURE_DefinedOrganicForm>
salt

> <STRUCTURE_IUPAC>
disodium (6R,7R)-7-{[(2R)-2-hydroxy-2-phenylacetyl]amino}-8-oxo-3-({[1-(sulfonatomethyl)-1H-tetrazol-5-yl]sulfanyl}methyl)-5-thia-1-azabicyclo[4.2.0]oct-2-ene-2-carboxylate

> <STRUCTURE_SMILES>
[Na+].[Na+].[O-]S(=O)(=O)Cn4nnnc4SCC=3CS[C@H]2N(C(=O)[C@H]2NC(=O)[C@H](O)c1ccccc1)C=3C([O-])=O

> <STRUCTURE_SMILES_Desalt>
O=S(=O)(O)Cn4nnnc4SCC=3CS[C@H]2N(C(=O)[C@H]2NC(=O)[C@H](O)c1ccccc1)C=3C(=O)O

> <Substance_modify_yyyymmdd>
20110808

$$$$
