61295-41-8
ChemmineR-0915142007XD

 15 15  0  0  0  0  0  0  0  0  1 V2000
    0.0000   -0.7816    0.0000 C   0  0  0  0  0  0  0  0  0  0  0  0
    1.0717    0.0000    0.0000 O   0  0  0  0  0  0  0  0  0  0  0  0
    0.4029   -2.0548    0.0000 C   0  0  0  0  0  0  0  0  0  0  0  0
    2.1514   -0.7816    0.0000 C   0  0  0  0  0  0  0  0  0  0  0  0
    1.7324   -2.0548    0.0000 C   0  0  0  0  0  0  0  0  0  0  0  0
    3.4165   -0.3626    0.0000 C   0  0  0  0  0  0  0  0  0  0  0  0
    2.5221   -3.1264    0.0000 S   0  0  0  0  0  0  0  0  0  0  0  0
    3.8517   -2.9814    0.0000 C   0  0  0  0  0  0  0  0  0  0  0  0
    4.6252   -4.0773    0.0000 C   0  0  0  0  0  0  0  0  0  0  0  0
    4.3996   -1.7808    0.0000 C   0  0  0  0  0  0  0  0  0  0  0  0
    5.7130   -1.6357    0.0000 C   0  0  0  0  0  0  0  0  0  0  0  0
    4.0934   -5.2779    0.0000 O   0  0  0  0  0  0  0  0  0  0  0  0
    5.9548   -3.9322    0.0000 C   0  0  0  0  0  0  0  0  0  0  0  0
    6.7444   -5.0039    0.0000 C   0  0  0  0  0  0  0  0  0  0  0  0
    8.0579   -4.8750    0.0000 C   0  0  0  0  0  0  0  0  0  0  0  0
  1  2  1  0  0  0  0
  1  3  2  0  0  0  0
  2  4  1  0  0  0  0
  3  5  1  0  0  0  0
  4  5  2  0  0  0  0
  4  6  1  0  0  0  0
  5  7  1  0  0  0  0
  7  8  1  0  0  0  0
  8  9  1  0  0  0  0
  8 10  1  0  0  0  0
  9 12  2  0  0  0  0
  9 13  1  0  0  0  0
 10 11  1  0  0  0  0
 13 14  1  0  0  0  0
 14 15  1  0  0  0  0
M  END
> <ID>
12305

> <Formula>
C12H18O2S

> <FW>
226.3351

> <DSSTox_CID>
27157

> <DSSTox_RID>
82158

> <DSSTox_GSID>
47157

> <DSSTox_FileID_Sort>
6839

> <TS_ChemName>
3-(2-Methyl-3-furylthio)-4-heptanone

> <TS_ChemName_Synonyms>


> <TS_CASRN>
61295-41-8

> <CASRN_ChemName_Relationship>
primary

> <TS_Description>
single chemical compound

> <ChemNote>
tautomers

> <STRUCTURE_Shown>
tested chemical

> <STRUCTURE_Formula>
C12H18O2S

> <STRUCTURE_MW>
226.3351

> <STRUCTURE_ChemType>
defined organic

> <STRUCTURE_DefinedOrganicForm>
parent

> <STRUCTURE_IUPAC>
3-[(2-methylfuran-3-yl)sulfanyl]heptan-4-one

> <STRUCTURE_SMILES>
CCC(Sc1ccoc1C)C(=O)CCC

> <STRUCTURE_SMILES_Desalt>
CCC(Sc1ccoc1C)C(=O)CCC

> <Substance_modify_yyyymmdd>
20100502

$$$$
