613-50-3
ChemmineR-0915142007XD

 13 14  0  0  0  0  0  0  0  0  2 V2000
    0.0000   -3.4578    0.0000 O   0  0  0  0  0  0  0  0  0  0  0  0
    0.6650   -2.3074    0.0000 N   0  3  0  0  0  0  0  0  0  0  0  0
    1.9949   -2.3074    0.0000 C   0  0  0  0  0  0  0  0  0  0  0  0
    2.6599   -1.1570    0.0000 C   0  0  0  0  0  0  0  0  0  0  0  0
    3.9898   -1.1570    0.0000 C   0  0  0  0  0  0  0  0  0  0  0  0
    4.6548    0.0000    0.0000 C   0  0  0  0  0  0  0  0  0  0  0  0
    5.9847    0.0000    0.0000 C   0  0  0  0  0  0  0  0  0  0  0  0
    6.6497   -1.1570    0.0000 C   0  0  0  0  0  0  0  0  0  0  0  0
    5.9847   -2.3074    0.0000 N   0  0  0  0  0  0  0  0  0  0  0  0
    4.6548   -2.3074    0.0000 C   0  0  0  0  0  0  0  0  0  0  0  0
    3.9898   -3.4578    0.0000 C   0  0  0  0  0  0  0  0  0  0  0  0
    2.6599   -3.4578    0.0000 C   0  0  0  0  0  0  0  0  0  0  0  0
    0.0000   -1.1570    0.0000 O   0  5  0  0  0  0  0  0  0  0  0  0
  1  2  2  0  0  0  0
  2  3  1  0  0  0  0
  2 13  1  0  0  0  0
  3  4  2  0  0  0  0
  3 12  1  0  0  0  0
  4  5  1  0  0  0  0
  5  6  2  0  0  0  0
  5 10  1  0  0  0  0
  6  7  1  0  0  0  0
  7  8  2  0  0  0  0
  8  9  1  0  0  0  0
  9 10  2  0  0  0  0
 10 11  1  0  0  0  0
 11 12  2  0  0  0  0
M  END
> <ID>
948

> <Formula>
C9H6N2O2

> <FW>
174.1561

> <DSSTox_CID>
984

> <DSSTox_RID>
75906

> <DSSTox_GSID>
20984

> <DSSTox_FileID_Sort>
590

> <TS_ChemName>
6-Nitroquinoline

> <TS_ChemName_Synonyms>


> <TS_CASRN>
613-50-3

> <CASRN_ChemName_Relationship>
primary

> <TS_Description>
single chemical compound

> <ChemNote>


> <STRUCTURE_Shown>
tested chemical

> <STRUCTURE_Formula>
C9H6N2O2

> <STRUCTURE_MW>
174.1561

> <STRUCTURE_ChemType>
defined organic

> <STRUCTURE_DefinedOrganicForm>
parent

> <STRUCTURE_IUPAC>
6-nitroquinoline

> <STRUCTURE_SMILES>
[O-][N+](=O)c1ccc2ncccc2c1

> <STRUCTURE_SMILES_Desalt>
[O-][N+](=O)c1ccc2ncccc2c1

> <Substance_modify_yyyymmdd>
20080429

$$$$
