613-13-8
ChemmineR-0915142007XD

 15 17  0  0  0  0  0  0  0  0  1 V2000
    0.0000   -2.6607    0.0000 N   0  0  0  0  0  0  0  0  0  0  0  0
    1.1530   -1.9996    0.0000 C   0  0  0  0  0  0  0  0  0  0  0  0
    1.1530   -0.6692    0.0000 C   0  0  0  0  0  0  0  0  0  0  0  0
    2.3060    0.0000    0.0000 C   0  0  0  0  0  0  0  0  0  0  0  0
    3.4590   -0.6692    0.0000 C   0  0  0  0  0  0  0  0  0  0  0  0
    4.6039    0.0000    0.0000 C   0  0  0  0  0  0  0  0  0  0  0  0
    5.7569   -0.6692    0.0000 C   0  0  0  0  0  0  0  0  0  0  0  0
    6.9099    0.0000    0.0000 C   0  0  0  0  0  0  0  0  0  0  0  0
    8.0629   -0.6692    0.0000 C   0  0  0  0  0  0  0  0  0  0  0  0
    8.0629   -1.9996    0.0000 C   0  0  0  0  0  0  0  0  0  0  0  0
    6.9099   -2.6607    0.0000 C   0  0  0  0  0  0  0  0  0  0  0  0
    5.7569   -1.9996    0.0000 C   0  0  0  0  0  0  0  0  0  0  0  0
    4.6039   -2.6607    0.0000 C   0  0  0  0  0  0  0  0  0  0  0  0
    3.4590   -1.9996    0.0000 C   0  0  0  0  0  0  0  0  0  0  0  0
    2.3060   -2.6607    0.0000 C   0  0  0  0  0  0  0  0  0  0  0  0
  1  2  1  0  0  0  0
  2  3  2  0  0  0  0
  2 15  1  0  0  0  0
  3  4  1  0  0  0  0
  4  5  2  0  0  0  0
  5  6  1  0  0  0  0
  5 14  1  0  0  0  0
  6  7  2  0  0  0  0
  7  8  1  0  0  0  0
  7 12  1  0  0  0  0
  8  9  2  0  0  0  0
  9 10  1  0  0  0  0
 10 11  2  0  0  0  0
 11 12  1  0  0  0  0
 12 13  2  0  0  0  0
 13 14  1  0  0  0  0
 14 15  2  0  0  0  0
M  END
> <ID>
3686

> <Formula>
C14H11N

> <FW>
193.2438

> <DSSTox_CID>
4458

> <DSSTox_RID>
77406

> <DSSTox_GSID>
24458

> <DSSTox_FileID_Sort>
2089

> <TS_ChemName>
2-Aminoanthracene

> <TS_ChemName_Synonyms>


> <TS_CASRN>
613-13-8

> <CASRN_ChemName_Relationship>
primary

> <TS_Description>
single chemical compound

> <ChemNote>


> <STRUCTURE_Shown>
tested chemical

> <STRUCTURE_Formula>
C14H11N

> <STRUCTURE_MW>
193.2438

> <STRUCTURE_ChemType>
defined organic

> <STRUCTURE_DefinedOrganicForm>
parent

> <STRUCTURE_IUPAC>
anthracen-2-amine

> <STRUCTURE_SMILES>
Nc1ccc2cc3ccccc3cc2c1

> <STRUCTURE_SMILES_Desalt>
Nc1ccc2cc3ccccc3cc2c1

> <Substance_modify_yyyymmdd>
20080429

$$$$
