613-93-4
ChemmineR-0915142007XD

 10 10  0  0  0  0  0  0  0  0  1 V2000
    0.6701   -2.3035    0.0000 C   0  0  0  0  0  0  0  0  0  0  0  0
    0.0000   -3.4530    0.0000 O   0  0  0  0  0  0  0  0  0  0  0  0
    0.0000   -1.1494    0.0000 N   0  0  0  0  0  0  0  0  0  0  0  0
    0.6701    0.0000    0.0000 C   0  0  0  0  0  0  0  0  0  0  0  0
    2.0011   -2.3035    0.0000 C   0  0  0  0  0  0  0  0  0  0  0  0
    2.6526   -1.1494    0.0000 C   0  0  0  0  0  0  0  0  0  0  0  0
    3.9835   -1.1494    0.0000 C   0  0  0  0  0  0  0  0  0  0  0  0
    4.6536   -2.3035    0.0000 C   0  0  0  0  0  0  0  0  0  0  0  0
    3.9835   -3.4530    0.0000 C   0  0  0  0  0  0  0  0  0  0  0  0
    2.6526   -3.4530    0.0000 C   0  0  0  0  0  0  0  0  0  0  0  0
  1  2  2  0  0  0  0
  1  3  1  0  0  0  0
  1  5  1  0  0  0  0
  3  4  1  0  0  0  0
  5  6  2  0  0  0  0
  5 10  1  0  0  0  0
  6  7  1  0  0  0  0
  7  8  2  0  0  0  0
  8  9  1  0  0  0  0
  9 10  2  0  0  0  0
M  END
> <ID>
4272

> <Formula>
C8H9NO

> <FW>
135.1632

> <DSSTox_CID>
5570

> <DSSTox_RID>
77834

> <DSSTox_GSID>
25570

> <DSSTox_FileID_Sort>
2517

> <TS_ChemName>
N-Methylbenzamide

> <TS_ChemName_Synonyms>


> <TS_CASRN>
613-93-4

> <CASRN_ChemName_Relationship>
primary

> <TS_Description>
single chemical compound

> <ChemNote>


> <STRUCTURE_Shown>
tested chemical

> <STRUCTURE_Formula>
C8H9NO

> <STRUCTURE_MW>
135.1632

> <STRUCTURE_ChemType>
defined organic

> <STRUCTURE_DefinedOrganicForm>
parent

> <STRUCTURE_IUPAC>
N-methylbenzamide

> <STRUCTURE_SMILES>
O=C(NC)c1ccccc1

> <STRUCTURE_SMILES_Desalt>
O=C(NC)c1ccccc1

> <Substance_modify_yyyymmdd>
20080429

$$$$
