61318-91-0
ChemmineR-0915142007XD

 28 29  0  0  0  0  0  0  0  0  2 V2000
    3.4563   -4.0063    0.0000 C    0  0  0  0  0  0  0  0  0  0  0  0
    2.3249   -4.6602    0.0000 C    0  0  0  0  0  0  0  0  0  0  0  0
    5.7708   -6.6634    0.0000 N    0  0  0  0  0  0  0  0  0  0  0  0
    7.8985   -6.9229    0.0000 N    0  0  0  0  0  0  0  0  0  0  0  0
    4.6083   -4.6810    0.0000 C    0  0  0  0  0  0  0  0  0  0  0  0
    6.9229   -6.0095    0.0000 C    0  0  0  0  0  0  0  0  0  0  0  0
    1.1521   -4.0063    0.0000 C    0  0  0  0  0  0  0  0  0  0  0  0
    3.4563   -2.6571    0.0000 C    0  0  0  0  0  0  0  0  0  0  0  0
    5.7708   -4.0063    0.0000 S    0  0  0  0  0  0  0  0  0  0  0  0
    4.6083   -6.0095    0.0000 C    0  0  0  0  0  0  0  0  0  0  0  0
    7.3692   -8.1061    0.0000 C    0  0  0  0  0  0  0  0  0  0  0  0
    6.0510   -7.9608    0.0000 C    0  0  0  0  0  0  0  0  0  0  0  0
    1.1521   -2.6571    0.0000 C    0  0  0  0  0  0  0  0  0  0  0  0
    2.3249   -5.9888    0.0000 Cl   0  0  0  0  0  0  0  0  0  0  0  0
    5.7708   -2.6778    0.0000 C    0  0  0  0  0  0  0  0  0  0  0  0
    2.3249   -2.0032    0.0000 C    0  0  0  0  0  0  0  0  0  0  0  0
    9.2270   -0.6746    0.0000 C    0  0  0  0  0  0  0  0  0  0  0  0
    6.9229   -2.0239    0.0000 C    0  0  0  0  0  0  0  0  0  0  0  0
    0.0000   -1.9824    0.0000 Cl   0  0  0  0  0  0  0  0  0  0  0  0
   10.3791    0.0000    0.0000 Cl   0  0  0  0  0  0  0  0  0  0  0  0
    9.2270   -2.0239    0.0000 C    0  0  0  0  0  0  0  0  0  0  0  0
    8.0750   -0.0208    0.0000 C    0  0  0  0  0  0  0  0  0  0  0  0
    8.0750   -2.6778    0.0000 C    0  0  0  0  0  0  0  0  0  0  0  0
    6.9229   -0.6746    0.0000 C    0  0  0  0  0  0  0  0  0  0  0  0
    9.6734   -4.6602    0.0000 N    0  3  0  0  0  0  0  0  0  0  0  0
   10.3272   -5.8123    0.0000 O    0  5  0  0  0  0  0  0  0  0  0  0
   10.3480   -3.5289    0.0000 O    0  0  0  0  0  0  0  0  0  0  0  0
    8.3448   -4.6291    0.0000 O    0  0  0  0  0  0  0  0  0  0  0  0
  1  2  1  0  0  0  0
  1  5  1  0  0  0  0
  1  8  2  0  0  0  0
  2  7  2  0  0  0  0
  2 14  1  0  0  0  0
  3 10  1  0  0  0  0
  3  6  1  0  0  0  0
  3 12  1  0  0  0  0
  4  6  2  0  0  0  0
  4 11  1  0  0  0  0
  5  9  1  0  0  0  0
  5 10  1  0  0  0  0
  7 13  1  0  0  0  0
  8 16  1  0  0  0  0
  9 15  1  0  0  0  0
 11 12  2  0  0  0  0
 13 16  2  0  0  0  0
 13 19  1  0  0  0  0
 15 18  1  0  0  0  0
 17 22  2  0  0  0  0
 17 20  1  0  0  0  0
 17 21  1  0  0  0  0
 18 23  1  0  0  0  0
 18 24  2  0  0  0  0
 21 23  2  0  0  0  0
 22 24  1  0  0  0  0
 25 26  1  0  0  0  0
 25 27  2  0  0  0  0
 25 28  1  0  0  0  0
M  END
> <ID>
10979

> <Formula>
C18H16Cl3N3O3S

> <FW>
460.7619 (397.7491+63.0128)

> <DSSTox_CID>
25490

> <DSSTox_RID>
80911

> <DSSTox_GSID>
45490

> <DSSTox_FileID_Sort>
5592

> <TS_ChemName>
Sulconazole nitrate

> <TS_ChemName_Synonyms>


> <TS_CASRN>
61318-91-0

> <CASRN_ChemName_Relationship>
primary

> <TS_Description>
single chemical compound

> <ChemNote>
parent [61318-90-9]

> <STRUCTURE_Shown>
tested chemical

> <STRUCTURE_Formula>
C18H16Cl3N3O3S

> <STRUCTURE_MW>
460.7619

> <STRUCTURE_ChemType>
defined organic

> <STRUCTURE_DefinedOrganicForm>
complex

> <STRUCTURE_IUPAC>
1-{2-[(4-chlorobenzyl)sulfanyl]-2-(2,4-dichlorophenyl)ethyl}-1H-imidazole nitrate (1:1)

> <STRUCTURE_SMILES>
[O-][N+](=O)O.Clc3ccc(C(SCc1ccc(Cl)cc1)Cn2ccnc2)c(Cl)c3

> <STRUCTURE_SMILES_Desalt>
Clc3ccc(C(SCc1ccc(Cl)cc1)Cn2ccnc2)c(Cl)c3

> <Substance_modify_yyyymmdd>
20100107

$$$$
