61379-65-5
ChemmineR-0915142007XD

 63 68  0  0  1  0  0  0  0  0  1 V2000
    5.6407   -7.7455    0.0000 C   0  0  0  0  0  0  0  0  0  0  0  0
    4.5126   -7.1056    0.0000 C   0  0  0  0  0  0  0  0  0  0  0  0
    3.4013   -9.0252    0.0000 C   0  0  0  0  0  0  0  0  0  0  0  0
    6.7352   -5.8260    0.0000 C   0  0  0  0  0  0  0  0  0  0  0  0
    6.7352   -7.1056    0.0000 C   0  0  0  0  0  0  0  0  0  0  0  0
    3.4013   -7.7455    0.0000 O   0  0  0  0  0  0  0  0  0  0  0  0
    5.6407   -5.1693    0.0000 C   0  0  0  0  0  0  0  0  0  0  0  0
    5.6407   -9.0252    0.0000 C   0  0  0  0  0  0  0  0  0  0  0  0
    4.5126   -5.8260    0.0000 C   0  0  0  0  0  0  0  0  0  0  0  0
    3.4013   -3.8727    0.0000 C   0  0  0  0  0  0  0  0  0  0  0  0
   10.1028   -5.1693    0.0000 N   0  0  0  0  0  0  0  0  0  0  0  0
    9.0083   -5.8260    0.0000 C   0  0  0  0  0  0  0  0  0  0  0  0
    4.5126   -3.2161    0.0000 C   0  0  0  0  0  0  0  0  0  0  0  0
    7.8633   -7.7455    0.0000 C   0  0  0  0  0  0  0  0  0  0  0  0
   10.1028   -3.8727    0.0000 C   0  0  0  0  0  0  0  0  0  0  0  0
    5.6407   -1.3134    0.0000 C   0  0  0  0  0  0  0  0  0  0  0  0
    4.5126   -1.9364    0.0000 C   0  0  0  0  0  0  0  0  0  0  0  0
    7.8633   -5.1693    0.0000 C   0  0  0  0  0  0  0  0  0  0  0  0
    3.4013   -5.1693    0.0000 C   0  0  0  0  0  0  0  0  0  0  0  0
    9.0083   -7.1056    0.0000 C   0  0  0  0  0  0  0  0  0  0  0  0
    6.7352   -1.9364    0.0000 C   0  0  0  0  0  0  0  0  0  0  0  0
   11.2310   -3.2161    0.0000 C   0  0  0  0  0  0  0  0  0  0  0  0
    1.1450   -9.0252    0.0000 O   0  0  0  0  0  0  0  0  0  0  0  0
    2.2900   -3.2497    0.0000 O   0  0  0  0  0  0  0  0  0  0  0  0
    1.1450   -7.7455    0.0000 C   0  0  0  0  0  0  0  0  0  0  0  0
    0.9598   -3.2497    0.0000 C   0  0  0  0  0  0  0  0  0  0  0  0
    2.2900   -7.1056    0.0000 C   0  0  0  0  0  0  0  0  0  0  0  0
    2.2900   -5.8260    0.0000 C   0  0  0  0  0  0  0  0  0  0  0  0
   10.1028   -1.3134    0.0000 C   0  0  0  0  0  0  0  0  0  0  0  0
    6.1627  -10.1365    0.0000 O   0  0  0  0  0  0  0  0  0  0  0  0
   11.2310   -1.9364    0.0000 C   0  0  0  0  0  0  0  0  0  0  0  0
    9.0083   -3.2161    0.0000 O   0  0  0  0  0  0  0  0  0  0  0  0
    7.8633   -1.3134    0.0000 C   0  0  0  0  0  0  0  0  0  0  0  0
    9.0083   -1.9364    0.0000 C   0  0  0  0  0  0  0  0  0  0  0  0
    0.2357   -2.1384    0.0000 O   0  0  0  0  0  0  0  0  0  0  0  0
    5.6407   -3.8727    0.0000 O   0  0  0  0  0  0  0  0  0  0  0  0
    3.3676   -1.3134    0.0000 O   0  0  0  0  0  0  0  0  0  0  0  0
    7.8633   -3.8727    0.0000 O   0  0  0  0  0  0  0  0  0  0  0  0
    6.7352   -3.2161    0.0000 O   0  0  0  0  0  0  0  0  0  0  0  0
    3.4013  -10.3049    0.0000 C   0  0  0  0  0  0  0  0  0  0  0  0
    4.5126   -4.5294    0.0000 C   0  0  0  0  0  0  0  0  0  0  0  0
    5.6407    0.0000    0.0000 C   0  0  0  0  0  0  0  0  0  0  0  0
    1.1450   -5.1693    0.0000 O   0  0  0  0  0  0  0  0  0  0  0  0
   12.3759   -3.8727    0.0000 C   0  0  0  0  0  0  0  0  0  0  0  0
    0.3031   -4.3779    0.0000 C   0  0  0  0  0  0  0  0  0  0  0  0
    7.8633    0.0000    0.0000 C   0  0  0  0  0  0  0  0  0  0  0  0
    0.0000   -5.8260    0.0000 C   0  0  0  0  0  0  0  0  0  0  0  0
    5.6576   -2.5425    0.0000 C   0  0  0  0  0  0  0  0  0  0  0  0
    3.4013   -6.4995    0.0000 C   0  0  0  0  0  0  0  0  0  0  0  0
    7.8633   -9.0757    0.0000 O   0  0  0  0  0  0  0  0  0  0  0  0
   10.1365   -7.7792    0.0000 C   0  0  0  0  0  0  0  0  0  0  0  0
   10.1365   -9.1094    0.0000 N   0  0  0  0  0  0  0  0  0  0  0  0
   11.2815   -9.7829    0.0000 N   0  0  0  0  0  0  0  0  0  0  0  0
   12.4433   -9.1262    0.0000 C   0  0  0  0  0  0  0  0  0  0  0  0
   11.2815  -11.1131    0.0000 C   0  0  0  0  0  0  0  0  0  0  0  0
   13.5883   -9.7997    0.0000 C   0  0  0  0  0  0  0  0  0  0  0  0
   12.4265  -11.7866    0.0000 C   0  0  0  0  0  0  0  0  0  0  0  0
   13.5883  -11.1299    0.0000 N   0  0  0  0  0  0  0  0  0  0  0  0
   14.7333  -11.8034    0.0000 C   0  0  0  0  0  0  0  0  0  0  0  0
   15.9624  -11.2815    0.0000 C   0  0  0  0  0  0  0  0  0  0  0  0
   14.8680  -13.1336    0.0000 C   0  0  0  0  0  0  0  0  0  0  0  0
   16.8380  -12.2749    0.0000 C   0  0  0  0  0  0  0  0  0  0  0  0
   16.1645  -13.4199    0.0000 C   0  0  0  0  0  0  0  0  0  0  0  0
  1  2  2  0  0  0  0
  1  5  1  0  0  0  0
  1  8  1  0  0  0  0
  2  6  1  0  0  0  0
  2  9  1  0  0  0  0
  3  8  1  0  0  0  0
  3 23  1  0  0  0  0
  3 40  1  6  0  0  0
  3  6  1  0  0  0  0
  4  5  2  0  0  0  0
  4  7  1  0  0  0  0
  4 18  1  0  0  0  0
  5 14  1  0  0  0  0
  7 36  1  0  0  0  0
  7  9  2  0  0  0  0
  8 30  2  0  0  0  0
  9 41  1  0  0  0  0
 10 19  1  0  0  0  0
 10 13  1  0  0  0  0
 10 24  1  1  0  0  0
 11 12  1  0  0  0  0
 11 15  1  0  0  0  0
 12 20  1  0  0  0  0
 12 18  2  0  0  0  0
 13 17  1  0  0  0  0
 13 48  1  1  0  0  0
 14 20  2  0  0  0  0
 14 50  1  0  0  0  0
 15 22  1  0  0  0  0
 15 32  2  0  0  0  0
 16 17  1  0  0  0  0
 16 21  1  0  0  0  0
 16 42  1  6  0  0  0
 17 37  1  6  0  0  0
 18 38  1  0  0  0  0
 19 28  1  0  0  0  0
 19 49  1  6  0  0  0
 20 51  1  0  0  0  0
 21 39  1  6  0  0  0
 21 33  1  0  0  0  0
 22 31  2  0  0  0  0
 22 44  1  0  0  0  0
 23 25  1  0  0  0  0
 24 26  1  0  0  0  0
 25 27  2  0  0  0  0
 26 35  2  0  0  0  0
 26 45  1  0  0  0  0
 27 28  1  0  0  0  0
 28 43  1  6  0  0  0
 29 31  1  0  0  0  0
 29 34  2  0  0  0  0
 33 34  1  0  0  0  0
 33 46  1  1  0  0  0
 43 47  1  0  0  0  0
 51 52  2  0  0  0  0
 52 53  1  0  0  0  0
 53 54  1  0  0  0  0
 53 55  1  0  0  0  0
 54 56  1  0  0  0  0
 55 57  1  0  0  0  0
 56 58  1  0  0  0  0
 57 58  1  0  0  0  0
 58 59  1  0  0  0  0
 59 60  1  0  0  0  0
 59 61  1  0  0  0  0
 60 62  1  0  0  0  0
 61 63  1  0  0  0  0
 62 63  1  0  0  0  0
M  END
> <ID>
8117

> <Formula>
C47H64N4O12

> <FW>
877.0307

> <DSSTox_CID>
21115

> <DSSTox_RID>
79627

> <DSSTox_GSID>
41115

> <DSSTox_FileID_Sort>
4309

> <TS_ChemName>
Rifapentine

> <TS_ChemName_Synonyms>


> <TS_CASRN>
61379-65-5

> <CASRN_ChemName_Relationship>
primary

> <TS_Description>
single chemical compound

> <ChemNote>
stereochem

> <STRUCTURE_Shown>
tested chemical

> <STRUCTURE_Formula>
C47H64N4O12

> <STRUCTURE_MW>
877.0307

> <STRUCTURE_ChemType>
defined organic

> <STRUCTURE_DefinedOrganicForm>
parent

> <STRUCTURE_IUPAC>
(2S,12Z,14E,16S,17S,18R,19R,20R,21S,22R,23S,24E)-8-{(E)-[(4-cyclopentylpiperazin-1-yl)imino]methyl}-5,6,9,17,19-pentahydroxy-23-methoxy-2,4,12,16,18,20,22-heptamethyl-1,11-dioxo-1,2-dihydro-2,7-(epoxypentadeca[1,11,13]trienoimino)naphtho[2,1-b]furan-21-yl

> <STRUCTURE_SMILES>
CC(=O)O[C@@H]1[C@H](C)[C@@H](OC)C=CO[C@@]6(C)Oc5c(C)c(O)c4c(O)c(NC(=O)C(C)=CC=C[C@H](C)[C@H](O)[C@@H](C)[C@@H](O)[C@H]1C)c(/C=N/N2CCN(CC2)C3CCCC3)c(O)c4c5C6=O

> <STRUCTURE_SMILES_Desalt>
CC(=O)O[C@@H]1[C@H](C)[C@@H](OC)C=CO[C@@]6(C)Oc5c(C)c(O)c4c(O)c(NC(=O)C(C)=CC=C[C@H](C)[C@H](O)[C@@H](C)[C@@H](O)[C@H]1C)c(/C=N/N2CCN(CC2)C3CCCC3)c(O)c4c5C6=O

> <Substance_modify_yyyymmdd>
20080429

$$$$
