6138-79-0
ChemmineR-0915142007XD

 23 23  0  0  0  0  0  0  0  0  1 V2000
    0.0000   -1.7506    0.0000 O    0  0  0  0  0  0  0  0  0  0  0  0
    2.6470   -1.7506    0.0000 Cl   0  0  0  0  0  0  0  0  0  0  0  0
    6.1482   -2.6610    0.0000 N    0  0  0  0  0  0  0  0  0  0  0  0
    4.9998   -1.9887    0.0000 C    0  0  0  0  0  0  0  0  0  0  0  0
    7.2966   -1.9887    0.0000 C    0  0  0  0  0  0  0  0  0  0  0  0
    7.2966   -0.6582    0.0000 C    0  0  0  0  0  0  0  0  0  0  0  0
    4.9998   -0.6582    0.0000 C    0  0  0  0  0  0  0  0  0  0  0  0
    6.1482    0.0000    0.0000 C    0  0  0  0  0  0  0  0  0  0  0  0
    8.4450   -2.6610    0.0000 C    0  0  0  0  0  0  0  0  0  0  0  0
    9.6074   -1.9887    0.0000 C    0  0  0  0  0  0  0  0  0  0  0  0
   10.7559   -2.6610    0.0000 C    0  0  0  0  0  0  0  0  0  0  0  0
    8.4450   -3.9774    0.0000 C    0  0  0  0  0  0  0  0  0  0  0  0
    9.6074   -4.6497    0.0000 C    0  0  0  0  0  0  0  0  0  0  0  0
    7.2966   -4.6497    0.0000 C    0  0  0  0  0  0  0  0  0  0  0  0
    9.6074   -5.9801    0.0000 C    0  0  0  0  0  0  0  0  0  0  0  0
    7.2966   -5.9801    0.0000 C    0  0  0  0  0  0  0  0  0  0  0  0
    8.4450   -6.6384    0.0000 C    0  0  0  0  0  0  0  0  0  0  0  0
    8.4450   -7.9689    0.0000 C    0  0  0  0  0  0  0  0  0  0  0  0
   11.9043   -1.9887    0.0000 N    0  0  0  0  0  0  0  0  0  0  0  0
   12.0443   -0.6722    0.0000 C    0  0  0  0  0  0  0  0  0  0  0  0
   13.1227   -2.5349    0.0000 C    0  0  0  0  0  0  0  0  0  0  0  0
   13.3468   -0.3921    0.0000 C    0  0  0  0  0  0  0  0  0  0  0  0
   14.0050   -1.5406    0.0000 C    0  0  0  0  0  0  0  0  0  0  0  0
  3  4  2  0  0  0  0
  3  5  1  0  0  0  0
  4  7  1  0  0  0  0
  5  6  2  0  0  0  0
  5  9  1  0  0  0  0
  6  8  1  0  0  0  0
  7  8  2  0  0  0  0
  9 10  2  0  0  0  0
  9 12  1  0  0  0  0
 10 11  1  0  0  0  0
 11 19  1  0  0  0  0
 12 13  2  0  0  0  0
 12 14  1  0  0  0  0
 13 15  1  0  0  0  0
 14 16  2  0  0  0  0
 15 17  2  0  0  0  0
 16 17  1  0  0  0  0
 17 18  1  0  0  0  0
 19 20  1  0  0  0  0
 19 21  1  0  0  0  0
 20 22  1  0  0  0  0
 21 23  1  0  0  0  0
 22 23  1  0  0  0  0
M  END
> <ID>
1355

> <Formula>
C19H25ClN2O

> <FW>
332.8676 (18.0153+36.4609+278.3914)

> <DSSTox_CID>
1410

> <DSSTox_RID>
76146

> <DSSTox_GSID>
21410

> <DSSTox_FileID_Sort>
830

> <TS_ChemName>
Triprolidine hydrochloride monohydrate

> <TS_ChemName_Synonyms>
Triprolidine hydrochloride hydrate

> <TS_CASRN>
6138-79-0

> <CASRN_ChemName_Relationship>
primary

> <TS_Description>
single chemical compound

> <ChemNote>
stereochem; parent [486-12-4]

> <STRUCTURE_Shown>
tested chemical

> <STRUCTURE_Formula>
C19H25ClN2O

> <STRUCTURE_MW>
332.8676

> <STRUCTURE_ChemType>
defined organic

> <STRUCTURE_DefinedOrganicForm>
complex

> <STRUCTURE_IUPAC>
2-[(1E)-1-(4-methylphenyl)-3-(pyrrolidin-1-yl)prop-1-en-1-yl]pyridine hydrochloride hydrate

> <STRUCTURE_SMILES>
Cl.O.Cc1ccc(cc1)C(=C\CN2CCCC2)/c3ccccn3

> <STRUCTURE_SMILES_Desalt>
Cc1ccc(cc1)C(=C\CN2CCCC2)/c3ccccn3

> <Substance_modify_yyyymmdd>
20080429

$$$$
