6138-23-4
ChemmineR-0915142007XD

 25 24  0  0  1  0  0  0  0  0  1 V2000
    4.5833   -2.9763    0.0000 C   0  0  0  0  0  0  0  0  0  0  0  0
    4.5833   -4.3038    0.0000 C   0  0  0  0  0  0  0  0  0  0  0  0
    3.4374   -2.3196    0.0000 O   0  0  0  0  0  0  0  0  0  0  0  0
    3.4374   -4.9745    0.0000 C   0  0  0  0  0  0  0  0  0  0  0  0
    2.3056   -2.9763    0.0000 C   0  0  0  0  0  0  0  0  0  0  0  0
    2.3056   -4.3038    0.0000 C   0  0  0  0  0  0  0  0  0  0  0  0
    5.7430   -2.2916    0.0000 O   0  0  0  0  0  0  0  0  0  0  0  0
    5.7430   -4.9745    0.0000 O   0  0  0  0  0  0  0  0  0  0  0  0
    3.4374   -6.3020    0.0000 O   0  0  0  0  0  0  0  0  0  0  0  0
    1.1458   -4.9745    0.0000 O   0  0  0  0  0  0  0  0  0  0  0  0
    1.1458   -2.3196    0.0000 C   0  0  0  0  0  0  0  0  0  0  0  0
    0.0000   -2.9763    0.0000 O   0  0  0  0  0  0  0  0  0  0  0  0
    7.0845   -2.3196    0.0000 C   0  0  0  0  0  0  0  0  0  0  0  0
    7.7412   -1.1598    0.0000 C   0  0  0  0  0  0  0  0  0  0  0  0
    7.7412   -3.4654    0.0000 O   0  0  0  0  0  0  0  0  0  0  0  0
    9.0687   -1.1598    0.0000 C   0  0  0  0  0  0  0  0  0  0  0  0
    9.0687   -3.4654    0.0000 C   0  0  0  0  0  0  0  0  0  0  0  0
    9.7394   -2.3196    0.0000 C   0  0  0  0  0  0  0  0  0  0  0  0
    7.0985    0.0000    0.0000 O   0  0  0  0  0  0  0  0  0  0  0  0
    9.7534    0.0000    0.0000 O   0  0  0  0  0  0  0  0  0  0  0  0
   11.0669   -2.3196    0.0000 O   0  0  0  0  0  0  0  0  0  0  0  0
    9.7394   -4.6252    0.0000 C   0  0  0  0  0  0  0  0  0  0  0  0
   11.0669   -4.6252    0.0000 O   0  0  0  0  0  0  0  0  0  0  0  0
   13.9314   -0.8384    0.0000 O   0  0  0  0  0  0  0  0  0  0  0  0
   13.9733   -3.1300    0.0000 O   0  0  0  0  0  0  0  0  0  0  0  0
  1  2  1  0  0  0  0
  1  3  1  0  0  0  0
  1  7  1  6  0  0  0
  2  4  1  0  0  0  0
  2  8  1  6  0  0  0
  3  5  1  0  0  0  0
  4  6  1  0  0  0  0
  4  9  1  1  0  0  0
  5  6  1  0  0  0  0
  5 11  1  1  0  0  0
  6 10  1  6  0  0  0
 13  7  1  6  0  0  0
 11 12  1  0  0  0  0
 13 14  1  0  0  0  0
 13 15  1  0  0  0  0
 14 16  1  0  0  0  0
 14 19  1  6  0  0  0
 15 17  1  0  0  0  0
 16 18  1  0  0  0  0
 16 20  1  1  0  0  0
 17 18  1  0  0  0  0
 17 22  1  1  0  0  0
 18 21  1  6  0  0  0
 22 23  1  0  0  0  0
M  END
> <ID>
13045

> <Formula>
C12H26O13

> <FW>
378.3270 (342.2965+18.0153+18.0153)

> <DSSTox_CID>
27948

> <DSSTox_RID>
82700

> <DSSTox_GSID>
47972

> <DSSTox_FileID_Sort>
7377

> <TS_ChemName>
Trehalose dihydrate

> <TS_ChemName_Synonyms>


> <TS_CASRN>
6138-23-4

> <CASRN_ChemName_Relationship>
primary

> <TS_Description>
single chemical compound

> <ChemNote>
stereochem; parent [99-20-7]

> <STRUCTURE_Shown>
tested chemical

> <STRUCTURE_Formula>
C12H26O13

> <STRUCTURE_MW>
378.327

> <STRUCTURE_ChemType>
defined organic

> <STRUCTURE_DefinedOrganicForm>
complex

> <STRUCTURE_IUPAC>
alpha-D-glucopyranosyl alpha-D-glucopyranoside dihydrate

> <STRUCTURE_SMILES>
O.O.O[C@H]1[C@H](O[C@H](CO)[C@@H](O)[C@@H]1O)O[C@H]2O[C@H](CO)[C@@H](O)[C@H](O)[C@H]2O

> <STRUCTURE_SMILES_Desalt>
O[C@H]1[C@H](O[C@H](CO)[C@@H](O)[C@@H]1O)O[C@H]2O[C@H](CO)[C@@H](O)[C@H](O)[C@H]2O

> <Substance_modify_yyyymmdd>
20110419

$$$$
