6138-56-3
ChemmineR-0915142007XD

 32 32  0  0  0  0  0  0  0  0  1 V2000
   10.9284    0.0000    0.0000 O   0  0  0  0  0  0  0  0  0  0  0  0
   10.2580   -1.1536    0.0000 C   0  0  0  0  0  0  0  0  0  0  0  0
    8.9329   -1.1536    0.0000 O   0  0  0  0  0  0  0  0  0  0  0  0
   10.9284   -2.3073    0.0000 C   0  0  0  0  0  0  0  0  0  0  0  0
   12.2535   -2.3073    0.0000 C   0  0  0  0  0  0  0  0  0  0  0  0
   12.2535   -0.9666    0.0000 O   0  0  0  0  0  0  0  0  0  0  0  0
   13.5786   -2.3073    0.0000 C   0  0  0  0  0  0  0  0  0  0  0  0
   14.2646   -1.1536    0.0000 C   0  0  0  0  0  0  0  0  0  0  0  0
   15.5897   -1.1536    0.0000 O   0  0  0  0  0  0  0  0  0  0  0  0
   13.5786    0.0000    0.0000 O   0  0  0  0  0  0  0  0  0  0  0  0
   12.2535   -3.6324    0.0000 C   0  0  0  0  0  0  0  0  0  0  0  0
   13.4071   -4.2872    0.0000 O   0  0  0  0  0  0  0  0  0  0  0  0
   11.0999   -4.2872    0.0000 O   0  0  0  0  0  0  0  0  0  0  0  0
    0.6704   -1.7149    0.0000 C   0  0  0  0  0  0  0  0  0  0  0  0
    2.0111   -1.7149    0.0000 N   0  0  0  0  0  0  0  0  0  0  0  0
    2.6658   -0.5612    0.0000 C   0  0  0  0  0  0  0  0  0  0  0  0
    2.6658   -2.8529    0.0000 C   0  0  0  0  0  0  0  0  0  0  0  0
    3.9910   -2.8529    0.0000 C   0  0  0  0  0  0  0  0  0  0  0  0
    4.6457   -4.0221    0.0000 N   0  0  0  0  0  0  0  0  0  0  0  0
    5.9864   -4.0221    0.0000 C   0  0  0  0  0  0  0  0  0  0  0  0
    6.6412   -2.8529    0.0000 C   0  0  0  0  0  0  0  0  0  0  0  0
    7.9663   -2.8529    0.0000 C   0  0  0  0  0  0  0  0  0  0  0  0
    8.6523   -4.0221    0.0000 C   0  0  0  0  0  0  0  0  0  0  0  0
    7.9663   -5.1602    0.0000 C   0  0  0  0  0  0  0  0  0  0  0  0
    6.6412   -5.1602    0.0000 N   0  0  0  0  0  0  0  0  0  0  0  0
    3.9910   -5.1602    0.0000 C   0  0  0  0  0  0  0  0  0  0  0  0
    2.6658   -5.1602    0.0000 C   0  0  0  0  0  0  0  0  0  0  0  0
    2.0111   -6.3138    0.0000 C   0  0  0  0  0  0  0  0  0  0  0  0
    0.6704   -6.3138    0.0000 C   0  0  0  0  0  0  0  0  0  0  0  0
    0.0000   -5.1602    0.0000 C   0  0  0  0  0  0  0  0  0  0  0  0
    0.6704   -4.0221    0.0000 C   0  0  0  0  0  0  0  0  0  0  0  0
    2.0111   -4.0221    0.0000 C   0  0  0  0  0  0  0  0  0  0  0  0
  1  2  1  0  0  0  0
  2  3  2  0  0  0  0
  2  4  1  0  0  0  0
  4  5  1  0  0  0  0
  5  6  1  0  0  0  0
  5  7  1  0  0  0  0
  5 11  1  0  0  0  0
  7  8  1  0  0  0  0
  8  9  1  0  0  0  0
  8 10  2  0  0  0  0
 11 12  1  0  0  0  0
 11 13  2  0  0  0  0
 14 15  1  0  0  0  0
 15 16  1  0  0  0  0
 15 17  1  0  0  0  0
 17 18  1  0  0  0  0
 18 19  1  0  0  0  0
 19 20  1  0  0  0  0
 19 26  1  0  0  0  0
 20 21  2  0  0  0  0
 20 25  1  0  0  0  0
 21 22  1  0  0  0  0
 22 23  2  0  0  0  0
 23 24  1  0  0  0  0
 24 25  2  0  0  0  0
 26 27  1  0  0  0  0
 27 28  2  0  0  0  0
 27 32  1  0  0  0  0
 28 29  1  0  0  0  0
 29 30  2  0  0  0  0
 30 31  1  0  0  0  0
 31 32  2  0  0  0  0
M  END
> <ID>
11344

> <Formula>
C22H29N3O7

> <FW>
447.4816 (192.1235+255.3580)

> <DSSTox_CID>
25989

> <DSSTox_RID>
81276

> <DSSTox_GSID>
45989

> <DSSTox_FileID_Sort>
5957

> <TS_ChemName>
Tripelennamine citrate

> <TS_ChemName_Synonyms>


> <TS_CASRN>
6138-56-3

> <CASRN_ChemName_Relationship>
primary

> <TS_Description>
single chemical compound

> <ChemNote>


> <STRUCTURE_Shown>
tested chemical

> <STRUCTURE_Formula>
C22H29N3O7

> <STRUCTURE_MW>
447.4816

> <STRUCTURE_ChemType>
defined organic

> <STRUCTURE_DefinedOrganicForm>
complex

> <STRUCTURE_IUPAC>
N-benzyl-N',N'-dimethyl-N-(pyridin-2-yl)ethane-1,2-diamine 2-hydroxypropane-1,2,3-tricarboxylate (1:1)

> <STRUCTURE_SMILES>
O=C(O)C(O)(CC(=O)O)CC(=O)O.CN(C)CCN(Cc1ccccc1)c2ccccn2

> <STRUCTURE_SMILES_Desalt>
CN(C)CCN(Cc1ccccc1)c2ccccn2

> <Substance_modify_yyyymmdd>
20110825

$$$$
