614-80-2
ChemmineR-0915142007XD

 11 11  0  0  0  0  0  0  0  0  1 V2000
    2.6568    0.0000    0.0000 O   0  0  0  0  0  0  0  0  0  0  0  0
    1.9926   -1.1549    0.0000 C   0  0  0  0  0  0  0  0  0  0  0  0
    2.6568   -2.3038    0.0000 C   0  0  0  0  0  0  0  0  0  0  0  0
    3.9912   -2.3038    0.0000 N   0  0  0  0  0  0  0  0  0  0  0  0
    4.6555   -3.4587    0.0000 C   0  0  0  0  0  0  0  0  0  0  0  0
    5.9839   -3.4587    0.0000 O   0  0  0  0  0  0  0  0  0  0  0  0
    3.9912   -4.6076    0.0000 C   0  0  0  0  0  0  0  0  0  0  0  0
    1.9926   -3.4587    0.0000 C   0  0  0  0  0  0  0  0  0  0  0  0
    0.6642   -3.4587    0.0000 C   0  0  0  0  0  0  0  0  0  0  0  0
    0.0000   -2.3038    0.0000 C   0  0  0  0  0  0  0  0  0  0  0  0
    0.6642   -1.1549    0.0000 C   0  0  0  0  0  0  0  0  0  0  0  0
  1  2  1  0  0  0  0
  2  3  2  0  0  0  0
  2 11  1  0  0  0  0
  3  4  1  0  0  0  0
  3  8  1  0  0  0  0
  4  5  1  0  0  0  0
  5  6  2  0  0  0  0
  5  7  1  0  0  0  0
  8  9  2  0  0  0  0
  9 10  1  0  0  0  0
 10 11  2  0  0  0  0
M  END
> <ID>
1925

> <Formula>
C8H9NO2

> <FW>
151.1626

> <DSSTox_CID>
2082

> <DSSTox_RID>
76481

> <DSSTox_GSID>
22082

> <DSSTox_FileID_Sort>
1165

> <TS_ChemName>
2-Acetamidophenol

> <TS_ChemName_Synonyms>


> <TS_CASRN>
614-80-2

> <CASRN_ChemName_Relationship>
primary

> <TS_Description>
single chemical compound

> <ChemNote>


> <STRUCTURE_Shown>
tested chemical

> <STRUCTURE_Formula>
C8H9NO2

> <STRUCTURE_MW>
151.1626

> <STRUCTURE_ChemType>
defined organic

> <STRUCTURE_DefinedOrganicForm>
parent

> <STRUCTURE_IUPAC>
N-(2-hydroxyphenyl)acetamide

> <STRUCTURE_SMILES>
Oc1ccccc1NC(C)=O

> <STRUCTURE_SMILES_Desalt>
Oc1ccccc1NC(C)=O

> <Substance_modify_yyyymmdd>
20080429

$$$$
