614-00-6
ChemmineR-0915142007XD

 10 10  0  0  0  0  0  0  0  0  1 V2000
    1.3286    0.0000    0.0000 C   0  0  0  0  0  0  0  0  0  0  0  0
    1.9930   -1.1551    0.0000 N   0  0  0  0  0  0  0  0  0  0  0  0
    3.3276   -1.1551    0.0000 C   0  0  0  0  0  0  0  0  0  0  0  0
    3.9919    0.0000    0.0000 C   0  0  0  0  0  0  0  0  0  0  0  0
    5.3206    0.0000    0.0000 C   0  0  0  0  0  0  0  0  0  0  0  0
    5.9849   -1.1551    0.0000 C   0  0  0  0  0  0  0  0  0  0  0  0
    5.3206   -2.3042    0.0000 C   0  0  0  0  0  0  0  0  0  0  0  0
    3.9919   -2.3042    0.0000 C   0  0  0  0  0  0  0  0  0  0  0  0
    1.3286   -2.3042    0.0000 N   0  0  0  0  0  0  0  0  0  0  0  0
    0.0000   -2.3042    0.0000 O   0  0  0  0  0  0  0  0  0  0  0  0
  1  2  1  0  0  0  0
  2  3  1  0  0  0  0
  2  9  1  0  0  0  0
  3  4  2  0  0  0  0
  3  8  1  0  0  0  0
  4  5  1  0  0  0  0
  5  6  2  0  0  0  0
  6  7  1  0  0  0  0
  7  8  2  0  0  0  0
  9 10  2  0  0  0  0
M  END
> <ID>
1017

> <Formula>
C7H8N2O

> <FW>
136.1512

> <DSSTox_CID>
1053

> <DSSTox_RID>
75921

> <DSSTox_GSID>
21053

> <DSSTox_FileID_Sort>
605

> <TS_ChemName>
Nitrosomethylaniline

> <TS_ChemName_Synonyms>


> <TS_CASRN>
614-00-6

> <CASRN_ChemName_Relationship>
primary

> <TS_Description>
single chemical compound

> <ChemNote>


> <STRUCTURE_Shown>
tested chemical

> <STRUCTURE_Formula>
C7H8N2O

> <STRUCTURE_MW>
136.1512

> <STRUCTURE_ChemType>
defined organic

> <STRUCTURE_DefinedOrganicForm>
parent

> <STRUCTURE_IUPAC>
N-methyl-N-nitrosoaniline

> <STRUCTURE_SMILES>
O=NN(C)c1ccccc1

> <STRUCTURE_SMILES_Desalt>
O=NN(C)c1ccccc1

> <Substance_modify_yyyymmdd>
20080429

$$$$
