614-45-9
ChemmineR-0915142007XD

 14 14  0  0  0  0  0  0  0  0  1 V2000
    4.6106   -1.3300    0.0000 C   0  0  0  0  0  0  0  0  0  0  0  0
    4.6106    0.0000    0.0000 O   0  0  0  0  0  0  0  0  0  0  0  0
    3.4580   -1.9990    0.0000 O   0  0  0  0  0  0  0  0  0  0  0  0
    2.3053   -1.3300    0.0000 O   0  0  0  0  0  0  0  0  0  0  0  0
    1.1527   -1.9990    0.0000 C   0  0  0  0  0  0  0  0  0  0  0  0
    1.8136   -3.1436    0.0000 C   0  0  0  0  0  0  0  0  0  0  0  0
    0.0000   -2.6600    0.0000 C   0  0  0  0  0  0  0  0  0  0  0  0
    0.4836   -0.8464    0.0000 C   0  0  0  0  0  0  0  0  0  0  0  0
    5.7552   -1.9990    0.0000 C   0  0  0  0  0  0  0  0  0  0  0  0
    6.9078   -1.3300    0.0000 C   0  0  0  0  0  0  0  0  0  0  0  0
    8.0605   -1.9990    0.0000 C   0  0  0  0  0  0  0  0  0  0  0  0
    8.0605   -3.3290    0.0000 C   0  0  0  0  0  0  0  0  0  0  0  0
    6.9078   -3.9899    0.0000 C   0  0  0  0  0  0  0  0  0  0  0  0
    5.7552   -3.3290    0.0000 C   0  0  0  0  0  0  0  0  0  0  0  0
  1  2  2  0  0  0  0
  1  3  1  0  0  0  0
  1  9  1  0  0  0  0
  3  4  1  0  0  0  0
  4  5  1  0  0  0  0
  5  6  1  0  0  0  0
  5  7  1  0  0  0  0
  5  8  1  0  0  0  0
  9 10  2  0  0  0  0
  9 14  1  0  0  0  0
 10 11  1  0  0  0  0
 11 12  2  0  0  0  0
 12 13  1  0  0  0  0
 13 14  2  0  0  0  0
M  END
> <ID>
3817

> <Formula>
C11H14O3

> <FW>
194.2271

> <DSSTox_CID>
4699

> <DSSTox_RID>
77504

> <DSSTox_GSID>
24699

> <DSSTox_FileID_Sort>
2187

> <TS_ChemName>
tert-Butyl perbenzoate

> <TS_ChemName_Synonyms>
tert-Butyl perbenzoate (Benzenecarboperoxoic acid, 1,1-dimethylethyl ester)

> <TS_CASRN>
614-45-9

> <CASRN_ChemName_Relationship>
primary

> <TS_Description>
single chemical compound

> <ChemNote>


> <STRUCTURE_Shown>
tested chemical

> <STRUCTURE_Formula>
C11H14O3

> <STRUCTURE_MW>
194.2271

> <STRUCTURE_ChemType>
defined organic

> <STRUCTURE_DefinedOrganicForm>
parent

> <STRUCTURE_IUPAC>
tert-butyl benzenecarboperoxoate

> <STRUCTURE_SMILES>
CC(C)(C)OOC(=O)c1ccccc1

> <STRUCTURE_SMILES_Desalt>
CC(C)(C)OOC(=O)c1ccccc1

> <Substance_modify_yyyymmdd>
20080429

$$$$
