614-39-1
ChemmineR-0915142007XD

 18 17  0  0  0  0  0  0  0  0  1 V2000
   10.3776    0.0000    0.0000 C    0  0  0  0  0  0  0  0  0  0  0  0
   11.5307   -2.0063    0.0000 C    0  0  0  0  0  0  0  0  0  0  0  0
   10.3776   -2.6636    0.0000 C    0  0  0  0  0  0  0  0  0  0  0  0
    4.6007   -2.0063    0.0000 C    0  0  0  0  0  0  0  0  0  0  0  0
    9.2245   -2.0063    0.0000 N    0  0  0  0  0  0  0  0  0  0  0  0
    3.4592   -2.6636    0.0000 C    0  0  0  0  0  0  0  0  0  0  0  0
    4.6007   -0.6803    0.0000 O    0  0  0  0  0  0  0  0  0  0  0  0
    5.7538   -2.6636    0.0000 N    0  0  0  0  0  0  0  0  0  0  0  0
    2.3061   -2.0063    0.0000 C    0  0  0  0  0  0  0  0  0  0  0  0
    3.4592   -4.0011    0.0000 C    0  0  0  0  0  0  0  0  0  0  0  0
    1.1531   -4.0011    0.0000 C    0  0  0  0  0  0  0  0  0  0  0  0
    0.0000   -4.6699    0.0000 N    0  0  0  0  0  0  0  0  0  0  0  0
    1.1531   -2.6636    0.0000 C    0  0  0  0  0  0  0  0  0  0  0  0
    2.3061   -4.6699    0.0000 C    0  0  0  0  0  0  0  0  0  0  0  0
    6.9069   -2.0063    0.0000 C    0  0  0  0  0  0  0  0  0  0  0  0
    8.0715   -2.6636    0.0000 C    0  0  0  0  0  0  0  0  0  0  0  0
    9.2245   -0.6803    0.0000 C    0  0  0  0  0  0  0  0  0  0  0  0
    6.9761   -3.8512    0.0000 Cl   0  0  0  0  0  0  0  0  0  0  0  0
  1 17  1  0  0  0  0
  2  3  1  0  0  0  0
  3  5  1  0  0  0  0
  4  6  1  0  0  0  0
  4  7  2  0  0  0  0
  4  8  1  0  0  0  0
  5 16  1  0  0  0  0
  5 17  1  0  0  0  0
  6  9  1  0  0  0  0
  6 10  2  0  0  0  0
  8 15  1  0  0  0  0
  9 13  2  0  0  0  0
 10 14  1  0  0  0  0
 11 14  2  0  0  0  0
 11 12  1  0  0  0  0
 11 13  1  0  0  0  0
 15 16  1  0  0  0  0
M  END
> <ID>
14286

> <Formula>
C13H22ClN3O

> <FW>
271.7863 (235.3253+36.4609)

> <DSSTox_CID>
29382

> <DSSTox_RID>
83497

> <DSSTox_GSID>
49422

> <DSSTox_FileID_Sort>
8172

> <TS_ChemName>
Procainamide hydrochloride

> <TS_ChemName_Synonyms>


> <TS_CASRN>
614-39-1

> <CASRN_ChemName_Relationship>
primary

> <TS_Description>
single chemical compound

> <ChemNote>


> <STRUCTURE_Shown>
tested chemical

> <STRUCTURE_Formula>
C13H22ClN3O

> <STRUCTURE_MW>
271.7863

> <STRUCTURE_ChemType>
defined organic

> <STRUCTURE_DefinedOrganicForm>
complex

> <STRUCTURE_IUPAC>
4-amino-N-[2-(diethylamino)ethyl]benzamide hydrochloride (1:1)

> <STRUCTURE_SMILES>
Cl.O=C(NCCN(CC)CC)c1ccc(N)cc1

> <STRUCTURE_SMILES_Desalt>
O=C(NCCN(CC)CC)c1ccc(N)cc1

> <Substance_modify_yyyymmdd>
20111204

$$$$
