614-18-6
ChemmineR-0915142007XD

 11 11  0  0  0  0  0  0  0  0  1 V2000
    0.0000   -1.9909    0.0000 C   0  0  0  0  0  0  0  0  0  0  0  0
    1.1545   -1.3342    0.0000 C   0  0  0  0  0  0  0  0  0  0  0  0
    2.3089   -1.9909    0.0000 O   0  0  0  0  0  0  0  0  0  0  0  0
    3.4496   -1.3342    0.0000 C   0  0  0  0  0  0  0  0  0  0  0  0
    3.4496    0.0000    0.0000 O   0  0  0  0  0  0  0  0  0  0  0  0
    4.6041   -1.9909    0.0000 C   0  0  0  0  0  0  0  0  0  0  0  0
    5.7585   -1.3342    0.0000 C   0  0  0  0  0  0  0  0  0  0  0  0
    6.9130   -1.9909    0.0000 N   0  0  0  0  0  0  0  0  0  0  0  0
    6.9130   -3.3252    0.0000 C   0  0  0  0  0  0  0  0  0  0  0  0
    5.7585   -3.9957    0.0000 C   0  0  0  0  0  0  0  0  0  0  0  0
    4.6041   -3.3252    0.0000 C   0  0  0  0  0  0  0  0  0  0  0  0
  1  2  1  0  0  0  0
  2  3  1  0  0  0  0
  3  4  1  0  0  0  0
  4  5  2  0  0  0  0
  4  6  1  0  0  0  0
  6  7  2  0  0  0  0
  6 11  1  0  0  0  0
  7  8  1  0  0  0  0
  8  9  2  0  0  0  0
  9 10  1  0  0  0  0
 10 11  2  0  0  0  0
M  END
> <ID>
11757

> <Formula>
C8H9NO2

> <FW>
151.1626

> <DSSTox_CID>
26526

> <DSSTox_RID>
81691

> <DSSTox_GSID>
46526

> <DSSTox_FileID_Sort>
6372

> <TS_ChemName>
Ethyl nicotinate

> <TS_ChemName_Synonyms>


> <TS_CASRN>
614-18-6

> <CASRN_ChemName_Relationship>
primary

> <TS_Description>
single chemical compound

> <ChemNote>


> <STRUCTURE_Shown>
tested chemical

> <STRUCTURE_Formula>
C8H9NO2

> <STRUCTURE_MW>
151.1626

> <STRUCTURE_ChemType>
defined organic

> <STRUCTURE_DefinedOrganicForm>
parent

> <STRUCTURE_IUPAC>
ethyl pyridine-3-carboxylate

> <STRUCTURE_SMILES>
O=C(OCC)c1cccnc1

> <STRUCTURE_SMILES_Desalt>
O=C(OCC)c1cccnc1

> <Substance_modify_yyyymmdd>
20110811

$$$$
