61413-54-5
ChemmineR-0915142007XD

 20 22  0  0  0  0  0  0  0  0  1 V2000
    4.3430   -2.3954    0.0000 C   0  0  0  0  0  0  0  0  0  0  0  0
    9.0890    0.0000    0.0000 N   0  0  0  0  0  0  0  0  0  0  0  0
    9.8389   -1.0746    0.0000 C   0  0  0  0  0  0  0  0  0  0  0  0
    6.6488   -2.4066    0.0000 C   0  0  0  0  0  0  0  0  0  0  0  0
    5.5071   -1.7350    0.0000 C   0  0  0  0  0  0  0  0  0  0  0  0
    7.8129   -1.7574    0.0000 C   0  0  0  0  0  0  0  0  0  0  0  0
    3.1901   -1.7350    0.0000 O   0  0  0  0  0  0  0  0  0  0  0  0
    9.0890   -2.1603    0.0000 C   0  0  0  0  0  0  0  0  0  0  0  0
    4.3430   -3.7274    0.0000 C   0  0  0  0  0  0  0  0  0  0  0  0
    7.8129   -0.4142    0.0000 C   0  0  0  0  0  0  0  0  0  0  0  0
   11.1933   -1.0746    0.0000 O   0  0  0  0  0  0  0  0  0  0  0  0
    6.6488   -3.7162    0.0000 C   0  0  0  0  0  0  0  0  0  0  0  0
    5.5071   -4.3878    0.0000 C   0  0  0  0  0  0  0  0  0  0  0  0
    2.0372   -2.4066    0.0000 C   0  0  0  0  0  0  0  0  0  0  0  0
    3.1901   -4.3878    0.0000 O   0  0  0  0  0  0  0  0  0  0  0  0
    3.1901   -5.7310    0.0000 C   0  0  0  0  0  0  0  0  0  0  0  0
    2.0372   -3.7162    0.0000 C   0  0  0  0  0  0  0  0  0  0  0  0
    0.7611   -2.0036    0.0000 C   0  0  0  0  0  0  0  0  0  0  0  0
    0.0000   -3.0894    0.0000 C   0  0  0  0  0  0  0  0  0  0  0  0
    0.7611   -4.1415    0.0000 C   0  0  0  0  0  0  0  0  0  0  0  0
  1  5  2  0  0  0  0
  1  7  1  0  0  0  0
  1  9  1  0  0  0  0
  2 10  1  0  0  0  0
  2  3  1  0  0  0  0
  3  8  1  0  0  0  0
  3 11  2  0  0  0  0
  4  5  1  0  0  0  0
  4  6  1  0  0  0  0
  4 12  2  0  0  0  0
  6  8  1  0  0  0  0
  6 10  1  0  0  0  0
  7 14  1  0  0  0  0
  9 13  2  0  0  0  0
  9 15  1  0  0  0  0
 12 13  1  0  0  0  0
 14 17  1  0  0  0  0
 14 18  1  0  0  0  0
 15 16  1  0  0  0  0
 17 20  1  0  0  0  0
 18 19  1  0  0  0  0
 19 20  1  0  0  0  0
M  END
> <ID>
9861

> <Formula>
C16H21NO3

> <FW>
275.3428

> <DSSTox_CID>
24124

> <DSSTox_RID>
80104

> <DSSTox_GSID>
44124

> <DSSTox_FileID_Sort>
4786

> <TS_ChemName>
Rolipram

> <TS_ChemName_Synonyms>


> <TS_CASRN>
61413-54-5

> <CASRN_ChemName_Relationship>
primary

> <TS_Description>
single chemical compound

> <ChemNote>


> <STRUCTURE_Shown>
tested chemical

> <STRUCTURE_Formula>
C16H21NO3

> <STRUCTURE_MW>
275.3428

> <STRUCTURE_ChemType>
defined organic

> <STRUCTURE_DefinedOrganicForm>
parent

> <STRUCTURE_IUPAC>
4-[3-(cyclopentyloxy)-4-methoxyphenyl]pyrrolidin-2-one

> <STRUCTURE_SMILES>
COc2ccc(cc2OC1CCCC1)C3CC(=O)NC3

> <STRUCTURE_SMILES_Desalt>
COc2ccc(cc2OC1CCCC1)C3CC(=O)NC3

> <Substance_modify_yyyymmdd>
20090220

$$$$
