61422-45-5
ChemmineR-0915142007XD

 18 18  0  0  0  0  0  0  0  0  1 V2000
    0.0000   -1.9995    0.0000 C   0  0  0  0  0  0  0  0  0  0  0  0
    1.1516   -1.3288    0.0000 C   0  0  0  0  0  0  0  0  0  0  0  0
    2.3032   -1.9995    0.0000 C   0  0  0  0  0  0  0  0  0  0  0  0
    3.4548   -1.3288    0.0000 C   0  0  0  0  0  0  0  0  0  0  0  0
    4.6063   -1.9995    0.0000 C   0  0  0  0  0  0  0  0  0  0  0  0
    5.7579   -1.3288    0.0000 C   0  0  0  0  0  0  0  0  0  0  0  0
    6.8969   -1.9995    0.0000 N   0  0  0  0  0  0  0  0  0  0  0  0
    8.0484   -1.3288    0.0000 C   0  0  0  0  0  0  0  0  0  0  0  0
    8.0484    0.0000    0.0000 O   0  0  0  0  0  0  0  0  0  0  0  0
    9.2000   -1.9995    0.0000 N   0  0  0  0  0  0  0  0  0  0  0  0
   10.3516   -1.3288    0.0000 C   0  0  0  0  0  0  0  0  0  0  0  0
   11.5032   -1.9995    0.0000 C   0  0  0  0  0  0  0  0  0  0  0  0
   12.6548   -1.3288    0.0000 F   0  0  0  0  0  0  0  0  0  0  0  0
   11.5032   -3.3282    0.0000 C   0  0  0  0  0  0  0  0  0  0  0  0
   12.6548   -3.9863    0.0000 O   0  0  0  0  0  0  0  0  0  0  0  0
   10.3516   -3.9863    0.0000 N   0  0  0  0  0  0  0  0  0  0  0  0
    9.2000   -3.3282    0.0000 C   0  0  0  0  0  0  0  0  0  0  0  0
    8.0484   -3.9863    0.0000 O   0  0  0  0  0  0  0  0  0  0  0  0
  1  2  1  0  0  0  0
  2  3  1  0  0  0  0
  3  4  1  0  0  0  0
  4  5  1  0  0  0  0
  5  6  1  0  0  0  0
  6  7  1  0  0  0  0
  7  8  1  0  0  0  0
  8  9  2  0  0  0  0
  8 10  1  0  0  0  0
 10 11  1  0  0  0  0
 10 17  1  0  0  0  0
 11 12  2  0  0  0  0
 12 13  1  0  0  0  0
 12 14  1  0  0  0  0
 14 15  2  0  0  0  0
 14 16  1  0  0  0  0
 16 17  1  0  0  0  0
 17 18  2  0  0  0  0
M  END
> <ID>
11307

> <Formula>
C11H16FN3O3

> <FW>
257.2614

> <DSSTox_CID>
25941

> <DSSTox_RID>
81239

> <DSSTox_GSID>
45941

> <DSSTox_FileID_Sort>
5920

> <TS_ChemName>
Carmofur

> <TS_ChemName_Synonyms>


> <TS_CASRN>
61422-45-5

> <CASRN_ChemName_Relationship>
primary

> <TS_Description>
single chemical compound

> <ChemNote>


> <STRUCTURE_Shown>
tested chemical

> <STRUCTURE_Formula>
C11H16FN3O3

> <STRUCTURE_MW>
257.2614

> <STRUCTURE_ChemType>
defined organic

> <STRUCTURE_DefinedOrganicForm>
parent

> <STRUCTURE_IUPAC>
5-fluoro-N-hexyl-2,4-dioxo-3,4-dihydropyrimidine-1(2H)-carboxamide

> <STRUCTURE_SMILES>
O=C1NC(=O)C(F)=CN1C(=O)NCCCCCC

> <STRUCTURE_SMILES_Desalt>
O=C1NC(=O)C(F)=CN1C(=O)NCCCCCC

> <Substance_modify_yyyymmdd>
20110930

$$$$
