6145-73-9
ChemmineR-0915142007XD

 17 16  0  0  0  0  0  0  0  0  1 V2000
    3.9856   -3.9856    0.0000 P    0  0  0  0  0  0  0  0  0  0  0  0
    5.3168   -3.9856    0.0000 O    0  0  0  0  0  0  0  0  0  0  0  0
    3.9856   -5.3168    0.0000 O    0  0  0  0  0  0  0  0  0  0  0  0
    3.9856   -2.6544    0.0000 O    0  0  0  0  0  0  0  0  0  0  0  0
    2.6544   -3.9856    0.0000 O    0  0  0  0  0  0  0  0  0  0  0  0
    2.8298   -5.9864    0.0000 C    0  0  0  0  0  0  0  0  0  0  0  0
    2.8298   -7.3176    0.0000 C    0  0  0  0  0  0  0  0  0  0  0  0
    3.9856   -7.9713    0.0000 C    0  0  0  0  0  0  0  0  0  0  0  0
    1.6819   -7.9713    0.0000 Cl   0  0  0  0  0  0  0  0  0  0  0  0
    5.1415   -1.9848    0.0000 C    0  0  0  0  0  0  0  0  0  0  0  0
    5.1415   -0.6536    0.0000 C    0  0  0  0  0  0  0  0  0  0  0  0
    3.9856    0.0000    0.0000 C    0  0  0  0  0  0  0  0  0  0  0  0
    6.2893    0.0000    0.0000 Cl   0  0  0  0  0  0  0  0  0  0  0  0
    2.0008   -2.8298    0.0000 C    0  0  0  0  0  0  0  0  0  0  0  0
    0.6696   -2.8298    0.0000 C    0  0  0  0  0  0  0  0  0  0  0  0
    0.0000   -3.9856    0.0000 C    0  0  0  0  0  0  0  0  0  0  0  0
    0.0000   -1.6819    0.0000 Cl   0  0  0  0  0  0  0  0  0  0  0  0
  1  2  2  0  0  0  0
  1  3  1  0  0  0  0
  1  4  1  0  0  0  0
  1  5  1  0  0  0  0
  3  6  1  0  0  0  0
  4 10  1  0  0  0  0
  5 14  1  0  0  0  0
  6  7  1  0  0  0  0
  7  8  1  0  0  0  0
  7  9  1  0  0  0  0
 10 11  1  0  0  0  0
 11 12  1  0  0  0  0
 11 13  1  0  0  0  0
 14 15  1  0  0  0  0
 15 16  1  0  0  0  0
 15 17  1  0  0  0  0
M  END
> <ID>
5294

> <Formula>
C9H18Cl3O4P

> <FW>
327.5696

> <DSSTox_CID>
7615

> <DSSTox_RID>
78529

> <DSSTox_GSID>
27615

> <DSSTox_FileID_Sort>
3212

> <TS_ChemName>
Tris(2-chloropropyl) phosphate

> <TS_ChemName_Synonyms>
1-Propanol, 2-chloro-, phosphate (3:1)

> <TS_CASRN>
6145-73-9

> <CASRN_ChemName_Relationship>
primary

> <TS_Description>
single chemical compound

> <ChemNote>


> <STRUCTURE_Shown>
tested chemical

> <STRUCTURE_Formula>
C9H18Cl3O4P

> <STRUCTURE_MW>
327.5696

> <STRUCTURE_ChemType>
defined organic

> <STRUCTURE_DefinedOrganicForm>
parent

> <STRUCTURE_IUPAC>
tris(2-chloropropyl) phosphate

> <STRUCTURE_SMILES>
ClC(C)COP(=O)(OCC(Cl)C)OCC(C)Cl

> <STRUCTURE_SMILES_Desalt>
ClC(C)COP(=O)(OCC(Cl)C)OCC(C)Cl

> <Substance_modify_yyyymmdd>
20080429

$$$$
