6151-25-3
ChemmineR-0915142007XD

 24 24  0  0  0  0  0  0  0  0  1 V2000
    4.6016    0.0000    0.0000 O   0  0  0  0  0  0  0  0  0  0  0  0
    4.6016   -1.3369    0.0000 C   0  0  0  0  0  0  0  0  0  0  0  0
    3.4512   -2.0002    0.0000 C   0  0  0  0  0  0  0  0  0  0  0  0
    3.4512   -3.3268    0.0000 C   0  0  0  0  0  0  0  0  0  0  0  0
    2.3008   -3.9901    0.0000 C   0  0  0  0  0  0  0  0  0  0  0  0
    1.1504   -3.3268    0.0000 C   0  0  0  0  0  0  0  0  0  0  0  0
    1.1504   -2.0002    0.0000 C   0  0  0  0  0  0  0  0  0  0  0  0
    2.3008   -1.3369    0.0000 C   0  0  0  0  0  0  0  0  0  0  0  0
    2.3008    0.0000    0.0000 O   0  0  0  0  0  0  0  0  0  0  0  0
    0.0000   -3.9901    0.0000 O   0  0  0  0  0  0  0  0  0  0  0  0
    4.6016   -3.9901    0.0000 O   0  0  0  0  0  0  0  0  0  0  0  0
    5.7623   -3.3268    0.0000 C   0  0  0  0  0  0  0  0  0  0  0  0
    5.7623   -2.0002    0.0000 C   0  0  0  0  0  0  0  0  0  0  0  0
    6.9127   -1.3369    0.0000 O   0  0  0  0  0  0  0  0  0  0  0  0
    6.9127   -3.9901    0.0000 C   0  0  0  0  0  0  0  0  0  0  0  0
    8.0631   -3.3268    0.0000 C   0  0  0  0  0  0  0  0  0  0  0  0
    9.2135   -3.9901    0.0000 C   0  0  0  0  0  0  0  0  0  0  0  0
    9.2135   -5.3270    0.0000 C   0  0  0  0  0  0  0  0  0  0  0  0
    8.0631   -5.9903    0.0000 C   0  0  0  0  0  0  0  0  0  0  0  0
    6.9127   -5.3270    0.0000 C   0  0  0  0  0  0  0  0  0  0  0  0
   10.3639   -5.9903    0.0000 O   0  0  0  0  0  0  0  0  0  0  0  0
   10.3639   -3.3268    0.0000 O   0  0  0  0  0  0  0  0  0  0  0  0
    5.1819   -7.3169    0.0000 O   0  0  0  0  0  0  0  0  0  0  0  0
    3.8554   -7.3169    0.0000 O   0  0  0  0  0  0  0  0  0  0  0  0
  1  2  2  0  0  0  0
  2  3  1  0  0  0  0
  2 13  1  0  0  0  0
  3  4  2  0  0  0  0
  3  8  1  0  0  0  0
  4  5  1  0  0  0  0
  4 11  1  0  0  0  0
  5  6  2  0  0  0  0
  6  7  1  0  0  0  0
  6 10  1  0  0  0  0
  7  8  2  0  0  0  0
  8  9  1  0  0  0  0
 11 12  1  0  0  0  0
 12 13  2  0  0  0  0
 12 15  1  0  0  0  0
 13 14  1  0  0  0  0
 15 16  2  0  0  0  0
 15 20  1  0  0  0  0
 16 17  1  0  0  0  0
 17 18  2  0  0  0  0
 17 22  1  0  0  0  0
 18 19  1  0  0  0  0
 18 21  1  0  0  0  0
 19 20  2  0  0  0  0
M  END
> <ID>
1173

> <Formula>
C15H14O9

> <FW>
338.2663 (302.2357+18.0153+18.0153)

> <DSSTox_CID>
1219

> <DSSTox_RID>
76018

> <DSSTox_GSID>
21219

> <DSSTox_FileID_Sort>
702

> <TS_ChemName>
Quercetin dihydrate

> <TS_ChemName_Synonyms>


> <TS_CASRN>
6151-25-3

> <CASRN_ChemName_Relationship>
primary

> <TS_Description>
single chemical compound

> <ChemNote>
parent [117-39-5]

> <STRUCTURE_Shown>
tested chemical

> <STRUCTURE_Formula>
C15H14O9

> <STRUCTURE_MW>
338.2663

> <STRUCTURE_ChemType>
defined organic

> <STRUCTURE_DefinedOrganicForm>
complex

> <STRUCTURE_IUPAC>
2-(3,4-dihydroxyphenyl)-3,5,7-trihydroxy-4H-chromen-4-one dihydrate

> <STRUCTURE_SMILES>
O.O.Oc1ccc(cc1O)C=3Oc2cc(O)cc(O)c2C(=O)C=3O

> <STRUCTURE_SMILES_Desalt>
Oc1ccc(cc1O)C=3Oc2cc(O)cc(O)c2C(=O)C=3O

> <Substance_modify_yyyymmdd>
20080429

$$$$
