6151-30-0
ChemmineR-0915142007XD

 32 30  0  0  0  0  0  0  0  0  1 V2000
    6.9105   -3.9742    0.0000 C    0  0  0  0  0  0  0  0  0  0  0  0
    8.0496   -4.6450    0.0000 C    0  0  0  0  0  0  0  0  0  0  0  0
    5.7461   -4.6450    0.0000 C    0  0  0  0  0  0  0  0  0  0  0  0
    6.9105   -6.6320    0.0000 N    0  0  0  0  0  0  0  0  0  0  0  0
    5.7461   -5.9739    0.0000 C    0  0  0  0  0  0  0  0  0  0  0  0
    8.0496   -5.9739    0.0000 C    0  0  0  0  0  0  0  0  0  0  0  0
    6.9105   -2.6705    0.0000 N    0  0  0  0  0  0  0  0  0  0  0  0
    4.6070   -6.6320    0.0000 C    0  0  0  0  0  0  0  0  0  0  0  0
    4.6070   -3.9742    0.0000 C    0  0  0  0  0  0  0  0  0  0  0  0
    9.2140   -3.9742    0.0000 C    0  0  0  0  0  0  0  0  0  0  0  0
    9.2140   -6.6320    0.0000 C    0  0  0  0  0  0  0  0  0  0  0  0
    3.4426   -5.9739    0.0000 C    0  0  0  0  0  0  0  0  0  0  0  0
   10.3404   -4.6450    0.0000 C    0  0  0  0  0  0  0  0  0  0  0  0
    3.4426   -4.6450    0.0000 C    0  0  0  0  0  0  0  0  0  0  0  0
    1.1391   -1.9871    0.0000 N    0  0  0  0  0  0  0  0  0  0  0  0
   10.3404   -5.9739    0.0000 C    0  0  0  0  0  0  0  0  0  0  0  0
    2.3035   -6.6320    0.0000 Cl   0  0  0  0  0  0  0  0  0  0  0  0
    5.7461   -1.9871    0.0000 C    0  0  0  0  0  0  0  0  0  0  0  0
   11.5048   -3.9742    0.0000 O    0  0  0  0  0  0  0  0  0  0  0  0
    3.4426   -1.9871    0.0000 C    0  0  0  0  0  0  0  0  0  0  0  0
    2.3035   -2.6705    0.0000 C    0  0  0  0  0  0  0  0  0  0  0  0
    1.1391   -0.6455    0.0000 C    0  0  0  0  0  0  0  0  0  0  0  0
    0.0000   -2.6705    0.0000 C    0  0  0  0  0  0  0  0  0  0  0  0
    4.6070   -2.6705    0.0000 C    0  0  0  0  0  0  0  0  0  0  0  0
   12.6565   -4.6450    0.0000 C    0  0  0  0  0  0  0  0  0  0  0  0
    5.7461   -0.6455    0.0000 C    0  0  0  0  0  0  0  0  0  0  0  0
    2.3035    0.0000    0.0000 C    0  0  0  0  0  0  0  0  0  0  0  0
    0.0000   -3.9742    0.0000 C    0  0  0  0  0  0  0  0  0  0  0  0
    9.6443   -2.0630    0.0000 Cl   0  0  0  0  0  0  0  0  0  0  0  0
    4.2273   -8.1382    0.0000 O    0  0  0  0  0  0  0  0  0  0  0  0
    7.0624   -8.0749    0.0000 O    0  0  0  0  0  0  0  0  0  0  0  0
    8.4799   -0.4177    0.0000 Cl   0  0  0  0  0  0  0  0  0  0  0  0
  1  2  2  0  0  0  0
  1  3  1  0  0  0  0
  1  7  1  0  0  0  0
  2  6  1  0  0  0  0
  2 10  1  0  0  0  0
  3  5  2  0  0  0  0
  3  9  1  0  0  0  0
  4  5  1  0  0  0  0
  4  6  2  0  0  0  0
  5  8  1  0  0  0  0
  6 11  1  0  0  0  0
  7 18  1  0  0  0  0
  8 12  2  0  0  0  0
  9 14  2  0  0  0  0
 10 13  2  0  0  0  0
 11 16  2  0  0  0  0
 12 14  1  0  0  0  0
 12 17  1  0  0  0  0
 13 16  1  0  0  0  0
 13 19  1  0  0  0  0
 15 21  1  0  0  0  0
 15 22  1  0  0  0  0
 15 23  1  0  0  0  0
 18 24  1  0  0  0  0
 18 26  1  0  0  0  0
 19 25  1  0  0  0  0
 20 24  1  0  0  0  0
 20 21  1  0  0  0  0
 22 27  1  0  0  0  0
 23 28  1  0  0  0  0
M  END
> <ID>
11030

> <Formula>
C23H36Cl3N3O3

> <FW>
508.9092 (399.9568+36.4609+18.0153+18.0153+36.4609)

> <DSSTox_CID>
25565

> <DSSTox_RID>
80962

> <DSSTox_GSID>
45565

> <DSSTox_FileID_Sort>
5643

> <TS_ChemName>
Quinacrine dihydrochloride dihydrate

> <TS_ChemName_Synonyms>


> <TS_CASRN>
6151-30-0

> <CASRN_ChemName_Relationship>
primary

> <TS_Description>
single chemical compound

> <ChemNote>
parent [83-89-6

> <STRUCTURE_Shown>
tested chemical

> <STRUCTURE_Formula>
C23H36Cl3N3O3

> <STRUCTURE_MW>
508.9092

> <STRUCTURE_ChemType>
defined organic

> <STRUCTURE_DefinedOrganicForm>
complex

> <STRUCTURE_IUPAC>
N~4~-(6-chloro-2-methoxyacridin-9-yl)-N~1~,N~1~-diethylpentane-1,4-diamine dihydrochloride dihydrate

> <STRUCTURE_SMILES>
Cl.Cl.O.O.CCN(CC)CCCC(C)Nc1c3cc(OC)ccc3nc2cc(Cl)ccc12

> <STRUCTURE_SMILES_Desalt>
CCN(CC)CCCC(C)Nc1c3cc(OC)ccc3nc2cc(Cl)ccc12

> <Substance_modify_yyyymmdd>
20100107

$$$$
