6153-33-9
ChemmineR-0915142007XD

 60 67  0  0  0  0  0  0  0  0  1 V2000
    3.3309   -2.7036    0.0000 N   0  0  0  0  0  0  0  0  0  0  0  0
    4.4556   -0.8003    0.0000 C   0  0  0  0  0  0  0  0  0  0  0  0
    4.4556   -2.0548    0.0000 C   0  0  0  0  0  0  0  0  0  0  0  0
    2.2278   -2.0548    0.0000 C   0  0  0  0  0  0  0  0  0  0  0  0
    2.2278   -0.8003    0.0000 C   0  0  0  0  0  0  0  0  0  0  0  0
    5.5803   -2.7036    0.0000 C   0  0  0  0  0  0  0  0  0  0  0  0
    5.5803   -0.1514    0.0000 C   0  0  0  0  0  0  0  0  0  0  0  0
    6.6834   -0.8003    0.0000 N   0  0  0  0  0  0  0  0  0  0  0  0
    3.3309   -4.0230    0.0000 C   0  0  0  0  0  0  0  0  0  0  0  0
    6.6834   -2.0548    0.0000 C   0  0  0  0  0  0  0  0  0  0  0  0
    4.4772   -4.6502    0.0000 C   0  0  0  0  0  0  0  0  0  0  0  0
    1.1247   -2.7036    0.0000 C   0  0  0  0  0  0  0  0  0  0  0  0
    1.1247   -0.1514    0.0000 C   0  0  0  0  0  0  0  0  0  0  0  0
    7.9162   -0.1298    0.0000 C   0  0  0  0  0  0  0  0  0  0  0  0
    5.6452   -4.0014    0.0000 C   0  0  0  0  0  0  0  0  0  0  0  0
    4.4772   -6.0345    0.0000 C   0  0  0  0  0  0  0  0  0  0  0  0
    0.0000   -2.0548    0.0000 C   0  0  0  0  0  0  0  0  0  0  0  0
    0.0000   -0.8003    0.0000 C   0  0  0  0  0  0  0  0  0  0  0  0
    6.7915   -4.6502    0.0000 C   0  0  0  0  0  0  0  0  0  0  0  0
    5.6452   -6.7050    0.0000 C   0  0  0  0  0  0  0  0  0  0  0  0
    6.7915   -6.0345    0.0000 C   0  0  0  0  0  0  0  0  0  0  0  0
    8.0027   -6.9213    0.0000 O   0  0  0  0  0  0  0  0  0  0  0  0
    9.1274   -6.2508    0.0000 S   0  0  0  0  0  0  0  0  0  0  0  0
    8.4786   -5.1477    0.0000 O   0  0  0  0  0  0  0  0  0  0  0  0
    9.7763   -7.3971    0.0000 O   0  0  0  0  0  0  0  0  0  0  0  0
   10.2521   -5.6452    0.0000 C   0  0  0  0  0  0  0  0  0  0  0  0
   10.2521   -4.3258    0.0000 C   0  0  0  0  0  0  0  0  0  0  0  0
   11.3552   -3.6769    0.0000 C   0  0  0  0  0  0  0  0  0  0  0  0
   12.4799   -4.3258    0.0000 C   0  0  0  0  0  0  0  0  0  0  0  0
   12.4799   -5.6452    0.0000 C   0  0  0  0  0  0  0  0  0  0  0  0
   13.6046   -6.2508    0.0000 C   0  0  0  0  0  0  0  0  0  0  0  0
   13.6046   -7.5701    0.0000 C   0  0  0  0  0  0  0  0  0  0  0  0
   12.4799   -8.2190    0.0000 C   0  0  0  0  0  0  0  0  0  0  0  0
   11.3552   -7.5701    0.0000 C   0  0  0  0  0  0  0  0  0  0  0  0
   11.3552   -6.2508    0.0000 C   0  0  0  0  0  0  0  0  0  0  0  0
   14.7293   -5.6452    0.0000 S   0  0  0  0  0  0  0  0  0  0  0  0
   14.0805   -4.4988    0.0000 O   0  0  0  0  0  0  0  0  0  0  0  0
   15.8541   -4.9963    0.0000 O   0  0  0  0  0  0  0  0  0  0  0  0
   15.3566   -6.7482    0.0000 O   0  0  0  0  0  0  0  0  0  0  0  0
   17.0436   -2.5738    0.0000 N   0  0  0  0  0  0  0  0  0  0  0  0
   18.1684   -0.6489    0.0000 C   0  0  0  0  0  0  0  0  0  0  0  0
   18.1684   -1.9034    0.0000 C   0  0  0  0  0  0  0  0  0  0  0  0
   15.9189   -1.9034    0.0000 C   0  0  0  0  0  0  0  0  0  0  0  0
   15.9189   -0.6489    0.0000 C   0  0  0  0  0  0  0  0  0  0  0  0
   19.2931   -2.5738    0.0000 C   0  0  0  0  0  0  0  0  0  0  0  0
   19.2931   -0.0216    0.0000 C   0  0  0  0  0  0  0  0  0  0  0  0
   20.3961   -0.6489    0.0000 N   0  0  0  0  0  0  0  0  0  0  0  0
   17.0436   -3.8932    0.0000 C   0  0  0  0  0  0  0  0  0  0  0  0
   20.3961   -1.9034    0.0000 C   0  0  0  0  0  0  0  0  0  0  0  0
   18.1900   -4.5205    0.0000 C   0  0  0  0  0  0  0  0  0  0  0  0
   14.8159   -2.5738    0.0000 C   0  0  0  0  0  0  0  0  0  0  0  0
   14.8159   -0.0216    0.0000 C   0  0  0  0  0  0  0  0  0  0  0  0
   21.6290    0.0000    0.0000 C   0  0  0  0  0  0  0  0  0  0  0  0
   19.3363   -3.8716    0.0000 C   0  0  0  0  0  0  0  0  0  0  0  0
   18.1900   -5.8831    0.0000 C   0  0  0  0  0  0  0  0  0  0  0  0
   13.7128   -1.9034    0.0000 C   0  0  0  0  0  0  0  0  0  0  0  0
   13.7128   -0.6489    0.0000 C   0  0  0  0  0  0  0  0  0  0  0  0
   20.5043   -4.5205    0.0000 C   0  0  0  0  0  0  0  0  0  0  0  0
   19.3363   -6.5536    0.0000 C   0  0  0  0  0  0  0  0  0  0  0  0
   20.5043   -5.8831    0.0000 C   0  0  0  0  0  0  0  0  0  0  0  0
  1  3  1  0  0  0  0
  1  4  1  0  0  0  0
  1  9  1  0  0  0  0
  2  3  2  0  0  0  0
  2  7  1  0  0  0  0
  2  5  1  0  0  0  0
  3  6  1  0  0  0  0
  4  5  2  0  0  0  0
  4 12  1  0  0  0  0
  5 13  1  0  0  0  0
  6 10  1  0  0  0  0
  7  8  1  0  0  0  0
  8 10  1  0  0  0  0
  8 14  1  0  0  0  0
  9 11  1  0  0  0  0
 11 15  2  0  0  0  0
 11 16  1  0  0  0  0
 12 17  2  0  0  0  0
 13 18  2  0  0  0  0
 15 19  1  0  0  0  0
 16 20  2  0  0  0  0
 17 18  1  0  0  0  0
 19 21  2  0  0  0  0
 20 21  1  0  0  0  0
 22 23  1  0  0  0  0
 23 24  2  0  0  0  0
 23 25  2  0  0  0  0
 23 26  1  0  0  0  0
 26 27  2  0  0  0  0
 26 35  1  0  0  0  0
 27 28  1  0  0  0  0
 28 29  2  0  0  0  0
 29 30  1  0  0  0  0
 30 31  2  0  0  0  0
 30 35  1  0  0  0  0
 31 32  1  0  0  0  0
 31 36  1  0  0  0  0
 32 33  2  0  0  0  0
 33 34  1  0  0  0  0
 34 35  2  0  0  0  0
 36 37  1  0  0  0  0
 36 38  2  0  0  0  0
 36 39  2  0  0  0  0
 40 42  1  0  0  0  0
 40 43  1  0  0  0  0
 40 48  1  0  0  0  0
 41 42  2  0  0  0  0
 41 46  1  0  0  0  0
 41 44  1  0  0  0  0
 42 45  1  0  0  0  0
 43 44  2  0  0  0  0
 43 51  1  0  0  0  0
 44 52  1  0  0  0  0
 45 49  1  0  0  0  0
 46 47  1  0  0  0  0
 47 49  1  0  0  0  0
 47 53  1  0  0  0  0
 48 50  1  0  0  0  0
 50 54  2  0  0  0  0
 50 55  1  0  0  0  0
 51 56  2  0  0  0  0
 52 57  2  0  0  0  0
 54 58  1  0  0  0  0
 55 59  2  0  0  0  0
 56 57  1  0  0  0  0
 58 60  2  0  0  0  0
 59 60  1  0  0  0  0
M  END
> <ID>
11031

> <Formula>
C48H48N4O6S2

> <FW>
841.0479 (276.3755+288.2969+276.3755)

> <DSSTox_CID>
25566

> <DSSTox_RID>
80963

> <DSSTox_GSID>
45566

> <DSSTox_FileID_Sort>
5644

> <TS_ChemName>
Mebhydrolin 1,5-naphtalenedisulfonate

> <TS_ChemName_Synonyms>


> <TS_CASRN>
6153-33-9

> <CASRN_ChemName_Relationship>
primary

> <TS_Description>
single chemical compound

> <ChemNote>
parent [524-81-2]

> <STRUCTURE_Shown>
tested chemical

> <STRUCTURE_Formula>
C48H48N4O6S2

> <STRUCTURE_MW>
841.0479

> <STRUCTURE_ChemType>
defined organic

> <STRUCTURE_DefinedOrganicForm>
complex

> <STRUCTURE_IUPAC>
naphthalene-1,5-disulfonic acid - 5-benzyl-2-methyl-2,3,4,5-tetrahydro-1H-pyrido[4,3-b]indole (1:2)

> <STRUCTURE_SMILES>
O=S(=O)(O)c2cccc1c2cccc1S(=O)(=O)O.CN3Cc4c1ccccc1n(Cc2ccccc2)c4CC3.CN3Cc4c1ccccc1n(Cc2ccccc2)c4CC3

> <STRUCTURE_SMILES_Desalt>
CN3Cc4c1ccccc1n(Cc2ccccc2)c4CC3

> <Substance_modify_yyyymmdd>
20100107

$$$$
