6153-64-6
ChemmineR-0915142007XD

 37 38  0  0  1  0  0  0  0  0  1 V2000
    6.9084   -4.0835    0.0000 C   0  0  0  0  0  0  0  0  0  0  0  0
    4.6105   -4.0835    0.0000 C   0  0  0  0  0  0  0  0  0  0  0  0
    6.9084   -2.7663    0.0000 C   0  0  0  0  0  0  0  0  0  0  0  0
    9.2356   -4.0835    0.0000 C   0  0  0  0  0  0  0  0  0  0  0  0
    5.7667   -4.7422    0.0000 C   0  0  0  0  0  0  0  0  0  0  0  0
    4.6105   -2.7663    0.0000 C   0  0  0  0  0  0  0  0  0  0  0  0
    8.0646   -4.7422    0.0000 C   0  0  0  0  0  0  0  0  0  0  0  0
    9.2356   -2.7663    0.0000 C   0  0  0  0  0  0  0  0  0  0  0  0
    3.4688   -4.7422    0.0000 C   0  0  0  0  0  0  0  0  0  0  0  0
    3.4688   -2.1076    0.0000 C   0  0  0  0  0  0  0  0  0  0  0  0
    8.0646   -2.1076    0.0000 C   0  0  0  0  0  0  0  0  0  0  0  0
    5.7667   -2.1076    0.0000 C   0  0  0  0  0  0  0  0  0  0  0  0
    2.2979   -4.0835    0.0000 C   0  0  0  0  0  0  0  0  0  0  0  0
    2.2979   -2.7663    0.0000 C   0  0  0  0  0  0  0  0  0  0  0  0
   10.3626   -4.7422    0.0000 C   0  0  0  0  0  0  0  0  0  0  0  0
    8.0646   -0.7611    0.0000 N   0  0  0  0  0  0  0  0  0  0  0  0
    8.0646   -6.0741    0.0000 O   0  0  0  0  0  0  0  0  0  0  0  0
    3.4688   -6.0741    0.0000 O   0  0  0  0  0  0  0  0  0  0  0  0
    1.1709   -4.7422    0.0000 C   0  0  0  0  0  0  0  0  0  0  0  0
    6.9084   -5.4301    0.0000 O   0  0  0  0  0  0  0  0  0  0  0  0
   10.3626   -6.0887    0.0000 O   0  0  0  0  0  0  0  0  0  0  0  0
    5.7667   -6.0741    0.0000 O   0  0  0  0  0  0  0  0  0  0  0  0
   10.3772   -2.1076    0.0000 O   0  0  0  0  0  0  0  0  0  0  0  0
    5.7667   -0.7757    0.0000 O   0  0  0  0  0  0  0  0  0  0  0  0
   11.5481   -4.0835    0.0000 N   0  0  0  0  0  0  0  0  0  0  0  0
    1.1709   -2.1076    0.0000 C   0  0  0  0  0  0  0  0  0  0  0  0
    1.1709   -6.0741    0.0000 O   0  0  0  0  0  0  0  0  0  0  0  0
    0.0000   -2.7663    0.0000 C   0  0  0  0  0  0  0  0  0  0  0  0
    0.0000   -4.0835    0.0000 C   0  0  0  0  0  0  0  0  0  0  0  0
    9.2356   -0.1025    0.0000 C   0  0  0  0  0  0  0  0  0  0  0  0
    6.9084   -0.1025    0.0000 C   0  0  0  0  0  0  0  0  0  0  0  0
    6.9084   -1.4197    0.0000 H   0  0  0  0  0  0  0  0  0  0  0  0
    4.6105   -1.4344    0.0000 H   0  0  0  0  0  0  0  0  0  0  0  0
    2.8102   -0.9514    0.0000 O   0  0  0  0  0  0  0  0  0  0  0  0
    4.1421   -0.9660    0.0000 C   0  0  0  0  0  0  0  0  0  0  0  0
   14.1973   -5.9131    0.0000 O   0  0  0  0  0  0  0  0  0  0  0  0
   14.6364    0.0000    0.0000 O   0  0  0  0  0  0  0  0  0  0  0  0
  1  3  1  0  0  0  0
  1  5  1  0  0  0  0
  1  7  1  0  0  0  0
  1 20  1  6  0  0  0
  2  5  2  0  0  0  0
  2  6  1  0  0  0  0
  2  9  1  0  0  0  0
  3 11  1  0  0  0  0
  3 12  1  0  0  0  0
  3 32  1  6  0  0  0
  4  7  1  0  0  0  0
  4  8  2  0  0  0  0
  4 15  1  0  0  0  0
  5 22  1  0  0  0  0
  6 10  1  0  0  0  0
  6 12  1  0  0  0  0
  6 33  1  6  0  0  0
  7 17  2  0  0  0  0
  8 23  1  0  0  0  0
  8 11  1  0  0  0  0
  9 13  1  0  0  0  0
  9 18  2  0  0  0  0
 10 14  1  0  0  0  0
 10 34  1  1  0  0  0
 10 35  1  6  0  0  0
 11 16  1  6  0  0  0
 12 24  1  6  0  0  0
 13 14  2  0  0  0  0
 13 19  1  0  0  0  0
 14 26  1  0  0  0  0
 15 21  2  0  0  0  0
 15 25  1  0  0  0  0
 16 30  1  0  0  0  0
 16 31  1  0  0  0  0
 19 27  1  0  0  0  0
 19 29  2  0  0  0  0
 26 28  2  0  0  0  0
 28 29  1  0  0  0  0
M  END
> <ID>
3059

> <Formula>
C22H28N2O11

> <FW>
496.4645 (460.4340+18.0153+18.0153)

> <DSSTox_CID>
3412

> <DSSTox_RID>
77015

> <DSSTox_GSID>
23412

> <DSSTox_FileID_Sort>
1699

> <TS_ChemName>
Oxytetracycline dihydrate

> <TS_ChemName_Synonyms>


> <TS_CASRN>
6153-64-6

> <CASRN_ChemName_Relationship>
primary

> <TS_Description>
single chemical compound

> <ChemNote>
stereochem; tautomers; parent [79-57-2]

> <STRUCTURE_Shown>
tested chemical

> <STRUCTURE_Formula>
C22H28N2O11

> <STRUCTURE_MW>
496.4645

> <STRUCTURE_ChemType>
defined organic

> <STRUCTURE_DefinedOrganicForm>
complex

> <STRUCTURE_IUPAC>
(4S,4aR,5S,5aR,6S,12aS)-4-(dimethylamino)-3,5,6,10,12,12a-hexahydroxy-6-methyl-1,11-dioxo-1,4,4a,5,5a,6,11,12a-octahydrotetracene-2-carboxamide dihydrate

> <STRUCTURE_SMILES>
O.O.NC(=O)C=3C(=O)[C@@]4(O)C(O)=C2C(=O)c1c(O)cccc1[C@@](C)(O)[C@H]2[C@H](O)[C@H]4[C@@H](C=3O)N(C)C

> <STRUCTURE_SMILES_Desalt>
NC(=O)C=3C(=O)[C@@]4(O)C(O)=C2C(=O)c1c(O)cccc1[C@@](C)(O)[C@H]2[C@H](O)[C@H]4[C@@H](C=3O)N(C)C

> <Substance_modify_yyyymmdd>
20080429

$$$$
