61545-99-1
ChemmineR-0915142007XD

 15 14  0  0  0  0  0  0  0  0  1 V2000
    9.5652   -8.1496    0.0000 C    0  0  0  0  0  0  0  0  0  0  0  0
    0.0000   -1.6643    0.0000 C    0  0  0  0  0  0  0  0  0  0  0  0
    9.2878   -6.8487    0.0000 C    0  0  0  0  0  0  0  0  0  0  0  0
    8.0252   -6.4278    0.0000 C    0  0  0  0  0  0  0  0  0  0  0  0
    7.7478   -5.1365    0.0000 C    0  0  0  0  0  0  0  0  0  0  0  0
    6.4852   -4.7156    0.0000 C    0  0  0  0  0  0  0  0  0  0  0  0
    6.2078   -3.3956    0.0000 C    0  0  0  0  0  0  0  0  0  0  0  0
    4.9548   -2.9843    0.0000 C    0  0  0  0  0  0  0  0  0  0  0  0
    4.6870   -1.6835    0.0000 C    0  0  0  0  0  0  0  0  0  0  0  0
    1.6835    0.0000    0.0000 C    0  0  0  0  0  0  0  0  0  0  0  0
    3.0130    0.0000    0.0000 C    0  0  0  0  0  0  0  0  0  0  0  0
    2.3435   -2.0470    0.0000 C    0  0  0  0  0  0  0  0  0  0  0  0
    1.2722   -1.2530    0.0000 N    0  0  0  0  0  0  0  0  0  0  0  0
    3.4148   -1.2626    0.0000 N    0  0  0  0  0  0  0  0  0  0  0  0
    2.2957   -4.1417    0.0000 Br   0  0  0  0  0  0  0  0  0  0  0  0
  1  3  1  0  0  0  0
  2 13  1  0  0  0  0
  3  4  1  0  0  0  0
  4  5  1  0  0  0  0
  5  6  1  0  0  0  0
  6  7  1  0  0  0  0
  7  8  1  0  0  0  0
  8  9  1  0  0  0  0
  9 14  1  0  0  0  0
 10 11  2  0  0  0  0
 10 13  1  0  0  0  0
 11 14  1  0  0  0  0
 12 13  1  0  0  0  0
 12 14  1  0  0  0  0
M  END
> <ID>
14196

> <Formula>
C12H25BrN2

> <FW>
277.2443 (196.3324+80.9119)

> <DSSTox_CID>
29288

> <DSSTox_RID>
83407

> <DSSTox_GSID>
49332

> <DSSTox_FileID_Sort>
8082

> <TS_ChemName>
1-Methyl-3-octylimidazolium bromide

> <TS_ChemName_Synonyms>


> <TS_CASRN>
61545-99-1

> <CASRN_ChemName_Relationship>
primary

> <TS_Description>
single chemical compound

> <ChemNote>


> <STRUCTURE_Shown>
tested chemical

> <STRUCTURE_Formula>
C12H25BrN2

> <STRUCTURE_MW>
277.2443

> <STRUCTURE_ChemType>
defined organic

> <STRUCTURE_DefinedOrganicForm>
complex

> <STRUCTURE_IUPAC>
1-methyl-3-octyl-2,3-dihydro-1H-imidazole hydrobromide (1:1)

> <STRUCTURE_SMILES>
Br.CN1C=CN(CCCCCCCC)C1

> <STRUCTURE_SMILES_Desalt>
CN1C=CN(CCCCCCCC)C1

> <Substance_modify_yyyymmdd>
20111204

$$$$
