61546-01-8
ChemmineR-0915142007XD

 23 22  0  0  0  0  0  0  0  0  2 V2000
   20.4456   -1.0474    0.0000 N    0  3  0  0  0  0  0  0  0  0  0  0
   18.3945   -1.7456    0.0000 N    0  0  0  0  0  0  0  0  0  0  0  0
   19.6601   -2.1384    0.0000 C    0  0  0  0  0  0  0  0  0  0  0  0
   19.6601    0.0000    0.0000 C    0  0  0  0  0  0  0  0  0  0  0  0
   18.3945   -0.4146    0.0000 C    0  0  0  0  0  0  0  0  0  0  0  0
   17.3035   -2.5312    0.0000 C    0  0  0  0  0  0  0  0  0  0  0  0
   16.1034   -2.0075    0.0000 C    0  0  0  0  0  0  0  0  0  0  0  0
   15.0124   -2.7930    0.0000 C    0  0  0  0  0  0  0  0  0  0  0  0
   13.7904   -2.2693    0.0000 C    0  0  0  0  0  0  0  0  0  0  0  0
   12.7213   -3.0330    0.0000 C    0  0  0  0  0  0  0  0  0  0  0  0
   11.4993   -2.5312    0.0000 C    0  0  0  0  0  0  0  0  0  0  0  0
   10.4083   -3.3167    0.0000 C    0  0  0  0  0  0  0  0  0  0  0  0
    9.2082   -2.7930    0.0000 C    0  0  0  0  0  0  0  0  0  0  0  0
    8.1172   -3.5785    0.0000 C    0  0  0  0  0  0  0  0  0  0  0  0
    6.8952   -3.0330    0.0000 C    0  0  0  0  0  0  0  0  0  0  0  0
    5.8260   -3.8404    0.0000 C    0  0  0  0  0  0  0  0  0  0  0  0
    4.6041   -3.2949    0.0000 C    0  0  0  0  0  0  0  0  0  0  0  0
    3.5349   -4.0804    0.0000 C    0  0  0  0  0  0  0  0  0  0  0  0
    2.3130   -3.5567    0.0000 C    0  0  0  0  0  0  0  0  0  0  0  0
    1.2438   -4.3422    0.0000 C    0  0  0  0  0  0  0  0  0  0  0  0
    0.0000   -3.8186    0.0000 C    0  0  0  0  0  0  0  0  0  0  0  0
   21.7549   -1.0474    0.0000 C    0  0  0  0  0  0  0  0  0  0  0  0
   21.8203   -2.6403    0.0000 Cl   0  5  0  0  0  0  0  0  0  0  0  0
  1  3  2  0  0  0  0
  1  4  1  0  0  0  0
  1 22  1  0  0  0  0
  2  3  1  0  0  0  0
  2  5  1  0  0  0  0
  2  6  1  0  0  0  0
  4  5  2  0  0  0  0
  6  7  1  0  0  0  0
  7  8  1  0  0  0  0
  8  9  1  0  0  0  0
  9 10  1  0  0  0  0
 10 11  1  0  0  0  0
 11 12  1  0  0  0  0
 12 13  1  0  0  0  0
 13 14  1  0  0  0  0
 14 15  1  0  0  0  0
 15 16  1  0  0  0  0
 16 17  1  0  0  0  0
 17 18  1  0  0  0  0
 18 19  1  0  0  0  0
 19 20  1  0  0  0  0
 20 21  1  0  0  0  0
M  END
> <ID>
12998

> <Formula>
C20H39ClN2

> <FW>
342.9901 (307.5365+35.4535)

> <DSSTox_CID>
27899

> <DSSTox_RID>
82652

> <DSSTox_GSID>
47923

> <DSSTox_FileID_Sort>
7329

> <TS_ChemName>
1-Hexadecyl-3-methylimidazolium chloride

> <TS_ChemName_Synonyms>


> <TS_CASRN>
61546-01-8

> <CASRN_ChemName_Relationship>
primary

> <TS_Description>
single chemical compound

> <ChemNote>
ammonium; parent [81995-03-1]

> <STRUCTURE_Shown>
tested chemical

> <STRUCTURE_Formula>
C20H39ClN2

> <STRUCTURE_MW>
342.9901

> <STRUCTURE_ChemType>
defined organic

> <STRUCTURE_DefinedOrganicForm>
salt

> <STRUCTURE_IUPAC>
1-hexadecyl-3-methyl-1H-imidazol-3-ium chloride

> <STRUCTURE_SMILES>
[Cl-].C[n+]1ccn(CCCCCCCCCCCCCCCC)c1

> <STRUCTURE_SMILES_Desalt>
C[n+]1ccn(CCCCCCCCCCCCCCCC)c1

> <Substance_modify_yyyymmdd>
20110417

$$$$
