61546-00-7
ChemmineR-0915142007XD

 19 18  0  0  0  0  0  0  0  0  2 V2000
    0.0000  -11.5091    0.0000 C    0  0  0  0  0  0  0  0  0  0  0  0
   12.7313   -1.6805    0.0000 C    0  0  0  0  0  0  0  0  0  0  0  0
    0.2928  -10.2105    0.0000 C    0  0  0  0  0  0  0  0  0  0  0  0
    1.5405   -9.8158    0.0000 C    0  0  0  0  0  0  0  0  0  0  0  0
    1.8460   -8.4790    0.0000 C    0  0  0  0  0  0  0  0  0  0  0  0
    3.1064   -8.0971    0.0000 C    0  0  0  0  0  0  0  0  0  0  0  0
    3.3993   -6.7985    0.0000 C    0  0  0  0  0  0  0  0  0  0  0  0
    4.6469   -6.3784    0.0000 C    0  0  0  0  0  0  0  0  0  0  0  0
    4.9525   -5.0671    0.0000 C    0  0  0  0  0  0  0  0  0  0  0  0
    6.2001   -4.6597    0.0000 C    0  0  0  0  0  0  0  0  0  0  0  0
    6.4802   -3.3611    0.0000 C    0  0  0  0  0  0  0  0  0  0  0  0
    7.7661   -2.9537    0.0000 C    0  0  0  0  0  0  0  0  0  0  0  0
    8.0589   -1.6551    0.0000 C    0  0  0  0  0  0  0  0  0  0  0  0
   11.0635    0.0000    0.0000 C    0  0  0  0  0  0  0  0  0  0  0  0
    9.7394    0.0000    0.0000 C    0  0  0  0  0  0  0  0  0  0  0  0
   10.3887   -2.0497    0.0000 C    0  0  0  0  0  0  0  0  0  0  0  0
   11.4836   -1.2604    0.0000 N    0  3  0  0  0  0  0  0  0  0  0  0
    9.3193   -1.2477    0.0000 N    0  0  0  0  0  0  0  0  0  0  0  0
    8.5809  -10.0705    0.0000 Br   0  5  0  0  0  0  0  0  0  0  0  0
  1  3  1  0  0  0  0
  2 17  1  0  0  0  0
  3  4  1  0  0  0  0
  4  5  1  0  0  0  0
  5  6  1  0  0  0  0
  6  7  1  0  0  0  0
  7  8  1  0  0  0  0
  8  9  1  0  0  0  0
  9 10  1  0  0  0  0
 10 11  1  0  0  0  0
 11 12  1  0  0  0  0
 12 13  1  0  0  0  0
 13 18  1  0  0  0  0
 14 15  2  0  0  0  0
 14 17  1  0  0  0  0
 15 18  1  0  0  0  0
 16 17  2  0  0  0  0
 16 18  1  0  0  0  0
M  END
> <ID>
14197

> <Formula>
C16H31BrN2

> <FW>
331.3347 (251.4302+79.9045)

> <DSSTox_CID>
29289

> <DSSTox_RID>
83408

> <DSSTox_GSID>
49333

> <DSSTox_FileID_Sort>
8083

> <TS_ChemName>
1-Dodecyl-3-methylimidazolium bromide

> <TS_ChemName_Synonyms>


> <TS_CASRN>
61546-00-7

> <CASRN_ChemName_Relationship>
primary

> <TS_Description>
single chemical compound

> <ChemNote>


> <STRUCTURE_Shown>
tested chemical

> <STRUCTURE_Formula>
C16H31BrN2

> <STRUCTURE_MW>
331.3347

> <STRUCTURE_ChemType>
defined organic

> <STRUCTURE_DefinedOrganicForm>
salt

> <STRUCTURE_IUPAC>
1-dodecyl-3-methylimidazolium bromide

> <STRUCTURE_SMILES>
[Br-].C[n+]1ccn(CCCCCCCCCCCC)c1

> <STRUCTURE_SMILES_Desalt>
C[n+]1ccn(CCCCCCCCCCCC)c1

> <Substance_modify_yyyymmdd>
20111204

$$$$
