616-86-4
ChemmineR-0915142007XD

 13 13  0  0  0  0  0  0  0  0  2 V2000
    6.9138    0.0000    0.0000 N   0  0  0  0  0  0  0  0  0  0  0  0
    5.7601   -0.6696    0.0000 C   0  0  0  0  0  0  0  0  0  0  0  0
    5.7601   -2.0007    0.0000 C   0  0  0  0  0  0  0  0  0  0  0  0
    6.9138   -2.6622    0.0000 N   0  3  0  0  0  0  0  0  0  0  0  0
    8.0674   -2.0007    0.0000 O   0  5  0  0  0  0  0  0  0  0  0  0
    6.9138   -3.9934    0.0000 O   0  0  0  0  0  0  0  0  0  0  0  0
    4.6065   -2.6622    0.0000 C   0  0  0  0  0  0  0  0  0  0  0  0
    3.4609   -2.0007    0.0000 C   0  0  0  0  0  0  0  0  0  0  0  0
    2.3073   -2.6622    0.0000 O   0  0  0  0  0  0  0  0  0  0  0  0
    1.1536   -2.0007    0.0000 C   0  0  0  0  0  0  0  0  0  0  0  0
    0.0000   -2.6622    0.0000 C   0  0  0  0  0  0  0  0  0  0  0  0
    3.4609   -0.6696    0.0000 C   0  0  0  0  0  0  0  0  0  0  0  0
    4.6065    0.0000    0.0000 C   0  0  0  0  0  0  0  0  0  0  0  0
  1  2  1  0  0  0  0
  2  3  2  0  0  0  0
  2 13  1  0  0  0  0
  3  4  1  0  0  0  0
  3  7  1  0  0  0  0
  4  5  1  0  0  0  0
  4  6  2  0  0  0  0
  7  8  2  0  0  0  0
  8  9  1  0  0  0  0
  8 12  1  0  0  0  0
  9 10  1  0  0  0  0
 10 11  1  0  0  0  0
 12 13  2  0  0  0  0
M  END
> <ID>
1927

> <Formula>
C8H10N2O3

> <FW>
182.1766

> <DSSTox_CID>
2084

> <DSSTox_RID>
76482

> <DSSTox_GSID>
22084

> <DSSTox_FileID_Sort>
1166

> <TS_ChemName>
4-Ethoxy-2-nitroaniline

> <TS_ChemName_Synonyms>


> <TS_CASRN>
616-86-4

> <CASRN_ChemName_Relationship>
primary

> <TS_Description>
single chemical compound

> <ChemNote>


> <STRUCTURE_Shown>
tested chemical

> <STRUCTURE_Formula>
C8H10N2O3

> <STRUCTURE_MW>
182.1766

> <STRUCTURE_ChemType>
defined organic

> <STRUCTURE_DefinedOrganicForm>
parent

> <STRUCTURE_IUPAC>
4-ethoxy-2-nitroaniline

> <STRUCTURE_SMILES>
CCOc1ccc(N)c(c1)[N+]([O-])=O

> <STRUCTURE_SMILES_Desalt>
CCOc1ccc(N)c(c1)[N+]([O-])=O

> <Substance_modify_yyyymmdd>
20080429

$$$$
