616-09-1
ChemmineR-0915142007XD

  9  8  0  0  0  0  0  0  0  0  1 V2000
    0.0000   -3.4537    0.0000 C   0  0  0  0  0  0  0  0  0  0  0  0
    5.9855   -2.3044    0.0000 C   0  0  0  0  0  0  0  0  0  0  0  0
    1.3288   -3.4537    0.0000 C   0  0  0  0  0  0  0  0  0  0  0  0
    1.9932   -2.3044    0.0000 C   0  0  0  0  0  0  0  0  0  0  0  0
    5.3211   -1.1492    0.0000 C   0  0  0  0  0  0  0  0  0  0  0  0
    3.9924   -1.1492    0.0000 C   0  0  0  0  0  0  0  0  0  0  0  0
    5.9855    0.0000    0.0000 O   0  0  0  0  0  0  0  0  0  0  0  0
    3.3280    0.0000    0.0000 O   0  0  0  0  0  0  0  0  0  0  0  0
    3.3280   -2.3044    0.0000 O   0  0  0  0  0  0  0  0  0  0  0  0
  1  3  1  0  0  0  0
  2  5  1  0  0  0  0
  3  4  1  0  0  0  0
  4  9  1  0  0  0  0
  5  6  1  0  0  0  0
  5  7  1  0  0  0  0
  6  8  2  0  0  0  0
  6  9  1  0  0  0  0
M  END
> <ID>
14198

> <Formula>
C6H12O3

> <FW>
132.1577

> <DSSTox_CID>
29290

> <DSSTox_RID>
83409

> <DSSTox_GSID>
49334

> <DSSTox_FileID_Sort>
8084

> <TS_ChemName>
Propanoic acid,2-hydroxy-,propylester

> <TS_ChemName_Synonyms>


> <TS_CASRN>
616-09-1

> <CASRN_ChemName_Relationship>
primary

> <TS_Description>
single chemical compound

> <ChemNote>


> <STRUCTURE_Shown>
tested chemical

> <STRUCTURE_Formula>
C6H12O3

> <STRUCTURE_MW>
132.1577

> <STRUCTURE_ChemType>
defined organic

> <STRUCTURE_DefinedOrganicForm>
parent

> <STRUCTURE_IUPAC>
propyl 2-hydroxypropanoate

> <STRUCTURE_SMILES>
CC(O)C(=O)OCCC

> <STRUCTURE_SMILES_Desalt>
CC(O)C(=O)OCCC

> <Substance_modify_yyyymmdd>
20111204

$$$$
