616-38-6
ChemmineR-0915142007XD

  6  5  0  0  0  0  0  0  0  0  1 V2000
    2.3054   -1.3318    0.0000 C   0  0  0  0  0  0  0  0  0  0  0  0
    2.3054    0.0000    0.0000 O   0  0  0  0  0  0  0  0  0  0  0  0
    1.1527   -2.0023    0.0000 O   0  0  0  0  0  0  0  0  0  0  0  0
    3.4397   -2.0023    0.0000 O   0  0  0  0  0  0  0  0  0  0  0  0
    0.0000   -1.3318    0.0000 C   0  0  0  0  0  0  0  0  0  0  0  0
    4.5924   -1.3318    0.0000 C   0  0  0  0  0  0  0  0  0  0  0  0
  1  2  2  0  0  0  0
  1  3  1  0  0  0  0
  1  4  1  0  0  0  0
  3  5  1  0  0  0  0
  4  6  1  0  0  0  0
M  END
> <ID>
5845

> <Formula>
C3H6O3

> <FW>
90.0779

> <DSSTox_CID>
9192

> <DSSTox_RID>
78703

> <DSSTox_GSID>
29192

> <DSSTox_FileID_Sort>
3385

> <TS_ChemName>
Dimethyl carbonate

> <TS_ChemName_Synonyms>


> <TS_CASRN>
616-38-6

> <CASRN_ChemName_Relationship>
primary

> <TS_Description>
single chemical compound

> <ChemNote>


> <STRUCTURE_Shown>
tested chemical

> <STRUCTURE_Formula>
C3H6O3

> <STRUCTURE_MW>
90.0779

> <STRUCTURE_ChemType>
defined organic

> <STRUCTURE_DefinedOrganicForm>
parent

> <STRUCTURE_IUPAC>
dimethyl carbonate

> <STRUCTURE_SMILES>
O=C(OC)OC

> <STRUCTURE_SMILES_Desalt>
O=C(OC)OC

> <Substance_modify_yyyymmdd>
20080429

$$$$
