616-96-6
ChemmineR-0915142007XD

 30 29  0  0  0  0  0  0  0  0  1 V2000
    1.1774   -2.0130    0.0000 N    0  0  0  0  0  0  0  0  0  0  0  0
    3.4563   -2.0130    0.0000 C    0  0  0  0  0  0  0  0  0  0  0  0
    2.3168   -1.3420    0.0000 C    0  0  0  0  0  0  0  0  0  0  0  0
    6.9632   -3.9880    0.0000 C    0  0  0  0  0  0  0  0  0  0  0  0
    5.7985   -1.9750    0.0000 N    0  0  0  0  0  0  0  0  0  0  0  0
    5.7985   -3.3170    0.0000 C    0  0  0  0  0  0  0  0  0  0  0  0
    8.1026   -3.3170    0.0000 S    0  0  0  0  0  0  0  0  0  0  0  0
    9.2294   -3.9880    0.0000 C    0  0  0  0  0  0  0  0  0  0  0  0
    4.6337   -1.3040    0.0000 C    0  0  0  0  0  0  0  0  0  0  0  0
    4.6717   -7.9760    0.0000 C    0  0  0  0  0  0  0  0  0  0  0  0
    2.3168   -4.0007    0.0000 N    0  0  0  0  0  0  0  0  0  0  0  0
    1.1774   -3.3423    0.0000 C    0  0  0  0  0  0  0  0  0  0  0  0
    6.9885   -1.3040    0.0000 C    0  0  0  0  0  0  0  0  0  0  0  0
    3.4563   -3.3423    0.0000 C    0  0  0  0  0  0  0  0  0  0  0  0
    9.2294   -5.3300    0.0000 O    0  0  0  0  0  0  0  0  0  0  0  0
    4.6843   -9.2801    0.0000 O    0  0  0  0  0  0  0  0  0  0  0  0
    8.1153   -1.9624    0.0000 O    0  0  0  0  0  0  0  0  0  0  0  0
    6.9632   -5.3300    0.0000 C    0  0  0  0  0  0  0  0  0  0  0  0
    2.3168    0.0000    0.0000 N    0  0  0  0  0  0  0  0  0  0  0  0
    5.7985   -7.3177    0.0000 O    0  0  0  0  0  0  0  0  0  0  0  0
   10.3688   -3.3170    0.0000 O    0  0  0  0  0  0  0  0  0  0  0  0
    3.5196   -7.2924    0.0000 O    0  0  0  0  0  0  0  0  0  0  0  0
    5.7985   -5.9757    0.0000 C    0  0  0  0  0  0  0  0  0  0  0  0
    4.6717   -3.9880    0.0000 C    0  0  0  0  0  0  0  0  0  0  0  0
    0.0000   -4.0133    0.0000 C    0  0  0  0  0  0  0  0  0  0  0  0
   11.5336   -3.9880    0.0000 C    0  0  0  0  0  0  0  0  0  0  0  0
    2.3802   -7.9507    0.0000 C    0  0  0  0  0  0  0  0  0  0  0  0
   12.6604   -3.3170    0.0000 C    0  0  0  0  0  0  0  0  0  0  0  0
    1.2407   -7.2924    0.0000 C    0  0  0  0  0  0  0  0  0  0  0  0
    6.9632   -8.6217    0.0000 Cl   0  0  0  0  0  0  0  0  0  0  0  0
  1  3  1  0  0  0  0
  1 12  2  0  0  0  0
  2  3  2  0  0  0  0
  2  9  1  0  0  0  0
  2 14  1  0  0  0  0
  3 19  1  0  0  0  0
  4  6  2  0  0  0  0
  4  7  1  0  0  0  0
  4 18  1  0  0  0  0
  5  9  1  0  0  0  0
  5  6  1  0  0  0  0
  5 13  1  0  0  0  0
  6 24  1  0  0  0  0
  7  8  1  0  0  0  0
  8 15  2  0  0  0  0
  8 21  1  0  0  0  0
 10 20  1  0  0  0  0
 10 16  2  0  0  0  0
 10 22  1  0  0  0  0
 11 12  1  0  0  0  0
 11 14  2  0  0  0  0
 12 25  1  0  0  0  0
 13 17  2  0  0  0  0
 18 23  1  0  0  0  0
 20 23  1  0  0  0  0
 21 26  1  0  0  0  0
 22 27  1  0  0  0  0
 26 28  1  0  0  0  0
 27 29  1  0  0  0  0
M  END
> <ID>
13782

> <Formula>
C18H27ClN4O6S

> <FW>
462.9482 (426.4872+36.4609)

> <DSSTox_CID>
28719

> <DSSTox_RID>
82988

> <DSSTox_GSID>
48793

> <DSSTox_FileID_Sort>
7665

> <TS_ChemName>
Dicethiamine hydrochloride

> <TS_ChemName_Synonyms>


> <TS_CASRN>
616-96-6

> <CASRN_ChemName_Relationship>
primary

> <TS_Description>
single chemical compound

> <ChemNote>
stereochem

> <STRUCTURE_Shown>
tested chemical

> <STRUCTURE_Formula>
C18H27ClN4O6S

> <STRUCTURE_MW>
462.9482

> <STRUCTURE_ChemType>
defined organic

> <STRUCTURE_DefinedOrganicForm>
complex

> <STRUCTURE_IUPAC>
(3Z)-4-{[(4-amino-2-methylpyrimidin-5-yl)methyl](formyl)amino}-3-[(ethoxycarbonyl)sulfanyl]pent-3-en-1-yl ethyl carbonate hydrochloride (1:1)

> <STRUCTURE_SMILES>
Cl.Nc1nc(C)ncc1CN(C=O)C(/C)=C(/CCOC(=O)OCC)SC(=O)OCC

> <STRUCTURE_SMILES_Desalt>
Nc1nc(C)ncc1CN(C=O)C(/C)=C(/CCOC(=O)OCC)SC(=O)OCC

> <Substance_modify_yyyymmdd>
20111204

$$$$
