616-45-5
ChemmineR-0915142007XD

  6  6  0  0  0  0  0  0  0  0  1 V2000
    1.0745    0.0000    0.0000 N   0  0  0  0  0  0  0  0  0  0  0  0
    2.1456   -0.7846    0.0000 C   0  0  0  0  0  0  0  0  0  0  0  0
    0.0000   -0.7846    0.0000 C   0  0  0  0  0  0  0  0  0  0  0  0
    1.7465   -2.0501    0.0000 C   0  0  0  0  0  0  0  0  0  0  0  0
    0.4162   -2.0501    0.0000 C   0  0  0  0  0  0  0  0  0  0  0  0
    3.4112   -0.3684    0.0000 O   0  0  0  0  0  0  0  0  0  0  0  0
  1  2  1  0  0  0  0
  1  3  1  0  0  0  0
  2  4  1  0  0  0  0
  2  6  2  0  0  0  0
  3  5  1  0  0  0  0
  4  5  1  0  0  0  0
M  END
> <ID>
5020

> <Formula>
C4H7NO

> <FW>
85.1045

> <DSSTox_CID>
7246

> <DSSTox_RID>
78367

> <DSSTox_GSID>
27246

> <DSSTox_FileID_Sort>
3050

> <TS_ChemName>
2-Pyrrolidinone

> <TS_ChemName_Synonyms>


> <TS_CASRN>
616-45-5

> <CASRN_ChemName_Relationship>
primary

> <TS_Description>
single chemical compound

> <ChemNote>


> <STRUCTURE_Shown>
tested chemical

> <STRUCTURE_Formula>
C4H7NO

> <STRUCTURE_MW>
85.1045

> <STRUCTURE_ChemType>
defined organic

> <STRUCTURE_DefinedOrganicForm>
parent

> <STRUCTURE_IUPAC>
pyrrolidin-2-one

> <STRUCTURE_SMILES>
O=C1CCCN1

> <STRUCTURE_SMILES_Desalt>
O=C1CCCN1

> <Substance_modify_yyyymmdd>
20080429

$$$$
