616-23-9
ChemmineR-0915142007XD

  6  5  0  0  0  0  0  0  0  0  1 V2000
    4.6116   -1.3281    0.0000 O    0  0  0  0  0  0  0  0  0  0  0  0
    0.0000   -1.3281    0.0000 Cl   0  0  0  0  0  0  0  0  0  0  0  0
    2.3058    0.0000    0.0000 Cl   0  0  0  0  0  0  0  0  0  0  0  0
    1.1529   -1.9922    0.0000 C    0  0  0  0  0  0  0  0  0  0  0  0
    3.4587   -1.9922    0.0000 C    0  0  0  0  0  0  0  0  0  0  0  0
    2.3058   -1.3281    0.0000 C    0  0  0  0  0  0  0  0  0  0  0  0
  1  5  1  0  0  0  0
  2  4  1  0  0  0  0
  3  6  1  0  0  0  0
  4  6  1  0  0  0  0
  5  6  1  0  0  0  0
M  END
> <ID>
3474

> <Formula>
C3H6Cl2O

> <FW>
128.9851

> <DSSTox_CID>
4038

> <DSSTox_RID>
77264

> <DSSTox_GSID>
24038

> <DSSTox_FileID_Sort>
1947

> <TS_ChemName>
2,3-Dichloro-1-propanol

> <TS_ChemName_Synonyms>


> <TS_CASRN>
616-23-9

> <CASRN_ChemName_Relationship>
primary

> <TS_Description>
single chemical compound

> <ChemNote>


> <STRUCTURE_Shown>
tested chemical

> <STRUCTURE_Formula>
C3H6Cl2O

> <STRUCTURE_MW>
128.9851

> <STRUCTURE_ChemType>
defined organic

> <STRUCTURE_DefinedOrganicForm>
parent

> <STRUCTURE_IUPAC>
2,3-dichloropropan-1-ol

> <STRUCTURE_SMILES>
ClCC(Cl)CO

> <STRUCTURE_SMILES_Desalt>
ClCC(Cl)CO

> <Substance_modify_yyyymmdd>
20080429

$$$$
