616202-92-7
ChemmineR-0915142007XD

 13 14  0  0  1  0  0  0  0  0  1 V2000
    6.3680   -1.4901    0.0000 N    0  0  0  0  0  0  0  0  0  0  0  0
    4.2029   -4.2984    0.0000 C    0  0  0  0  0  0  0  0  0  0  0  0
    5.7885   -2.6936    0.0000 C    0  0  0  0  0  0  0  0  0  0  0  0
    4.4894   -2.9993    0.0000 C    0  0  0  0  0  0  0  0  0  0  0  0
    5.7885   -0.3057    0.0000 C    0  0  0  0  0  0  0  0  0  0  0  0
    4.4894    0.0000    0.0000 C    0  0  0  0  0  0  0  0  0  0  0  0
    0.0000   -2.8210    0.0000 Cl   0  0  0  0  0  0  0  0  0  0  0  0
    3.4642   -0.8342    0.0000 C    0  0  0  0  0  0  0  0  0  0  0  0
    3.4642   -2.1651    0.0000 C    0  0  0  0  0  0  0  0  0  0  0  0
    2.3116   -0.1592    0.0000 C    0  0  0  0  0  0  0  0  0  0  0  0
    2.3116   -2.8210    0.0000 C    0  0  0  0  0  0  0  0  0  0  0  0
    1.1526   -0.8342    0.0000 C    0  0  0  0  0  0  0  0  0  0  0  0
    1.1526   -2.1651    0.0000 C    0  0  0  0  0  0  0  0  0  0  0  0
  1  3  1  0  0  0  0
  1  5  1  0  0  0  0
  4  2  1  6  0  0  0
  3  4  1  0  0  0  0
  4  9  1  0  0  0  0
  5  6  1  0  0  0  0
  6  8  1  0  0  0  0
  7 13  1  0  0  0  0
  8  9  1  0  0  0  0
  8 10  2  0  0  0  0
  9 11  2  0  0  0  0
 10 12  1  0  0  0  0
 11 13  1  0  0  0  0
 12 13  2  0  0  0  0
M  END
> <ID>
13654

> <Formula>
C11H14ClN

> <FW>
195.6886

> <DSSTox_CID>
28585

> <DSSTox_RID>
82856

> <DSSTox_GSID>
48659

> <DSSTox_FileID_Sort>
7533

> <TS_ChemName>
Lorcaserin

> <TS_ChemName_Synonyms>


> <TS_CASRN>
616202-92-7

> <CASRN_ChemName_Relationship>
primary

> <TS_Description>
single chemical compound

> <ChemNote>


> <STRUCTURE_Shown>
tested chemical

> <STRUCTURE_Formula>
C11H14ClN

> <STRUCTURE_MW>
195.6886

> <STRUCTURE_ChemType>
defined organic

> <STRUCTURE_DefinedOrganicForm>
parent

> <STRUCTURE_IUPAC>
(1R)-8-chloro-1-methyl-2,3,4,5-tetrahydro-1H-3-benzazepine

> <STRUCTURE_SMILES>
Clc2cc1c(CCNC[C@@H]1C)cc2

> <STRUCTURE_SMILES_Desalt>
Clc2cc1c(CCNC[C@@H]1C)cc2

> <Substance_modify_yyyymmdd>
20111204

$$$$
