6164-98-3
ChemmineR-0915142007XD

 13 13  0  0  0  0  0  0  0  0  1 V2000
    5.3215   -2.3103    0.0000 N    0  0  0  0  0  0  0  0  0  0  0  0
    6.6541   -2.3103    0.0000 C    0  0  0  0  0  0  0  0  0  0  0  0
    3.9890   -2.3103    0.0000 C    0  0  0  0  0  0  0  0  0  0  0  0
    3.3140   -1.1335    0.0000 C    0  0  0  0  0  0  0  0  0  0  0  0
    1.9902   -1.1335    0.0000 C    0  0  0  0  0  0  0  0  0  0  0  0
    7.9779   -2.3103    0.0000 N    0  0  0  0  0  0  0  0  0  0  0  0
    3.3140   -3.4438    0.0000 C    0  0  0  0  0  0  0  0  0  0  0  0
    1.3325   -2.3103    0.0000 C    0  0  0  0  0  0  0  0  0  0  0  0
    1.9902   -3.4438    0.0000 C    0  0  0  0  0  0  0  0  0  0  0  0
    0.0000   -2.3103    0.0000 Cl   0  0  0  0  0  0  0  0  0  0  0  0
    3.9890    0.0000    0.0000 C    0  0  0  0  0  0  0  0  0  0  0  0
    8.6356   -3.4611    0.0000 C    0  0  0  0  0  0  0  0  0  0  0  0
    8.6529   -1.1508    0.0000 C    0  0  0  0  0  0  0  0  0  0  0  0
  1  2  2  0  0  0  0
  1  3  1  0  0  0  0
  2  6  1  0  0  0  0
  3  4  1  0  0  0  0
  3  7  2  0  0  0  0
  4  5  2  0  0  0  0
  4 11  1  0  0  0  0
  5  8  1  0  0  0  0
  6 12  1  0  0  0  0
  6 13  1  0  0  0  0
  7  9  1  0  0  0  0
  8  9  2  0  0  0  0
  8 10  1  0  0  0  0
M  END
> <ID>
7311

> <Formula>
C10H13ClN2

> <FW>
196.6766

> <DSSTox_CID>
17508

> <DSSTox_RID>
79325

> <DSSTox_GSID>
37508

> <DSSTox_FileID_Sort>
4007

> <TS_ChemName>
Chlordimeform

> <TS_ChemName_Synonyms>


> <TS_CASRN>
6164-98-3

> <CASRN_ChemName_Relationship>
primary

> <TS_Description>
single chemical compound

> <ChemNote>


> <STRUCTURE_Shown>
tested chemical

> <STRUCTURE_Formula>
C10H13ClN2

> <STRUCTURE_MW>
196.6766

> <STRUCTURE_ChemType>
defined organic

> <STRUCTURE_DefinedOrganicForm>
parent

> <STRUCTURE_IUPAC>
N'-(4-chloro-2-methylphenyl)-N,N-dimethylimidoformamide

> <STRUCTURE_SMILES>
Clc1cc(C)c(/N=C/N(C)C)cc1

> <STRUCTURE_SMILES_Desalt>
Clc1cc(C)c(/N=C/N(C)C)cc1

> <Substance_modify_yyyymmdd>
20080429

$$$$
