617-94-7
ChemmineR-0915142007XD

 10 10  0  0  0  0  0  0  0  0  1 V2000
    1.3291   -2.6582    0.0000 C   0  0  0  0  0  0  0  0  0  0  0  0
    2.4827   -3.3333    0.0000 C   0  0  0  0  0  0  0  0  0  0  0  0
    2.4827   -4.6624    0.0000 C   0  0  0  0  0  0  0  0  0  0  0  0
    1.3291   -5.3163    0.0000 C   0  0  0  0  0  0  0  0  0  0  0  0
    0.1754   -4.6624    0.0000 C   0  0  0  0  0  0  0  0  0  0  0  0
    0.1754   -3.3333    0.0000 C   0  0  0  0  0  0  0  0  0  0  0  0
    1.3291   -1.3291    0.0000 C   0  0  0  0  0  0  0  0  0  0  0  0
    0.0000   -1.3291    0.0000 O   0  0  0  0  0  0  0  0  0  0  0  0
    2.6582   -1.3291    0.0000 C   0  0  0  0  0  0  0  0  0  0  0  0
    1.3291    0.0000    0.0000 C   0  0  0  0  0  0  0  0  0  0  0  0
  1  2  2  0  0  0  0
  1  6  1  0  0  0  0
  1  7  1  0  0  0  0
  2  3  1  0  0  0  0
  3  4  2  0  0  0  0
  4  5  1  0  0  0  0
  5  6  2  0  0  0  0
  7  8  1  0  0  0  0
  7  9  1  0  0  0  0
  7 10  1  0  0  0  0
M  END
> <ID>
5021

> <Formula>
C9H12O

> <FW>
136.191

> <DSSTox_CID>
7247

> <DSSTox_RID>
78368

> <DSSTox_GSID>
27247

> <DSSTox_FileID_Sort>
3051

> <TS_ChemName>
2-Phenylpropan-2-ol

> <TS_ChemName_Synonyms>
Benzenemethanol, .alpha.,.alpha.-dimethyl-

> <TS_CASRN>
617-94-7

> <CASRN_ChemName_Relationship>
primary

> <TS_Description>
single chemical compound

> <ChemNote>


> <STRUCTURE_Shown>
tested chemical

> <STRUCTURE_Formula>
C9H12O

> <STRUCTURE_MW>
136.191

> <STRUCTURE_ChemType>
defined organic

> <STRUCTURE_DefinedOrganicForm>
parent

> <STRUCTURE_IUPAC>
2-phenylpropan-2-ol

> <STRUCTURE_SMILES>
CC(O)(C)c1ccccc1

> <STRUCTURE_SMILES_Desalt>
CC(O)(C)c1ccccc1

> <Substance_modify_yyyymmdd>
20080429

$$$$
