61755-34-8
ChemmineR-0915142007XD

 10  9  0  0  0  0  0  0  0  0  2 V2000
    4.0425   -1.0605    0.0000 N    0  3  0  0  0  0  0  0  0  0  0  0
    1.9956   -1.7390    0.0000 N    0  0  0  0  0  0  0  0  0  0  0  0
    3.2842   -2.1381    0.0000 C    0  0  0  0  0  0  0  0  0  0  0  0
    3.2557    0.0000    0.0000 C    0  0  0  0  0  0  0  0  0  0  0  0
    1.9956   -0.3991    0.0000 C    0  0  0  0  0  0  0  0  0  0  0  0
    0.9522   -2.5259    0.0000 C    0  0  0  0  0  0  0  0  0  0  0  0
    1.0776   -3.8658    0.0000 C    0  0  0  0  0  0  0  0  0  0  0  0
    0.0000   -4.6526    0.0000 O    0  0  0  0  0  0  0  0  0  0  0  0
    5.3767   -1.0605    0.0000 C    0  0  0  0  0  0  0  0  0  0  0  0
    5.7017   -2.6228    0.0000 Cl   0  5  0  0  0  0  0  0  0  0  0  0
  1  3  2  0  0  0  0
  1  4  1  0  0  0  0
  1  9  1  0  0  0  0
  2  3  1  0  0  0  0
  2  5  1  0  0  0  0
  2  6  1  0  0  0  0
  4  5  2  0  0  0  0
  6  7  1  0  0  0  0
  7  8  1  0  0  0  0
M  END
> <ID>
12947

> <Formula>
C6H11ClN2O

> <FW>
162.6173 (127.1638+35.4535)

> <DSSTox_CID>
27848

> <DSSTox_RID>
82601

> <DSSTox_GSID>
47872

> <DSSTox_FileID_Sort>
7278

> <TS_ChemName>
1-(2-Hydroxyethyl)-3-methylimidazolium chloride

> <TS_ChemName_Synonyms>


> <TS_CASRN>
61755-34-8

> <CASRN_ChemName_Relationship>
primary

> <TS_Description>
single chemical compound

> <ChemNote>
ammonium; parent [61755-32-6]

> <STRUCTURE_Shown>
tested chemical

> <STRUCTURE_Formula>
C6H11ClN2O

> <STRUCTURE_MW>
162.6173

> <STRUCTURE_ChemType>
defined organic

> <STRUCTURE_DefinedOrganicForm>
salt

> <STRUCTURE_IUPAC>
1-(2-hydroxyethyl)-3-methyl-1H-imidazol-3-ium chloride

> <STRUCTURE_SMILES>
[Cl-].C[n+]1ccn(CCO)c1

> <STRUCTURE_SMILES_Desalt>
C[n+]1ccn(CCO)c1

> <Substance_modify_yyyymmdd>
20110414

$$$$
