618-45-1
ChemmineR-0915142007XD

 10 10  0  0  0  0  0  0  0  0  1 V2000
    1.1248   -1.3327    0.0000 C   0  0  0  0  0  0  0  0  0  0  0  0
    1.1248    0.0000    0.0000 O   0  0  0  0  0  0  0  0  0  0  0  0
    2.2975   -2.0097    0.0000 C   0  0  0  0  0  0  0  0  0  0  0  0
    0.0000   -2.0097    0.0000 C   0  0  0  0  0  0  0  0  0  0  0  0
    0.0000   -3.3370    0.0000 C   0  0  0  0  0  0  0  0  0  0  0  0
    2.2975   -3.3370    0.0000 C   0  0  0  0  0  0  0  0  0  0  0  0
    1.1248   -3.9980    0.0000 C   0  0  0  0  0  0  0  0  0  0  0  0
    3.4383   -3.9980    0.0000 C   0  0  0  0  0  0  0  0  0  0  0  0
    4.5897   -3.3050    0.0000 C   0  0  0  0  0  0  0  0  0  0  0  0
    3.4383   -5.3306    0.0000 C   0  0  0  0  0  0  0  0  0  0  0  0
  1  2  1  0  0  0  0
  1  3  2  0  0  0  0
  1  4  1  0  0  0  0
  3  6  1  0  0  0  0
  4  5  2  0  0  0  0
  5  7  1  0  0  0  0
  6  7  2  0  0  0  0
  6  8  1  0  0  0  0
  8  9  1  0  0  0  0
  8 10  1  0  0  0  0
M  END
> <ID>
10225

> <Formula>
C9H12O

> <FW>
136.191

> <DSSTox_CID>
24571

> <DSSTox_RID>
80320

> <DSSTox_GSID>
44571

> <DSSTox_FileID_Sort>
5002

> <TS_ChemName>
3-Isopropylphenol

> <TS_ChemName_Synonyms>
3-Isopropylphenol ;(Phenol, 3-(1-methylethyl)-)

> <TS_CASRN>
618-45-1

> <CASRN_ChemName_Relationship>
primary

> <TS_Description>
single chemical compound

> <ChemNote>


> <STRUCTURE_Shown>
tested chemical

> <STRUCTURE_Formula>
C9H12O

> <STRUCTURE_MW>
136.191

> <STRUCTURE_ChemType>
defined organic

> <STRUCTURE_DefinedOrganicForm>
parent

> <STRUCTURE_IUPAC>
3-(propan-2-yl)phenol

> <STRUCTURE_SMILES>
CC(C)c1cc(O)ccc1

> <STRUCTURE_SMILES_Desalt>
CC(C)c1cc(O)ccc1

> <Substance_modify_yyyymmdd>
20130311

$$$$
