61825-94-3
ChemmineR-0915142007XD

 17 19  0  0  1  0  0  0  0  0  1 V2000
    7.4681   -3.4353    0.0000 O    0  0  0  0  0  0  0  0  0  0  0  0
    6.3777   -2.6512    0.0000 C    0  0  0  0  0  0  0  0  0  0  0  0
    5.1306   -3.0694    0.0000 O    0  0  0  0  0  0  0  0  0  0  0  0
    4.3464   -1.9790    0.0000 Pt   0  0  0  0  0  0  0  0  0  0  0  0
    3.5697   -3.0694    0.0000 N    0  0  0  0  0  0  0  0  0  0  0  0
    2.3002   -2.6512    0.0000 C    0  0  0  0  0  0  0  0  0  0  0  0
    1.1501   -3.3233    0.0000 C    0  0  0  0  0  0  0  0  0  0  0  0
    0.0000   -2.6512    0.0000 C    0  0  0  0  0  0  0  0  0  0  0  0
    0.0000   -1.3293    0.0000 C    0  0  0  0  0  0  0  0  0  0  0  0
    1.1501   -0.6572    0.0000 C    0  0  0  0  0  0  0  0  0  0  0  0
    2.3002   -1.3293    0.0000 C    0  0  0  0  0  0  0  0  0  0  0  0
    3.5697   -0.9111    0.0000 N    0  0  0  0  0  0  0  0  0  0  0  0
    5.1306   -0.9111    0.0000 O    0  0  0  0  0  0  0  0  0  0  0  0
    6.3777   -1.3293    0.0000 C    0  0  0  0  0  0  0  0  0  0  0  0
    7.4681   -0.5452    0.0000 O    0  0  0  0  0  0  0  0  0  0  0  0
    2.2852   -3.9805    0.0000 H    0  0  0  0  0  0  0  0  0  0  0  0
    2.3002    0.0000    0.0000 H    0  0  0  0  0  0  0  0  0  0  0  0
  1  2  2  0  0  0  0
  2  3  1  0  0  0  0
  2 14  1  0  0  0  0
  3  4  1  0  0  0  0
  4  5  1  0  0  0  0
  4 12  1  0  0  0  0
  4 13  1  0  0  0  0
  5  6  1  0  0  0  0
  6  7  1  0  0  0  0
  6 11  1  0  0  0  0
  6 16  1  1  0  0  0
  7  8  1  0  0  0  0
  8  9  1  0  0  0  0
  9 10  1  0  0  0  0
 10 11  1  0  0  0  0
 11 12  1  0  0  0  0
 11 17  1  6  0  0  0
 13 14  1  0  0  0  0
 14 15  2  0  0  0  0
M  END
> <ID>
7171

> <Formula>
C8H12N2O4Pt

> <FW>
395.2759

> <DSSTox_CID>
16760

> <DSSTox_RID>
79292

> <DSSTox_GSID>
36760

> <DSSTox_FileID_Sort>
3974

> <TS_ChemName>
Oxaliplatin

> <TS_ChemName_Synonyms>


> <TS_CASRN>
61825-94-3

> <CASRN_ChemName_Relationship>
primary

> <TS_Description>
single chemical compound

> <ChemNote>


> <STRUCTURE_Shown>
tested chemical

> <STRUCTURE_Formula>
C8H12N2O4Pt

> <STRUCTURE_MW>
395.2759

> <STRUCTURE_ChemType>
organometallic

> <STRUCTURE_DefinedOrganicForm>


> <STRUCTURE_IUPAC>
[(1R,2R)-cyclohexane-1,2-diaminato(2-)-kappa~2~N,N'][ethanedioato(2-)-kappa~2~O~1~,O~2~]platinum

> <STRUCTURE_SMILES>
O=C3O[Pt]1(N[C@@H]2CCCC[C@H]2N1)OC3=O

> <STRUCTURE_SMILES_Desalt>
O=C3O[Pt]1(N[C@@H]2CCCC[C@H]2N1)OC3=O

> <Substance_modify_yyyymmdd>
20080429

$$$$
