61849-14-7
ChemmineR-0915142007XD

 28 28  0  0  1  0  0  0  0  0  2 V2000
    5.0795   -4.0290    0.0000 C    0  0  0  0  0  0  0  0  0  0  0  0
    6.4071   -4.0290    0.0000 C    0  0  0  0  0  0  0  0  0  0  0  0
    6.8227   -5.3104    0.0000 C    0  0  0  0  0  0  0  0  0  0  0  0
    4.6639   -2.7822    0.0000 O    0  0  0  0  0  0  0  0  0  0  0  0
    8.0695   -5.7145    0.0000 C    0  0  0  0  0  0  0  0  0  0  0  0
    4.6639   -5.3104    0.0000 C    0  0  0  0  0  0  0  0  0  0  0  0
    5.7606   -1.9972    0.0000 C    0  0  0  0  0  0  0  0  0  0  0  0
    5.7606   -6.0954    0.0000 C    0  0  0  0  0  0  0  0  0  0  0  0
    6.8227   -2.7822    0.0000 C    0  0  0  0  0  0  0  0  0  0  0  0
    9.2471   -5.0218    0.0000 C    0  0  0  0  0  0  0  0  0  0  0  0
    1.1314   -0.6811    0.0000 C    0  0  0  0  0  0  0  0  0  0  0  0
    5.7606   -0.6811    0.0000 C    0  0  0  0  0  0  0  0  0  0  0  0
    0.0000    0.0000    0.0000 O    0  0  0  0  0  0  0  0  0  0  0  0
    5.7606   -7.4230    0.0000 O    0  0  0  0  0  0  0  0  0  0  0  0
    1.1314   -1.9972    0.0000 O    0  5  0  0  0  0  0  0  0  0  0  0
   10.3899   -5.7145    0.0000 C    0  0  0  0  0  0  0  0  0  0  0  0
   10.3899   -7.0421    0.0000 O    0  0  0  0  0  0  0  0  0  0  0  0
    2.2858   -0.0231    0.0000 C    0  0  0  0  0  0  0  0  0  0  0  0
    4.5947   -0.0231    0.0000 C    0  0  0  0  0  0  0  0  0  0  0  0
   11.5444   -5.0218    0.0000 C    0  0  0  0  0  0  0  0  0  0  0  0
    3.4402   -0.6811    0.0000 C    0  0  0  0  0  0  0  0  0  0  0  0
   10.3899   -1.7201    0.0000 C    0  0  0  0  0  0  0  0  0  0  0  0
   10.3899   -3.0362    0.0000 C    0  0  0  0  0  0  0  0  0  0  0  0
   11.5444   -3.6942    0.0000 C    0  0  0  0  0  0  0  0  0  0  0  0
    9.2471   -1.0390    0.0000 C    0  0  0  0  0  0  0  0  0  0  0  0
    7.7347   -4.0290    0.0000 H    0  0  0  0  0  0  0  0  0  0  0  0
    3.7519   -4.0290    0.0000 H    0  0  0  0  0  0  0  0  0  0  0  0
    2.1242   -3.0246    0.0000 Na   0  3  0  0  0  0  0  0  0  0  0  0
  1  2  1  0  0  0  0
  1  4  1  0  0  0  0
  1  6  1  0  0  0  0
  1 27  1  1  0  0  0
  2  3  1  0  0  0  0
  2  9  1  0  0  0  0
  2 26  1  1  0  0  0
  3  5  1  1  0  0  0
  3  8  1  0  0  0  0
  4  7  1  0  0  0  0
  5 10  2  0  0  0  0
  6  8  1  0  0  0  0
  7 12  2  0  0  0  0
  7  9  1  0  0  0  0
  8 14  1  6  0  0  0
 10 16  1  0  0  0  0
 11 18  1  0  0  0  0
 11 13  2  0  0  0  0
 11 15  1  0  0  0  0
 12 19  1  0  0  0  0
 16 17  1  6  0  0  0
 16 20  1  0  0  0  0
 18 21  1  0  0  0  0
 19 21  1  0  0  0  0
 20 24  1  0  0  0  0
 22 23  1  0  0  0  0
 22 25  1  0  0  0  0
 23 24  1  0  0  0  0
M  END
> <ID>
11834

> <Formula>
C20H31NaO5

> <FW>
374.4469 (351.4577+22.9892)

> <DSSTox_CID>
26617

> <DSSTox_RID>
81769

> <DSSTox_GSID>
46617

> <DSSTox_FileID_Sort>
6450

> <TS_ChemName>
Epoprostenol sodium

> <TS_ChemName_Synonyms>


> <TS_CASRN>
61849-14-7

> <CASRN_ChemName_Relationship>
primary

> <TS_Description>
single chemical compound

> <ChemNote>
stereochem

> <STRUCTURE_Shown>
tested chemical

> <STRUCTURE_Formula>
C20H31NaO5

> <STRUCTURE_MW>
374.4469

> <STRUCTURE_ChemType>
defined organic

> <STRUCTURE_DefinedOrganicForm>
salt

> <STRUCTURE_IUPAC>
sodium (5Z,9alpha,11alpha,13E,15S)-11,15-dihydroxy-6,9-epoxyprosta-5,13-dien-1-oate

> <STRUCTURE_SMILES>
[Na+].[O-]C(=O)CCC\C=C1\C[C@@H]2[C@@H](/C=C/[C@@H](O)CCCCC)[C@H](O)C[C@@H]2O1

> <STRUCTURE_SMILES_Desalt>
O=C(O)CCC\C=C1\C[C@@H]2[C@@H](/C=C/[C@@H](O)CCCCC)[C@H](O)C[C@@H]2O1

> <Substance_modify_yyyymmdd>
20110809

$$$$
