619-23-8
ChemmineR-0915142007XD

 11 11  0  0  0  0  0  0  0  0  2 V2000
    1.1534   -2.6590    0.0000 N    0  3  0  0  0  0  0  0  0  0  0  0
    1.1534   -3.9851    0.0000 O    0  0  0  0  0  0  0  0  0  0  0  0
    0.0000   -1.9891    0.0000 O    0  5  0  0  0  0  0  0  0  0  0  0
    2.2999   -1.9891    0.0000 C    0  0  0  0  0  0  0  0  0  0  0  0
    2.2999   -0.6630    0.0000 C    0  0  0  0  0  0  0  0  0  0  0  0
    3.4533    0.0000    0.0000 C    0  0  0  0  0  0  0  0  0  0  0  0
    4.6067   -0.6630    0.0000 C    0  0  0  0  0  0  0  0  0  0  0  0
    4.6067   -1.9891    0.0000 C    0  0  0  0  0  0  0  0  0  0  0  0
    5.7531   -2.6590    0.0000 C    0  0  0  0  0  0  0  0  0  0  0  0
    6.9065   -1.9891    0.0000 Cl   0  0  0  0  0  0  0  0  0  0  0  0
    3.4533   -2.6590    0.0000 C    0  0  0  0  0  0  0  0  0  0  0  0
  1  2  2  0  0  0  0
  1  3  1  0  0  0  0
  1  4  1  0  0  0  0
  4  5  2  0  0  0  0
  4 11  1  0  0  0  0
  5  6  1  0  0  0  0
  6  7  2  0  0  0  0
  7  8  1  0  0  0  0
  8  9  1  0  0  0  0
  8 11  2  0  0  0  0
  9 10  1  0  0  0  0
M  END
> <ID>
4379

> <Formula>
C7H6ClNO2

> <FW>
171.581

> <DSSTox_CID>
5743

> <DSSTox_RID>
77904

> <DSSTox_GSID>
25743

> <DSSTox_FileID_Sort>
2587

> <TS_ChemName>
3-Nitrobenzyl chloride

> <TS_ChemName_Synonyms>
3-Nitrobenzyl chloride (m-Nitrobenzyl chloride)

> <TS_CASRN>
619-23-8

> <CASRN_ChemName_Relationship>
primary

> <TS_Description>
single chemical compound

> <ChemNote>


> <STRUCTURE_Shown>
tested chemical

> <STRUCTURE_Formula>
C7H6ClNO2

> <STRUCTURE_MW>
171.581

> <STRUCTURE_ChemType>
defined organic

> <STRUCTURE_DefinedOrganicForm>
parent

> <STRUCTURE_IUPAC>
1-(chloromethyl)-3-nitrobenzene

> <STRUCTURE_SMILES>
O=[N+]([O-])c1cc(CCl)ccc1

> <STRUCTURE_SMILES_Desalt>
O=[N+]([O-])c1cc(CCl)ccc1

> <Substance_modify_yyyymmdd>
20080429

$$$$
