619-65-8
ChemmineR-0915142007XD

 11 11  0  0  0  0  0  0  0  0  1 V2000
    4.6398   -1.3364    0.0000 C   0  0  0  0  0  0  0  0  0  0  0  0
    4.6398    0.0000    0.0000 O   0  0  0  0  0  0  0  0  0  0  0  0
    3.4596   -1.9901    0.0000 C   0  0  0  0  0  0  0  0  0  0  0  0
    5.7853   -1.9901    0.0000 O   0  0  0  0  0  0  0  0  0  0  0  0
    2.3257   -1.3364    0.0000 C   0  0  0  0  0  0  0  0  0  0  0  0
    3.4596   -3.3323    0.0000 C   0  0  0  0  0  0  0  0  0  0  0  0
    1.1802   -1.9901    0.0000 C   0  0  0  0  0  0  0  0  0  0  0  0
    2.3257   -3.9861    0.0000 C   0  0  0  0  0  0  0  0  0  0  0  0
    1.1802   -3.3323    0.0000 C   0  0  0  0  0  0  0  0  0  0  0  0
    0.0000   -3.9861    0.0000 C   0  0  0  0  0  0  0  0  0  0  0  0
    0.0000   -5.3225    0.0000 N   0  0  0  0  0  0  0  0  0  0  0  0
  1  2  2  0  0  0  0
  1  3  1  0  0  0  0
  1  4  1  0  0  0  0
  3  5  2  0  0  0  0
  3  6  1  0  0  0  0
  5  7  1  0  0  0  0
  6  8  2  0  0  0  0
  7  9  2  0  0  0  0
  8  9  1  0  0  0  0
  9 10  1  0  0  0  0
 10 11  3  0  0  0  0
M  END
> <ID>
8615

> <Formula>
C8H5NO2

> <FW>
147.1308

> <DSSTox_CID>
21659

> <DSSTox_RID>
79806

> <DSSTox_GSID>
41659

> <DSSTox_FileID_Sort>
4488

> <TS_ChemName>
Benzoic acid, 4-cyano-

> <TS_ChemName_Synonyms>


> <TS_CASRN>
619-65-8

> <CASRN_ChemName_Relationship>
primary

> <TS_Description>
single chemical compound

> <ChemNote>


> <STRUCTURE_Shown>
tested chemical

> <STRUCTURE_Formula>
C8H5NO2

> <STRUCTURE_MW>
147.1308

> <STRUCTURE_ChemType>
defined organic

> <STRUCTURE_DefinedOrganicForm>
parent

> <STRUCTURE_IUPAC>
4-cyanobenzoic acid

> <STRUCTURE_SMILES>
OC(=O)c1ccc(C#N)cc1

> <STRUCTURE_SMILES_Desalt>
OC(=O)c1ccc(C#N)cc1

> <Substance_modify_yyyymmdd>
20080825

$$$$
