61914-43-0
ChemmineR-0915142007XD

 13 13  0  0  1  0  0  0  0  0  1 V2000
    0.0000   -1.1556    0.0000 N   0  0  0  0  0  0  0  0  0  0  0  0
    1.3281   -1.1556    0.0000 C   0  0  0  0  0  0  0  0  0  0  0  0
    2.0007    0.0000    0.0000 O   0  0  0  0  0  0  0  0  0  0  0  0
    2.0007   -2.2882    0.0000 C   0  0  0  0  0  0  0  0  0  0  0  0
    3.3288   -2.2882    0.0000 O   0  0  0  0  0  0  0  0  0  0  0  0
    3.9899   -3.4437    0.0000 C   0  0  0  0  0  0  0  0  0  0  0  0
    5.3180   -3.4437    0.0000 O   0  0  0  0  0  0  0  0  0  0  0  0
    3.3288   -4.5936    0.0000 C   0  0  0  0  0  0  0  0  0  0  0  0
    3.9899   -5.7491    0.0000 O   0  0  0  0  0  0  0  0  0  0  0  0
    2.0007   -4.5936    0.0000 C   0  0  0  0  0  0  0  0  0  0  0  0
    1.3281   -5.7491    0.0000 O   0  0  0  0  0  0  0  0  0  0  0  0
    1.3281   -3.4437    0.0000 C   0  0  0  0  0  0  0  0  0  0  0  0
    0.0000   -3.4437    0.0000 O   0  0  0  0  0  0  0  0  0  0  0  0
  1  2  1  0  0  0  0
  2  3  2  0  0  0  0
  4  2  1  1  0  0  0
  4  5  1  0  0  0  0
  4 12  1  0  0  0  0
  5  6  1  0  0  0  0
  6  7  1  1  0  0  0
  6  8  1  0  0  0  0
  8  9  1  6  0  0  0
  8 10  1  0  0  0  0
 10 11  1  1  0  0  0
 10 12  1  0  0  0  0
 12 13  1  6  0  0  0
M  END
> <ID>
11555

> <Formula>
C6H11NO6

> <FW>
193.1546

> <DSSTox_CID>
26261

> <DSSTox_RID>
81488

> <DSSTox_GSID>
46261

> <DSSTox_FileID_Sort>
6169

> <TS_ChemName>
Glucuronamide

> <TS_ChemName_Synonyms>


> <TS_CASRN>
61914-43-0

> <CASRN_ChemName_Relationship>
primary

> <TS_Description>
single chemical compound

> <ChemNote>
stereochem

> <STRUCTURE_Shown>
tested chemical

> <STRUCTURE_Formula>
C6H11NO6

> <STRUCTURE_MW>
193.1546

> <STRUCTURE_ChemType>
defined organic

> <STRUCTURE_DefinedOrganicForm>
parent

> <STRUCTURE_IUPAC>
(2S,3S,4S,5R,6R)-3,4,5,6-tetrahydroxytetrahydro-2H-pyran-2-carboxamide

> <STRUCTURE_SMILES>
O[C@H]1[C@H](O)[C@H](O[C@@H](O)[C@@H]1O)C(N)=O

> <STRUCTURE_SMILES_Desalt>
O[C@H]1[C@H](O)[C@H](O[C@@H](O)[C@@H]1O)C(N)=O

> <Substance_modify_yyyymmdd>
20110816

$$$$
