6192-62-7
ChemmineR-0915142007XD

 37 41  0  0  1  0  0  0  0  0  1 V2000
    6.8115   -3.1111    0.0000 C    0  0  0  0  0  0  0  0  0  0  0  0
   10.1830   -2.0695    0.0000 C    0  0  0  0  0  0  0  0  0  0  0  0
    6.8115   -4.4268    0.0000 C    0  0  0  0  0  0  0  0  0  0  0  0
    3.4126   -5.0572    0.0000 C    0  0  0  0  0  0  0  0  0  0  0  0
    8.0450   -2.6999    0.0000 C    0  0  0  0  0  0  0  0  0  0  0  0
   10.1830   -3.4126    0.0000 O    0  0  0  0  0  0  0  0  0  0  0  0
    8.8125   -3.8375    0.0000 C    0  0  0  0  0  0  0  0  0  0  0  0
    4.5638   -4.4131    0.0000 C    0  0  0  0  0  0  0  0  0  0  0  0
    5.6877   -5.0572    0.0000 C    0  0  0  0  0  0  0  0  0  0  0  0
    8.0450   -4.8242    0.0000 C    0  0  0  0  0  0  0  0  0  0  0  0
   10.1830   -0.7127    0.0000 C    0  0  0  0  0  0  0  0  0  0  0  0
    8.8125   -1.5761    0.0000 C    0  0  0  0  0  0  0  0  0  0  0  0
    3.4126   -6.3729    0.0000 C    0  0  0  0  0  0  0  0  0  0  0  0
    5.6877   -2.4532    0.0000 C    0  0  0  0  0  0  0  0  0  0  0  0
    4.5638   -3.1111    0.0000 C    0  0  0  0  0  0  0  0  0  0  0  0
    2.2888   -4.4131    0.0000 C    0  0  0  0  0  0  0  0  0  0  0  0
    5.6877   -6.3729    0.0000 C    0  0  0  0  0  0  0  0  0  0  0  0
   11.3753   -2.7410    0.0000 N    0  0  0  0  0  0  0  0  0  0  0  0
    4.5638   -7.0171    0.0000 C    0  0  0  0  0  0  0  0  0  0  0  0
    2.2888   -7.0171    0.0000 C    0  0  0  0  0  0  0  0  0  0  0  0
   11.3479   -0.0137    0.0000 C    0  0  0  0  0  0  0  0  0  0  0  0
    6.8115   -1.8091    0.0000 C    0  0  0  0  0  0  0  0  0  0  0  0
    1.1649   -5.0572    0.0000 C    0  0  0  0  0  0  0  0  0  0  0  0
    1.1649   -6.3592    0.0000 C    0  0  0  0  0  0  0  0  0  0  0  0
    3.4126   -3.8786    0.0000 C    0  0  0  0  0  0  0  0  0  0  0  0
   12.5403   -2.0284    0.0000 C    0  0  0  0  0  0  0  0  0  0  0  0
   12.5403   -0.6853    0.0000 C    0  0  0  0  0  0  0  0  0  0  0  0
    0.0000   -7.0034    0.0000 O    0  0  0  0  0  0  0  0  0  0  0  0
    8.3328   -0.3015    0.0000 C    0  0  0  0  0  0  0  0  0  0  0  0
   13.7052    0.0000    0.0000 C    0  0  0  0  0  0  0  0  0  0  0  0
    6.8115   -5.7014    0.0000 H    0  0  0  0  0  0  0  0  0  0  0  0
    3.4126   -7.5516    0.0000 H    0  0  0  0  0  0  0  0  0  0  0  0
    5.6877   -3.6456    0.0000 H    0  0  0  0  0  0  0  0  0  0  0  0
    4.5638   -5.8384    0.0000 H    0  0  0  0  0  0  0  0  0  0  0  0
    8.0450   -4.1527    0.0000 H    0  0  0  0  0  0  0  0  0  0  0  0
    8.8125   -2.4121    0.0000 H    0  0  0  0  0  0  0  0  0  0  0  0
   10.8820   -5.5095    0.0000 Cl   0  0  0  0  0  0  0  0  0  0  0  0
  1  3  1  0  0  0  0
  1  5  1  0  0  0  0
  1 14  1  0  0  0  0
  1 22  1  1  0  0  0
  2 12  1  0  0  0  0
  2 11  1  0  0  0  0
  2 18  1  1  0  0  0
  2  6  1  0  0  0  0
  3  9  1  0  0  0  0
  3 10  1  0  0  0  0
  3 31  1  6  0  0  0
  4  8  1  0  0  0  0
  4 13  1  0  0  0  0
  4 16  1  0  0  0  0
  4 25  1  1  0  0  0
  5  7  1  0  0  0  0
  5 12  1  0  0  0  0
  5 35  1  6  0  0  0
  6  7  1  0  0  0  0
  7 10  1  0  0  0  0
  7 36  1  6  0  0  0
  8 15  1  0  0  0  0
  8  9  1  0  0  0  0
  8 34  1  6  0  0  0
  9 17  1  0  0  0  0
  9 33  1  1  0  0  0
 11 21  1  0  0  0  0
 12 29  1  6  0  0  0
 13 20  1  0  0  0  0
 13 32  1  6  0  0  0
 13 19  1  0  0  0  0
 14 15  1  0  0  0  0
 16 23  1  0  0  0  0
 17 19  1  0  0  0  0
 18 26  1  0  0  0  0
 20 24  1  0  0  0  0
 21 27  1  0  0  0  0
 23 24  1  0  0  0  0
 24 28  1  1  0  0  0
 26 27  1  0  0  0  0
 27 30  1  6  0  0  0
M  END
> <ID>
11336

> <Formula>
C27H46ClNO2

> <FW>
452.1126 (415.6517+36.4609)

> <DSSTox_CID>
25978

> <DSSTox_RID>
81268

> <DSSTox_GSID>
45978

> <DSSTox_FileID_Sort>
5949

> <TS_ChemName>
Tomatidine hydrochloride

> <TS_ChemName_Synonyms>


> <TS_CASRN>
6192-62-7

> <CASRN_ChemName_Relationship>
primary

> <TS_Description>
single chemical compound

> <ChemNote>
stereochem; parent [77-59-8]

> <STRUCTURE_Shown>
tested chemical

> <STRUCTURE_Formula>
C27H46ClNO2

> <STRUCTURE_MW>
452.1126

> <STRUCTURE_ChemType>
defined organic

> <STRUCTURE_DefinedOrganicForm>
complex

> <STRUCTURE_IUPAC>
(3beta,5alpha,25S)-spirosolan-3-ol hydrochloride (1:1)

> <STRUCTURE_SMILES>
Cl.C[C@H]6[C@H]2[C@H](C[C@H]3[C@@H]4CC[C@H]1C[C@@H](O)CC[C@]1(C)[C@H]4CC[C@]23C)O[C@]56CC[C@H](C)CN5

> <STRUCTURE_SMILES_Desalt>
C[C@H]6[C@H]2[C@H](C[C@H]3[C@@H]4CC[C@H]1C[C@@H](O)CC[C@]1(C)[C@H]4CC[C@]23C)O[C@]56CC[C@H](C)CN5

> <Substance_modify_yyyymmdd>
20110825

$$$$
