61931-82-6
ChemmineR-0915142007XD

 20 21  0  0  0  0  0  0  0  0  1 V2000
    4.6160   -4.6483    0.0000 C   0  0  0  0  0  0  0  0  0  0  0  0
    5.7680   -3.9877    0.0000 C   0  0  0  0  0  0  0  0  0  0  0  0
    6.9200   -4.6483    0.0000 C   0  0  0  0  0  0  0  0  0  0  0  0
    6.9200   -5.9775    0.0000 C   0  0  0  0  0  0  0  0  0  0  0  0
    5.7680   -6.6461    0.0000 C   0  0  0  0  0  0  0  0  0  0  0  0
    4.6160   -5.9775    0.0000 C   0  0  0  0  0  0  0  0  0  0  0  0
    3.4560   -3.9877    0.0000 N   0  0  0  0  0  0  0  0  0  0  0  0
    8.0559   -6.6461    0.0000 N   0  0  0  0  0  0  0  0  0  0  0  0
    3.4560   -2.6584    0.0000 C   0  0  0  0  0  0  0  0  0  0  0  0
    4.6160   -1.9818    0.0000 C   0  0  0  0  0  0  0  0  0  0  0  0
    4.6160   -0.6525    0.0000 C   0  0  0  0  0  0  0  0  0  0  0  0
    5.7680    0.0000    0.0000 C   0  0  0  0  0  0  0  0  0  0  0  0
    2.3040   -1.9818    0.0000 C   0  0  0  0  0  0  0  0  0  0  0  0
    3.4560    0.0000    0.0000 C   0  0  0  0  0  0  0  0  0  0  0  0
    1.1520   -6.6461    0.0000 C   0  0  0  0  0  0  0  0  0  0  0  0
    0.0000   -5.9775    0.0000 C   0  0  0  0  0  0  0  0  0  0  0  0
    0.0000   -4.6483    0.0000 C   0  0  0  0  0  0  0  0  0  0  0  0
    1.1520   -3.9877    0.0000 C   0  0  0  0  0  0  0  0  0  0  0  0
    2.3040   -4.6483    0.0000 C   0  0  0  0  0  0  0  0  0  0  0  0
    2.3040   -5.9775    0.0000 C   0  0  0  0  0  0  0  0  0  0  0  0
  1  2  2  0  0  0  0
  1  6  1  0  0  0  0
  1  7  1  0  0  0  0
  2  3  1  0  0  0  0
  3  4  2  0  0  0  0
  4  5  1  0  0  0  0
  4  8  1  0  0  0  0
  5  6  2  0  0  0  0
  7  9  1  0  0  0  0
  7 19  1  0  0  0  0
  9 10  1  0  0  0  0
  9 13  1  0  0  0  0
 10 11  1  0  0  0  0
 11 12  1  0  0  0  0
 11 14  1  0  0  0  0
 15 20  2  0  0  0  0
 15 16  1  0  0  0  0
 16 17  2  0  0  0  0
 17 18  1  0  0  0  0
 18 19  2  0  0  0  0
 19 20  1  0  0  0  0
M  END
> <ID>
10613

> <Formula>
C18H24N2

> <FW>
268.3966

> <DSSTox_CID>
24966

> <DSSTox_RID>
80619

> <DSSTox_GSID>
44966

> <DSSTox_FileID_Sort>
5301

> <TS_ChemName>
N-(4-Methylpentan-2-yl)-N-phenylbenzene-1,4-diamine

> <TS_ChemName_Synonyms>
N-(4-Methylpentan-2-yl)-N-phenylbenzene-1,4-diamine (1,4-Benzenediamine, N-(1,3-dimethylbutyl)-N-phenyl-)

> <TS_CASRN>
61931-82-6

> <CASRN_ChemName_Relationship>
primary

> <TS_Description>
single chemical compound

> <ChemNote>


> <STRUCTURE_Shown>
tested chemical

> <STRUCTURE_Formula>
C18H24N2

> <STRUCTURE_MW>
268.3966

> <STRUCTURE_ChemType>
defined organic

> <STRUCTURE_DefinedOrganicForm>
parent

> <STRUCTURE_IUPAC>
N-(4-methylpentan-2-yl)-N-phenylbenzene-1,4-diamine

> <STRUCTURE_SMILES>
CC(C)CC(C)N(c1ccccc1)c2ccc(N)cc2

> <STRUCTURE_SMILES_Desalt>
CC(C)CC(C)N(c1ccccc1)c2ccc(N)cc2

> <Substance_modify_yyyymmdd>
20091116

$$$$
