61941-56-8
ChemmineR-0915142007XD

 20 20  0  0  0  0  0  0  0  0  2 V2000
    4.6324   -1.9726    0.0000 C    0  0  0  0  0  0  0  0  0  0  0  0
    3.4688   -1.3188    0.0000 C    0  0  0  0  0  0  0  0  0  0  0  0
    5.7850   -1.3188    0.0000 C    0  0  0  0  0  0  0  0  0  0  0  0
    6.9154   -1.9726    0.0000 C    0  0  0  0  0  0  0  0  0  0  0  0
    9.2759   -1.9726    0.0000 C    0  0  0  0  0  0  0  0  0  0  0  0
    8.1012   -1.3188    0.0000 C    0  0  0  0  0  0  0  0  0  0  0  0
    3.4688    0.0000    0.0000 O    0  0  0  0  0  0  0  0  0  0  0  0
    2.3162   -1.9726    0.0000 C    0  0  0  0  0  0  0  0  0  0  0  0
    9.2759   -3.3025    0.0000 O    0  0  0  0  0  0  0  0  0  0  0  0
    5.7850    0.0000    0.0000 N    0  0  0  0  0  0  0  0  0  0  0  0
    4.6324   -3.3025    0.0000 C    0  0  0  0  0  0  0  0  0  0  0  0
   10.4063   -1.3188    0.0000 O    0  5  0  0  0  0  0  0  0  0  0  0
    6.9154   -3.3025    0.0000 C    0  0  0  0  0  0  0  0  0  0  0  0
    5.7850   -3.9896    0.0000 C    0  0  0  0  0  0  0  0  0  0  0  0
    2.3162   -3.3025    0.0000 C    0  0  0  0  0  0  0  0  0  0  0  0
    1.1526   -1.3188    0.0000 C    0  0  0  0  0  0  0  0  0  0  0  0
    0.0000   -1.9726    0.0000 C    0  0  0  0  0  0  0  0  0  0  0  0
    1.1526   -3.9896    0.0000 C    0  0  0  0  0  0  0  0  0  0  0  0
    0.0000   -3.3025    0.0000 C    0  0  0  0  0  0  0  0  0  0  0  0
   11.0823   -2.6154    0.0000 Na   0  3  0  0  0  0  0  0  0  0  0  0
  1  2  1  0  0  0  0
  1  3  2  0  0  0  0
  1 11  1  0  0  0  0
  2  7  2  0  0  0  0
  2  8  1  0  0  0  0
  3  4  1  0  0  0  0
  3 10  1  0  0  0  0
  4  6  1  0  0  0  0
  4 13  2  0  0  0  0
  5  6  1  0  0  0  0
  5  9  2  0  0  0  0
  5 12  1  0  0  0  0
  8 15  1  0  0  0  0
  8 16  2  0  0  0  0
 11 14  2  0  0  0  0
 13 14  1  0  0  0  0
 15 18  2  0  0  0  0
 16 17  1  0  0  0  0
 17 19  2  0  0  0  0
 18 19  1  0  0  0  0
M  END
> <ID>
13653

> <Formula>
C15H12NNaO3

> <FW>
277.2504 (254.2612+22.9892)

> <DSSTox_CID>
28584

> <DSSTox_RID>
82855

> <DSSTox_GSID>
48658

> <DSSTox_FileID_Sort>
7532

> <TS_ChemName>
Amfenac sodium

> <TS_ChemName_Synonyms>


> <TS_CASRN>
61941-56-8

> <CASRN_ChemName_Relationship>
primary

> <TS_Description>
single chemical compound

> <ChemNote>


> <STRUCTURE_Shown>
tested chemical

> <STRUCTURE_Formula>
C15H12NNaO3

> <STRUCTURE_MW>
277.2504

> <STRUCTURE_ChemType>
defined organic

> <STRUCTURE_DefinedOrganicForm>
salt

> <STRUCTURE_IUPAC>
sodium (2-amino-3-benzoylphenyl)acetate

> <STRUCTURE_SMILES>
[Na+].Nc1c(cccc1CC([O-])=O)C(=O)c2ccccc2

> <STRUCTURE_SMILES_Desalt>
Nc1c(cccc1CC(=O)O)C(=O)c2ccccc2

> <Substance_modify_yyyymmdd>
20111204

$$$$
