6197-30-4
ChemmineR-0915142007XD

 27 28  0  0  0  0  0  0  0  0  1 V2000
    5.9908    0.0000    0.0000 C   0  0  0  0  0  0  0  0  0  0  0  0
    6.6480   -1.1501    0.0000 C   0  0  0  0  0  0  0  0  0  0  0  0
    5.9908   -2.3003    0.0000 C   0  0  0  0  0  0  0  0  0  0  0  0
    4.6511   -2.3003    0.0000 C   0  0  0  0  0  0  0  0  0  0  0  0
    3.9939   -3.4630    0.0000 C   0  0  0  0  0  0  0  0  0  0  0  0
    2.6668   -3.4630    0.0000 C   0  0  0  0  0  0  0  0  0  0  0  0
    1.9969   -4.6132    0.0000 C   0  0  0  0  0  0  0  0  0  0  0  0
    0.6699   -4.6132    0.0000 C   0  0  0  0  0  0  0  0  0  0  0  0
    0.0000   -3.4630    0.0000 C   0  0  0  0  0  0  0  0  0  0  0  0
    1.9969   -2.3003    0.0000 C   0  0  0  0  0  0  0  0  0  0  0  0
    0.6699   -2.3003    0.0000 C   0  0  0  0  0  0  0  0  0  0  0  0
    4.6511   -4.6132    0.0000 C   0  0  0  0  0  0  0  0  0  0  0  0
    3.9939   -5.7633    0.0000 C   0  0  0  0  0  0  0  0  0  0  0  0
    3.3240   -6.9134    0.0000 N   0  0  0  0  0  0  0  0  0  0  0  0
    5.9908   -4.6132    0.0000 C   0  0  0  0  0  0  0  0  0  0  0  0
    6.6480   -5.7633    0.0000 O   0  0  0  0  0  0  0  0  0  0  0  0
    6.6480   -3.4630    0.0000 O   0  0  0  0  0  0  0  0  0  0  0  0
    7.9877   -3.4630    0.0000 C   0  0  0  0  0  0  0  0  0  0  0  0
    8.6450   -4.6132    0.0000 C   0  0  0  0  0  0  0  0  0  0  0  0
    7.9877   -5.7633    0.0000 C   0  0  0  0  0  0  0  0  0  0  0  0
    8.6450   -6.9134    0.0000 C   0  0  0  0  0  0  0  0  0  0  0  0
    9.9720   -4.6132    0.0000 C   0  0  0  0  0  0  0  0  0  0  0  0
   10.6419   -5.7633    0.0000 C   0  0  0  0  0  0  0  0  0  0  0  0
   11.9690   -5.7633    0.0000 C   0  0  0  0  0  0  0  0  0  0  0  0
   12.6388   -6.9134    0.0000 C   0  0  0  0  0  0  0  0  0  0  0  0
    4.6511    0.0000    0.0000 C   0  0  0  0  0  0  0  0  0  0  0  0
    3.9939   -1.1501    0.0000 C   0  0  0  0  0  0  0  0  0  0  0  0
  1  2  2  0  0  0  0
  1 26  1  0  0  0  0
  2  3  1  0  0  0  0
  3  4  2  0  0  0  0
  4  5  1  0  0  0  0
  4 27  1  0  0  0  0
  5  6  1  0  0  0  0
  5 12  2  0  0  0  0
  6  7  2  0  0  0  0
  6 10  1  0  0  0  0
  7  8  1  0  0  0  0
  8  9  2  0  0  0  0
  9 11  1  0  0  0  0
 10 11  2  0  0  0  0
 12 13  1  0  0  0  0
 12 15  1  0  0  0  0
 13 14  3  0  0  0  0
 15 16  2  0  0  0  0
 15 17  1  0  0  0  0
 17 18  1  0  0  0  0
 18 19  1  0  0  0  0
 19 20  1  0  0  0  0
 19 22  1  0  0  0  0
 20 21  1  0  0  0  0
 22 23  1  0  0  0  0
 23 24  1  0  0  0  0
 24 25  1  0  0  0  0
 26 27  2  0  0  0  0
M  END
> <ID>
4127

> <Formula>
C24H27NO2

> <FW>
361.4767

> <DSSTox_CID>
5299

> <DSSTox_RID>
77734

> <DSSTox_GSID>
25299

> <DSSTox_FileID_Sort>
2417

> <TS_ChemName>
2-Ethylhexyl-2-cyano-3,3-diphenylacrylate

> <TS_ChemName_Synonyms>
2-Ethylhexyl 2-cyano-3,3-diphenylacrylate (Octocrylene)

> <TS_CASRN>
6197-30-4

> <CASRN_ChemName_Relationship>
primary

> <TS_Description>
single chemical compound

> <ChemNote>


> <STRUCTURE_Shown>
tested chemical

> <STRUCTURE_Formula>
C24H27NO2

> <STRUCTURE_MW>
361.4767

> <STRUCTURE_ChemType>
defined organic

> <STRUCTURE_DefinedOrganicForm>
parent

> <STRUCTURE_IUPAC>
2-ethylhexyl 2-cyano-3,3-diphenylprop-2-enoate

> <STRUCTURE_SMILES>
CCC(CCCC)COC(=O)C(\C#N)=C(\c1ccccc1)c2ccccc2

> <STRUCTURE_SMILES_Desalt>
CCC(CCCC)COC(=O)C(\C#N)=C(\c1ccccc1)c2ccccc2

> <Substance_modify_yyyymmdd>
20080429

$$$$
