62-23-7
ChemmineR-0915142007XD

 12 12  0  0  0  0  0  0  0  0  2 V2000
    0.0000    0.0000    0.0000 O   0  0  0  0  0  0  0  0  0  0  0  0
    0.6654   -1.1511    0.0000 C   0  0  0  0  0  0  0  0  0  0  0  0
    0.0000   -2.3023    0.0000 O   0  0  0  0  0  0  0  0  0  0  0  0
    1.9962   -1.1511    0.0000 C   0  0  0  0  0  0  0  0  0  0  0  0
    2.6616    0.0000    0.0000 C   0  0  0  0  0  0  0  0  0  0  0  0
    3.9924    0.0000    0.0000 C   0  0  0  0  0  0  0  0  0  0  0  0
    4.6578   -1.1511    0.0000 C   0  0  0  0  0  0  0  0  0  0  0  0
    3.9924   -2.3023    0.0000 C   0  0  0  0  0  0  0  0  0  0  0  0
    2.6616   -2.3023    0.0000 C   0  0  0  0  0  0  0  0  0  0  0  0
    5.9885   -1.1511    0.0000 N   0  3  0  0  0  0  0  0  0  0  0  0
    6.6539    0.0000    0.0000 O   0  0  0  0  0  0  0  0  0  0  0  0
    6.6539   -2.3023    0.0000 O   0  5  0  0  0  0  0  0  0  0  0  0
  1  2  1  0  0  0  0
  2  3  2  0  0  0  0
  2  4  1  0  0  0  0
  4  5  2  0  0  0  0
  4  9  1  0  0  0  0
  5  6  1  0  0  0  0
  6  7  2  0  0  0  0
  7  8  1  0  0  0  0
  7 10  1  0  0  0  0
  8  9  2  0  0  0  0
 10 11  2  0  0  0  0
 10 12  1  0  0  0  0
M  END
> <ID>
930

> <Formula>
C7H5NO4

> <FW>
167.1189

> <DSSTox_CID>
966

> <DSSTox_RID>
75894

> <DSSTox_GSID>
20966

> <DSSTox_FileID_Sort>
578

> <TS_ChemName>
4-Nitrobenzoic acid

> <TS_ChemName_Synonyms>


> <TS_CASRN>
62-23-7

> <CASRN_ChemName_Relationship>
primary

> <TS_Description>
single chemical compound

> <ChemNote>


> <STRUCTURE_Shown>
tested chemical

> <STRUCTURE_Formula>
C7H5NO4

> <STRUCTURE_MW>
167.1189

> <STRUCTURE_ChemType>
defined organic

> <STRUCTURE_DefinedOrganicForm>
parent

> <STRUCTURE_IUPAC>
4-nitrobenzoic acid

> <STRUCTURE_SMILES>
O=[N+]([O-])c1ccc(cc1)C(=O)O

> <STRUCTURE_SMILES_Desalt>
O=[N+]([O-])c1ccc(cc1)C(=O)O

> <Substance_modify_yyyymmdd>
20080429

$$$$
