62-33-9
ChemmineR-0915142007XD

 23 19  0  0  0  0  0  0  0  0  2 V2000
    3.8442   -7.2666    0.0000 Ca   0  2  0  0  0  0  0  0  0  0  0  0
    1.3900    0.0000    0.0000 Na   0  3  0  0  0  0  0  0  0  0  0  0
    9.5865   -0.0863    0.0000 Na   0  3  0  0  0  0  0  0  0  0  0  0
    4.6015   -4.8124    0.0000 C    0  0  0  0  0  0  0  0  0  0  0  0
    5.7136   -4.1701    0.0000 N    0  0  0  0  0  0  0  0  0  0  0  0
    3.4224   -4.1701    0.0000 C    0  0  0  0  0  0  0  0  0  0  0  0
    2.2912   -4.8124    0.0000 N    0  0  0  0  0  0  0  0  0  0  0  0
    1.1120   -4.1701    0.0000 C    0  0  0  0  0  0  0  0  0  0  0  0
    1.1120   -2.8280    0.0000 C    0  0  0  0  0  0  0  0  0  0  0  0
    2.2912   -6.1545    0.0000 C    0  0  0  0  0  0  0  0  0  0  0  0
    5.7136   -2.8280    0.0000 C    0  0  0  0  0  0  0  0  0  0  0  0
    6.8927   -4.8124    0.0000 C    0  0  0  0  0  0  0  0  0  0  0  0
    6.8927   -6.1545    0.0000 C    0  0  0  0  0  0  0  0  0  0  0  0
    6.8927   -2.1953    0.0000 C    0  0  0  0  0  0  0  0  0  0  0  0
    6.8927   -0.8532    0.0000 O    0  5  0  0  0  0  0  0  0  0  0  0
    8.0718   -2.8280    0.0000 O    0  0  0  0  0  0  0  0  0  0  0  0
    5.7136   -6.7777    0.0000 O    0  5  0  0  0  0  0  0  0  0  0  0
    8.0718   -6.7777    0.0000 O    0  0  0  0  0  0  0  0  0  0  0  0
    0.0000   -2.1282    0.0000 O    0  0  0  0  0  0  0  0  0  0  0  0
    2.2912   -2.1953    0.0000 O    0  5  0  0  0  0  0  0  0  0  0  0
    1.1120   -6.7777    0.0000 C    0  0  0  0  0  0  0  0  0  0  0  0
    1.1120   -8.1198    0.0000 O    0  5  0  0  0  0  0  0  0  0  0  0
    0.0000   -6.1545    0.0000 O    0  0  0  0  0  0  0  0  0  0  0  0
  4  6  1  0  0  0  0
  4  5  1  0  0  0  0
  5 11  1  0  0  0  0
  5 12  1  0  0  0  0
  6  7  1  0  0  0  0
  7 10  1  0  0  0  0
  7  8  1  0  0  0  0
  8  9  1  0  0  0  0
  9 19  2  0  0  0  0
  9 20  1  0  0  0  0
 10 21  1  0  0  0  0
 11 14  1  0  0  0  0
 12 13  1  0  0  0  0
 13 17  1  0  0  0  0
 13 18  2  0  0  0  0
 14 16  2  0  0  0  0
 14 15  1  0  0  0  0
 21 22  1  0  0  0  0
 21 23  2  0  0  0  0
M  END
> <ID>
7115

> <Formula>
C10H12CaN2Na2O8

> <FW>
374.2684 (40.0769+22.9892+22.9892+288.2131)

> <DSSTox_CID>
16409

> <DSSTox_RID>
79279

> <DSSTox_GSID>
36409

> <DSSTox_FileID_Sort>
3961

> <TS_ChemName>
Calcium disodium ethylenediaminetetraacetate

> <TS_ChemName_Synonyms>
Calcium disodium ethylenediaminetetraacetate (Calciate(2-), [[N,N'-1,2-ethanediylbis[N-[(carboxy-.kappa.O)methyl]glycinato-.kappa.N,.kappa.O]](4-)]-, disodium, (OC-6-21)-)

> <TS_CASRN>
62-33-9

> <CASRN_ChemName_Relationship>
primary

> <TS_Description>
single chemical compound

> <ChemNote>
parent [60-00-4]

> <STRUCTURE_Shown>
tested chemical

> <STRUCTURE_Formula>
C10H12CaN2Na2O8

> <STRUCTURE_MW>
374.2684

> <STRUCTURE_ChemType>
defined organic

> <STRUCTURE_DefinedOrganicForm>
salt

> <STRUCTURE_IUPAC>
calcium sodium 2,2',2'',2'''-(ethane-1,2-diyldinitrilo)tetraacetate (1:2:1)

> <STRUCTURE_SMILES>
[Ca+2].[Na+].[Na+].[O-]C(=O)CN(CC([O-])=O)CCN(CC([O-])=O)CC([O-])=O

> <STRUCTURE_SMILES_Desalt>
O=C(O)CN(CCN(CC(=O)O)CC(=O)O)CC(=O)O

> <Substance_modify_yyyymmdd>
20080429

$$$$
