62-44-2
ChemmineR-0915142007XD

 13 13  0  0  0  0  0  0  0  0  1 V2000
    9.2089    0.0000    0.0000 C   0  0  0  0  0  0  0  0  0  0  0  0
    8.0578   -0.6630    0.0000 C   0  0  0  0  0  0  0  0  0  0  0  0
    8.0578   -1.9983    0.0000 O   0  0  0  0  0  0  0  0  0  0  0  0
    6.9067    0.0000    0.0000 N   0  0  0  0  0  0  0  0  0  0  0  0
    5.7556   -0.6630    0.0000 C   0  0  0  0  0  0  0  0  0  0  0  0
    5.7556   -1.9983    0.0000 C   0  0  0  0  0  0  0  0  0  0  0  0
    4.6044   -2.6614    0.0000 C   0  0  0  0  0  0  0  0  0  0  0  0
    3.4533   -1.9983    0.0000 C   0  0  0  0  0  0  0  0  0  0  0  0
    3.4533   -0.6630    0.0000 C   0  0  0  0  0  0  0  0  0  0  0  0
    4.6044    0.0000    0.0000 C   0  0  0  0  0  0  0  0  0  0  0  0
    2.3022   -2.6614    0.0000 O   0  0  0  0  0  0  0  0  0  0  0  0
    1.1511   -1.9983    0.0000 C   0  0  0  0  0  0  0  0  0  0  0  0
    0.0000   -2.6614    0.0000 C   0  0  0  0  0  0  0  0  0  0  0  0
  1  2  1  0  0  0  0
  2  3  2  0  0  0  0
  2  4  1  0  0  0  0
  4  5  1  0  0  0  0
  5  6  2  0  0  0  0
  5 10  1  0  0  0  0
  6  7  1  0  0  0  0
  7  8  2  0  0  0  0
  8  9  1  0  0  0  0
  8 11  1  0  0  0  0
  9 10  2  0  0  0  0
 11 12  1  0  0  0  0
 12 13  1  0  0  0  0
M  END
> <ID>
1072

> <Formula>
C10H13NO2

> <FW>
179.2157

> <DSSTox_CID>
1116

> <DSSTox_RID>
75948

> <DSSTox_GSID>
21116

> <DSSTox_FileID_Sort>
632

> <TS_ChemName>
Phenacetin

> <TS_ChemName_Synonyms>
Phenacetin (p-Acetophenetidide) (Acetamide, N-(4-ethoxyphenyl)-)

> <TS_CASRN>
62-44-2

> <CASRN_ChemName_Relationship>
primary

> <TS_Description>
single chemical compound

> <ChemNote>


> <STRUCTURE_Shown>
tested chemical

> <STRUCTURE_Formula>
C10H13NO2

> <STRUCTURE_MW>
179.2157

> <STRUCTURE_ChemType>
defined organic

> <STRUCTURE_DefinedOrganicForm>
parent

> <STRUCTURE_IUPAC>
N-(4-ethoxyphenyl)acetamide

> <STRUCTURE_SMILES>
CCOc1ccc(cc1)NC(C)=O

> <STRUCTURE_SMILES_Desalt>
CCOc1ccc(cc1)NC(C)=O

> <Substance_modify_yyyymmdd>
20080429

$$$$
