62-51-1
ChemmineR-0915142007XD

 12 10  0  0  0  0  0  0  0  0  2 V2000
    0.0000   -2.0858    0.0000 C    0  0  0  0  0  0  0  0  0  0  0  0
    1.1420   -1.4293    0.0000 C    0  0  0  0  0  0  0  0  0  0  0  0
    1.1420   -0.1026    0.0000 O    0  0  0  0  0  0  0  0  0  0  0  0
    2.2841   -2.0858    0.0000 O    0  0  0  0  0  0  0  0  0  0  0  0
    3.4261   -1.4293    0.0000 C    0  0  0  0  0  0  0  0  0  0  0  0
    3.4261   -0.1026    0.0000 C    0  0  0  0  0  0  0  0  0  0  0  0
    4.5682   -2.0858    0.0000 C    0  0  0  0  0  0  0  0  0  0  0  0
    5.6965   -1.4293    0.0000 N    0  3  0  0  0  0  0  0  0  0  0  0
    5.6350    0.0000    0.0000 C    0  0  0  0  0  0  0  0  0  0  0  0
    6.8386   -0.7659    0.0000 C    0  0  0  0  0  0  0  0  0  0  0  0
    6.3599   -2.5713    0.0000 C    0  0  0  0  0  0  0  0  0  0  0  0
    3.4261   -3.8775    0.0000 Cl   0  5  0  0  0  0  0  0  0  0  0  0
  1  2  1  0  0  0  0
  2  3  2  0  0  0  0
  2  4  1  0  0  0  0
  4  5  1  0  0  0  0
  5  6  1  0  0  0  0
  5  7  1  0  0  0  0
  7  8  1  0  0  0  0
  8  9  1  0  0  0  0
  8 10  1  0  0  0  0
  8 11  1  0  0  0  0
M  END
> <ID>
2937

> <Formula>
C8H18ClNO2

> <FW>
195.6870 (160.2335+35.4535)

> <DSSTox_CID>
3271

> <DSSTox_RID>
76951

> <DSSTox_GSID>
23271

> <DSSTox_FileID_Sort>
1635

> <TS_ChemName>
Methacholine chloride

> <TS_ChemName_Synonyms>


> <TS_CASRN>
62-51-1

> <CASRN_ChemName_Relationship>
primary

> <TS_Description>
single chemical compound

> <ChemNote>
ammonium; parent [55-92-5]

> <STRUCTURE_Shown>
tested chemical

> <STRUCTURE_Formula>
C8H18ClNO2

> <STRUCTURE_MW>
195.687

> <STRUCTURE_ChemType>
defined organic

> <STRUCTURE_DefinedOrganicForm>
salt

> <STRUCTURE_IUPAC>
2-(acetyloxy)-N,N,N-trimethylpropan-1-aminium chloride

> <STRUCTURE_SMILES>
[Cl-].C[N+](C)(C)CC(C)OC(=O)C

> <STRUCTURE_SMILES_Desalt>
C[N+](C)(C)CC(C)OC(=O)C

> <Substance_modify_yyyymmdd>
20120528

$$$$
