62-53-3
ChemmineR-0915142007XD

  7  7  0  0  0  0  0  0  0  0  1 V2000
    0.0000   -1.1496    0.0000 N   0  0  0  0  0  0  0  0  0  0  0  0
    1.3292   -1.1496    0.0000 C   0  0  0  0  0  0  0  0  0  0  0  0
    1.9958    0.0000    0.0000 C   0  0  0  0  0  0  0  0  0  0  0  0
    3.3250    0.0000    0.0000 C   0  0  0  0  0  0  0  0  0  0  0  0
    3.9916   -1.1496    0.0000 C   0  0  0  0  0  0  0  0  0  0  0  0
    3.3250   -2.3032    0.0000 C   0  0  0  0  0  0  0  0  0  0  0  0
    1.9958   -2.3032    0.0000 C   0  0  0  0  0  0  0  0  0  0  0  0
  1  2  1  0  0  0  0
  2  3  2  0  0  0  0
  2  7  1  0  0  0  0
  3  4  1  0  0  0  0
  4  5  2  0  0  0  0
  5  6  1  0  0  0  0
  6  7  2  0  0  0  0
M  END
> <ID>
88

> <Formula>
C6H7N

> <FW>
93.1265

> <DSSTox_CID>
90

> <DSSTox_RID>
75359

> <DSSTox_GSID>
20090

> <DSSTox_FileID_Sort>
43

> <TS_ChemName>
Aniline

> <TS_ChemName_Synonyms>
Benzenamine

> <TS_CASRN>
62-53-3

> <CASRN_ChemName_Relationship>
primary

> <TS_Description>
single chemical compound

> <ChemNote>


> <STRUCTURE_Shown>
tested chemical

> <STRUCTURE_Formula>
C6H7N

> <STRUCTURE_MW>
93.1265

> <STRUCTURE_ChemType>
defined organic

> <STRUCTURE_DefinedOrganicForm>
parent

> <STRUCTURE_IUPAC>
aniline

> <STRUCTURE_SMILES>
Nc1ccccc1

> <STRUCTURE_SMILES_Desalt>
Nc1ccccc1

> <Substance_modify_yyyymmdd>
20080429

$$$$
