62-68-0
ChemmineR-0915142007XD

 27 27  0  0  0  0  0  0  0  0  1 V2000
    7.6147   -5.1191    0.0000 Cl   0  0  0  0  0  0  0  0  0  0  0  0
    3.3381   -3.9993    0.0000 C    0  0  0  0  0  0  0  0  0  0  0  0
    3.3381   -2.6662    0.0000 C    0  0  0  0  0  0  0  0  0  0  0  0
    3.3381   -5.3324    0.0000 C    0  0  0  0  0  0  0  0  0  0  0  0
    4.6712   -3.9993    0.0000 C    0  0  0  0  0  0  0  0  0  0  0  0
    2.0050   -3.9993    0.0000 C    0  0  0  0  0  0  0  0  0  0  0  0
    2.1863   -2.0050    0.0000 C    0  0  0  0  0  0  0  0  0  0  0  0
    4.4793   -2.0050    0.0000 C    0  0  0  0  0  0  0  0  0  0  0  0
    4.4793   -6.0043    0.0000 C    0  0  0  0  0  0  0  0  0  0  0  0
    2.1863   -6.0043    0.0000 C    0  0  0  0  0  0  0  0  0  0  0  0
    5.3324   -2.8475    0.0000 O    0  0  0  0  0  0  0  0  0  0  0  0
    5.3324   -5.1511    0.0000 O    0  0  0  0  0  0  0  0  0  0  0  0
    1.3331   -2.8475    0.0000 C    0  0  0  0  0  0  0  0  0  0  0  0
    2.1863   -0.6719    0.0000 C    0  0  0  0  0  0  0  0  0  0  0  0
    4.4793   -0.6719    0.0000 C    0  0  0  0  0  0  0  0  0  0  0  0
    4.4793   -7.3374    0.0000 C    0  0  0  0  0  0  0  0  0  0  0  0
    2.1863   -7.3374    0.0000 C    0  0  0  0  0  0  0  0  0  0  0  0
    6.6656   -2.8475    0.0000 C    0  0  0  0  0  0  0  0  0  0  0  0
    0.0000   -2.8475    0.0000 C    0  0  0  0  0  0  0  0  0  0  0  0
    3.3381    0.0000    0.0000 C    0  0  0  0  0  0  0  0  0  0  0  0
    3.3381   -7.9987    0.0000 C    0  0  0  0  0  0  0  0  0  0  0  0
    7.3374   -1.7064    0.0000 C    0  0  0  0  0  0  0  0  0  0  0  0
    8.6706   -1.7064    0.0000 N    0  0  0  0  0  0  0  0  0  0  0  0
    9.3318   -0.5439    0.0000 C    0  0  0  0  0  0  0  0  0  0  0  0
    9.3318   -2.8475    0.0000 C    0  0  0  0  0  0  0  0  0  0  0  0
   10.6649   -0.5439    0.0000 C    0  0  0  0  0  0  0  0  0  0  0  0
   10.6649   -2.8475    0.0000 C    0  0  0  0  0  0  0  0  0  0  0  0
  2  3  1  0  0  0  0
  2  4  1  0  0  0  0
  2  5  1  0  0  0  0
  2  6  1  0  0  0  0
  3  7  2  0  0  0  0
  3  8  1  0  0  0  0
  4  9  2  0  0  0  0
  4 10  1  0  0  0  0
  5 11  1  0  0  0  0
  5 12  2  0  0  0  0
  6 13  1  0  0  0  0
  7 14  1  0  0  0  0
  8 15  2  0  0  0  0
  9 16  1  0  0  0  0
 10 17  2  0  0  0  0
 11 18  1  0  0  0  0
 13 19  1  0  0  0  0
 14 20  2  0  0  0  0
 15 20  1  0  0  0  0
 16 21  2  0  0  0  0
 17 21  1  0  0  0  0
 18 22  1  0  0  0  0
 22 23  1  0  0  0  0
 23 24  1  0  0  0  0
 23 25  1  0  0  0  0
 24 26  1  0  0  0  0
 25 27  1  0  0  0  0
M  END
> <ID>
11201

> <Formula>
C23H32ClNO2

> <FW>
389.9587 (36.4609+353.4977)

> <DSSTox_CID>
25792

> <DSSTox_RID>
81133

> <DSSTox_GSID>
45792

> <DSSTox_FileID_Sort>
5814

> <TS_ChemName>
Proadifen hydrochloride

> <TS_ChemName_Synonyms>


> <TS_CASRN>
62-68-0

> <CASRN_ChemName_Relationship>
primary

> <TS_Description>
single chemical compound

> <ChemNote>
parent [302-33-0]

> <STRUCTURE_Shown>
tested chemical

> <STRUCTURE_Formula>
C23H32ClNO2

> <STRUCTURE_MW>
389.9587

> <STRUCTURE_ChemType>
defined organic

> <STRUCTURE_DefinedOrganicForm>
complex

> <STRUCTURE_IUPAC>
2-(diethylamino)ethyl 2,2-diphenylpentanoate hydrochloride (1:1)

> <STRUCTURE_SMILES>
Cl.CCN(CC)CCOC(=O)C(CCC)(c1ccccc1)c2ccccc2

> <STRUCTURE_SMILES_Desalt>
CCN(CC)CCOC(=O)C(CCC)(c1ccccc1)c2ccccc2

> <Substance_modify_yyyymmdd>
20110902

$$$$
