62-74-8
ChemmineR-0915142007XD

  6  4  0  0  0  0  0  0  0  0  2 V2000
    3.1713   -1.3388    0.0000 C    0  0  0  0  0  0  0  0  0  0  0  0
    3.1713    0.0000    0.0000 O    0  0  0  0  0  0  0  0  0  0  0  0
    2.0301   -1.9972    0.0000 O    0  5  0  0  0  0  0  0  0  0  0  0
    5.4868   -1.3388    0.0000 F    0  0  0  0  0  0  0  0  0  0  0  0
    4.3291   -1.9972    0.0000 C    0  0  0  0  0  0  0  0  0  0  0  0
    0.0000   -1.9478    0.0000 Na   0  3  0  0  0  0  0  0  0  0  0  0
  1  2  2  0  0  0  0
  1  3  1  0  0  0  0
  1  5  1  0  0  0  0
  4  5  1  0  0  0  0
M  END
> <ID>
3615

> <Formula>
C2H2FNaO2

> <FW>
100.0243 (77.0350+22.9892)

> <DSSTox_CID>
4311

> <DSSTox_RID>
77363

> <DSSTox_GSID>
24311

> <DSSTox_FileID_Sort>
2046

> <TS_ChemName>
Sodium fluoroacetate

> <TS_ChemName_Synonyms>


> <TS_CASRN>
62-74-8

> <CASRN_ChemName_Relationship>
primary

> <TS_Description>
single chemical compound

> <ChemNote>
parent [144-49-0]

> <STRUCTURE_Shown>
tested chemical

> <STRUCTURE_Formula>
C2H2FNaO2

> <STRUCTURE_MW>
100.0243

> <STRUCTURE_ChemType>
defined organic

> <STRUCTURE_DefinedOrganicForm>
salt

> <STRUCTURE_IUPAC>
sodium fluoroacetate

> <STRUCTURE_SMILES>
[Na+].[O-]C(=O)CF

> <STRUCTURE_SMILES_Desalt>
FCC(=O)O

> <Substance_modify_yyyymmdd>
20080429

$$$$
