62-90-8
ChemmineR-0915142007XD

 34 38  0  0  1  0  0  0  0  0  1 V2000
    6.9608   -3.7982    0.0000 C   0  0  0  0  0  0  0  0  0  0  0  0
    6.9608   -5.0996    0.0000 C   0  0  0  0  0  0  0  0  0  0  0  0
    3.4653   -7.0970    0.0000 C   0  0  0  0  0  0  0  0  0  0  0  0
    5.7805   -5.7956    0.0000 C   0  0  0  0  0  0  0  0  0  0  0  0
    4.6002   -5.0996    0.0000 C   0  0  0  0  0  0  0  0  0  0  0  0
    3.4653   -5.7805    0.0000 C   0  0  0  0  0  0  0  0  0  0  0  0
    8.2017   -3.3745    0.0000 C   0  0  0  0  0  0  0  0  0  0  0  0
    2.3455   -7.7780    0.0000 C   0  0  0  0  0  0  0  0  0  0  0  0
    5.7805   -3.1172    0.0000 C   0  0  0  0  0  0  0  0  0  0  0  0
    4.6002   -3.7982    0.0000 C   0  0  0  0  0  0  0  0  0  0  0  0
    5.7805   -7.1273    0.0000 C   0  0  0  0  0  0  0  0  0  0  0  0
    8.2017   -5.5081    0.0000 C   0  0  0  0  0  0  0  0  0  0  0  0
    8.2017   -2.0126    0.0000 O   0  0  0  0  0  0  0  0  0  0  0  0
    9.3063   -1.3619    0.0000 C   0  0  0  0  0  0  0  0  0  0  0  0
    2.3455   -5.0996    0.0000 C   0  0  0  0  0  0  0  0  0  0  0  0
    4.6002   -7.7780    0.0000 C   0  0  0  0  0  0  0  0  0  0  0  0
    1.1954   -7.0970    0.0000 C   0  0  0  0  0  0  0  0  0  0  0  0
    8.9734   -4.4489    0.0000 C   0  0  0  0  0  0  0  0  0  0  0  0
    9.3063    0.0000    0.0000 O   0  0  0  0  0  0  0  0  0  0  0  0
    0.0000   -7.7780    0.0000 O   0  0  0  0  0  0  0  0  0  0  0  0
    1.1954   -5.7956    0.0000 C   0  0  0  0  0  0  0  0  0  0  0  0
   10.5320   -1.9218    0.0000 C   0  0  0  0  0  0  0  0  0  0  0  0
    6.9608   -2.4817    0.0000 C   0  0  0  0  0  0  0  0  0  0  0  0
   11.6669   -1.3619    0.0000 C   0  0  0  0  0  0  0  0  0  0  0  0
   12.8321   -1.9975    0.0000 C   0  0  0  0  0  0  0  0  0  0  0  0
   13.9822   -1.3468    0.0000 C   0  0  0  0  0  0  0  0  0  0  0  0
   12.8321   -3.3442    0.0000 C   0  0  0  0  0  0  0  0  0  0  0  0
   15.1322   -1.9975    0.0000 C   0  0  0  0  0  0  0  0  0  0  0  0
   13.9822   -4.0100    0.0000 C   0  0  0  0  0  0  0  0  0  0  0  0
   15.1322   -3.3442    0.0000 C   0  0  0  0  0  0  0  0  0  0  0  0
    6.9608   -6.4312    0.0000 H   0  0  0  0  0  0  0  0  0  0  0  0
    5.7805   -4.4489    0.0000 H   0  0  0  0  0  0  0  0  0  0  0  0
    4.6002   -6.4312    0.0000 H   0  0  0  0  0  0  0  0  0  0  0  0
    3.4653   -4.4489    0.0000 H   0  0  0  0  0  0  0  0  0  0  0  0
  1  2  1  0  0  0  0
  1  7  1  0  0  0  0
  1  9  1  0  0  0  0
  1 23  1  1  0  0  0
  2  4  1  0  0  0  0
  2 12  1  0  0  0  0
  2 31  1  6  0  0  0
  3  6  1  0  0  0  0
  3  8  2  0  0  0  0
  3 16  1  0  0  0  0
  4 11  1  0  0  0  0
  4 32  1  1  0  0  0
  4  5  1  0  0  0  0
  5 10  1  0  0  0  0
  5  6  1  0  0  0  0
  5 33  1  6  0  0  0
  6 15  1  0  0  0  0
  6 34  1  1  0  0  0
  7 13  1  1  0  0  0
  7 18  1  0  0  0  0
  8 17  1  0  0  0  0
  9 10  1  0  0  0  0
 11 16  1  0  0  0  0
 12 18  1  0  0  0  0
 13 14  1  0  0  0  0
 14 19  2  0  0  0  0
 14 22  1  0  0  0  0
 15 21  1  0  0  0  0
 17 21  1  0  0  0  0
 17 20  2  0  0  0  0
 22 24  1  0  0  0  0
 24 25  1  0  0  0  0
 25 26  2  0  0  0  0
 25 27  1  0  0  0  0
 26 28  1  0  0  0  0
 27 29  2  0  0  0  0
 28 30  2  0  0  0  0
 29 30  1  0  0  0  0
M  END
> <ID>
3009

> <Formula>
C27H34O3

> <FW>
406.5571

> <DSSTox_CID>
3353

> <DSSTox_RID>
76989

> <DSSTox_GSID>
23353

> <DSSTox_FileID_Sort>
1673

> <TS_ChemName>
Nandrolone phenpropionate

> <TS_ChemName_Synonyms>


> <TS_CASRN>
62-90-8

> <CASRN_ChemName_Relationship>
primary

> <TS_Description>
single chemical compound

> <ChemNote>
stereochem

> <STRUCTURE_Shown>
tested chemical

> <STRUCTURE_Formula>
C27H34O3

> <STRUCTURE_MW>
406.5571

> <STRUCTURE_ChemType>
defined organic

> <STRUCTURE_DefinedOrganicForm>
parent

> <STRUCTURE_IUPAC>
(17beta)-3-oxoestr-4-en-17-yl 3-phenylpropanoate

> <STRUCTURE_SMILES>
O=C5CC[C@H]4C(CC[C@@H]2[C@@H]4CC[C@]3(C)[C@@H](OC(=O)CCc1ccccc1)CC[C@@H]23)=C5

> <STRUCTURE_SMILES_Desalt>
O=C5CC[C@H]4C(CC[C@@H]2[C@@H]4CC[C@]3(C)[C@@H](OC(=O)CCc1ccccc1)CC[C@@H]23)=C5

> <Substance_modify_yyyymmdd>
20080429

$$$$
