620-14-4
ChemmineR-0915142007XD

  9  9  0  0  0  0  0  0  0  0  1 V2000
    3.3265   -1.1518    0.0000 C   0  0  0  0  0  0  0  0  0  0  0  0
    3.9853   -2.3036    0.0000 C   0  0  0  0  0  0  0  0  0  0  0  0
    3.3265   -3.4555    0.0000 C   0  0  0  0  0  0  0  0  0  0  0  0
    1.9996   -3.4555    0.0000 C   0  0  0  0  0  0  0  0  0  0  0  0
    1.3269   -2.3036    0.0000 C   0  0  0  0  0  0  0  0  0  0  0  0
    1.9996   -1.1518    0.0000 C   0  0  0  0  0  0  0  0  0  0  0  0
    1.3269    0.0000    0.0000 C   0  0  0  0  0  0  0  0  0  0  0  0
    0.0000    0.0000    0.0000 C   0  0  0  0  0  0  0  0  0  0  0  0
    1.3269   -4.6073    0.0000 C   0  0  0  0  0  0  0  0  0  0  0  0
  1  2  2  0  0  0  0
  1  6  1  0  0  0  0
  2  3  1  0  0  0  0
  3  4  2  0  0  0  0
  4  5  1  0  0  0  0
  4  9  1  0  0  0  0
  5  6  2  0  0  0  0
  6  7  1  0  0  0  0
  7  8  1  0  0  0  0
M  END
> <ID>
5467

> <Formula>
C9H12

> <FW>
120.1916

> <DSSTox_CID>
7876

> <DSSTox_RID>
83511

> <DSSTox_GSID>
50386

> <DSSTox_FileID_Sort>
8185

> <TS_ChemName>
3-Ethyltoluene

> <TS_ChemName_Synonyms>


> <TS_CASRN>
620-14-4

> <CASRN_ChemName_Relationship>
primary

> <TS_Description>
single chemical compound

> <ChemNote>


> <STRUCTURE_Shown>
tested chemical

> <STRUCTURE_Formula>
C9H12

> <STRUCTURE_MW>
120.1916

> <STRUCTURE_ChemType>
defined organic

> <STRUCTURE_DefinedOrganicForm>
parent

> <STRUCTURE_IUPAC>
1-ethyl-3-methylbenzene

> <STRUCTURE_SMILES>
Cc1cccc(CC)c1

> <STRUCTURE_SMILES_Desalt>
Cc1cccc(CC)c1

> <Substance_modify_yyyymmdd>
20120120

$$$$
