620-40-6
ChemmineR-0915142007XD

 22 24  0  0  0  0  0  0  0  0  1 V2000
    3.9900   -4.6018    0.0000 N   0  0  0  0  0  0  0  0  0  0  0  0
    2.6542   -4.6018    0.0000 C   0  0  0  0  0  0  0  0  0  0  0  0
    1.9734   -5.7738    0.0000 C   0  0  0  0  0  0  0  0  0  0  0  0
    0.6722   -5.7738    0.0000 C   0  0  0  0  0  0  0  0  0  0  0  0
    2.6542   -6.9027    0.0000 C   0  0  0  0  0  0  0  0  0  0  0  0
    0.0000   -6.9027    0.0000 C   0  0  0  0  0  0  0  0  0  0  0  0
    2.0079   -8.0747    0.0000 C   0  0  0  0  0  0  0  0  0  0  0  0
    0.6463   -8.0747    0.0000 C   0  0  0  0  0  0  0  0  0  0  0  0
    4.6277   -3.4729    0.0000 C   0  0  0  0  0  0  0  0  0  0  0  0
    3.9900   -2.3009    0.0000 C   0  0  0  0  0  0  0  0  0  0  0  0
    4.6277   -1.1806    0.0000 C   0  0  0  0  0  0  0  0  0  0  0  0
    2.6542   -2.3009    0.0000 C   0  0  0  0  0  0  0  0  0  0  0  0
    3.9900    0.0000    0.0000 C   0  0  0  0  0  0  0  0  0  0  0  0
    2.0079   -1.1806    0.0000 C   0  0  0  0  0  0  0  0  0  0  0  0
    2.6542    0.0000    0.0000 C   0  0  0  0  0  0  0  0  0  0  0  0
    4.6277   -5.7738    0.0000 C   0  0  0  0  0  0  0  0  0  0  0  0
    5.9634   -5.7738    0.0000 C   0  0  0  0  0  0  0  0  0  0  0  0
    6.6097   -6.9027    0.0000 C   0  0  0  0  0  0  0  0  0  0  0  0
    6.6442   -4.6018    0.0000 C   0  0  0  0  0  0  0  0  0  0  0  0
    7.9713   -6.9372    0.0000 C   0  0  0  0  0  0  0  0  0  0  0  0
    7.9713   -4.6018    0.0000 C   0  0  0  0  0  0  0  0  0  0  0  0
    8.6176   -5.7738    0.0000 C   0  0  0  0  0  0  0  0  0  0  0  0
  1  2  1  0  0  0  0
  1  9  1  0  0  0  0
  1 16  1  0  0  0  0
  2  3  1  0  0  0  0
  3  4  2  0  0  0  0
  3  5  1  0  0  0  0
  4  6  1  0  0  0  0
  5  7  2  0  0  0  0
  6  8  2  0  0  0  0
  7  8  1  0  0  0  0
  9 10  1  0  0  0  0
 10 11  2  0  0  0  0
 10 12  1  0  0  0  0
 11 13  1  0  0  0  0
 12 14  2  0  0  0  0
 13 15  2  0  0  0  0
 14 15  1  0  0  0  0
 16 17  1  0  0  0  0
 17 18  2  0  0  0  0
 17 19  1  0  0  0  0
 18 20  1  0  0  0  0
 19 21  2  0  0  0  0
 20 22  2  0  0  0  0
 21 22  1  0  0  0  0
M  END
> <ID>
12185

> <Formula>
C21H21N

> <FW>
287.3981

> <DSSTox_CID>
27031

> <DSSTox_RID>
82052

> <DSSTox_GSID>
47031

> <DSSTox_FileID_Sort>
6733

> <TS_ChemName>
Tribenzylamine

> <TS_ChemName_Synonyms>


> <TS_CASRN>
620-40-6

> <CASRN_ChemName_Relationship>
primary

> <TS_Description>
single chemical compound

> <ChemNote>


> <STRUCTURE_Shown>
tested chemical

> <STRUCTURE_Formula>
C21H21N

> <STRUCTURE_MW>
287.3981

> <STRUCTURE_ChemType>
defined organic

> <STRUCTURE_DefinedOrganicForm>
parent

> <STRUCTURE_IUPAC>
N,N-dibenzyl-1-phenylmethanamine

> <STRUCTURE_SMILES>
C(N(Cc1ccccc1)Cc2ccccc2)c3ccccc3

> <STRUCTURE_SMILES_Desalt>
C(N(Cc1ccccc1)Cc2ccccc2)c3ccccc3

> <Substance_modify_yyyymmdd>
20100427

$$$$
