620-99-5
ChemmineR-0915142007XD

 23 23  0  0  0  0  0  0  0  0  1 V2000
    6.7255   -4.4648    0.0000 Cl   0  0  0  0  0  0  0  0  0  0  0  0
   14.1292   -4.5637    0.0000 C    0  0  0  0  0  0  0  0  0  0  0  0
    0.0000   -4.4648    0.0000 C    0  0  0  0  0  0  0  0  0  0  0  0
    7.0505   -0.6499    0.0000 C    0  0  0  0  0  0  0  0  0  0  0  0
    5.9625    0.0000    0.0000 N    0  0  0  0  0  0  0  0  0  0  0  0
    8.1808    0.0000    0.0000 N    0  0  0  0  0  0  0  0  0  0  0  0
    4.8322   -0.6499    0.0000 C    0  0  0  0  0  0  0  0  0  0  0  0
    9.3111   -0.6499    0.0000 C    0  0  0  0  0  0  0  0  0  0  0  0
   11.5859   -1.9781    0.0000 C    0  0  0  0  0  0  0  0  0  0  0  0
    2.5715   -1.9781    0.0000 C    0  0  0  0  0  0  0  0  0  0  0  0
    4.8322   -1.9781    0.0000 C    0  0  0  0  0  0  0  0  0  0  0  0
    3.7019    0.0000    0.0000 C    0  0  0  0  0  0  0  0  0  0  0  0
   10.4556    0.0000    0.0000 C    0  0  0  0  0  0  0  0  0  0  0  0
    9.3111   -1.9781    0.0000 C    0  0  0  0  0  0  0  0  0  0  0  0
    2.5715   -0.6499    0.0000 C    0  0  0  0  0  0  0  0  0  0  0  0
   11.5859   -0.6499    0.0000 C    0  0  0  0  0  0  0  0  0  0  0  0
    3.7019   -2.6139    0.0000 C    0  0  0  0  0  0  0  0  0  0  0  0
   10.4556   -2.6139    0.0000 C    0  0  0  0  0  0  0  0  0  0  0  0
    1.3988   -2.6139    0.0000 O    0  0  0  0  0  0  0  0  0  0  0  0
   12.7163   -2.6139    0.0000 O    0  0  0  0  0  0  0  0  0  0  0  0
    7.0505   -1.9781    0.0000 C    0  0  0  0  0  0  0  0  0  0  0  0
   12.7163   -3.9420    0.0000 C    0  0  0  0  0  0  0  0  0  0  0  0
    1.3988   -3.9703    0.0000 C    0  0  0  0  0  0  0  0  0  0  0  0
  2 22  1  0  0  0  0
  3 23  1  0  0  0  0
  4  5  2  0  0  0  0
  4  6  1  0  0  0  0
  4 21  1  0  0  0  0
  5  7  1  0  0  0  0
  6  8  1  0  0  0  0
  7 11  2  0  0  0  0
  7 12  1  0  0  0  0
  8 13  2  0  0  0  0
  8 14  1  0  0  0  0
  9 18  1  0  0  0  0
  9 20  1  0  0  0  0
  9 16  2  0  0  0  0
 10 15  1  0  0  0  0
 10 19  1  0  0  0  0
 10 17  2  0  0  0  0
 11 17  1  0  0  0  0
 12 15  2  0  0  0  0
 13 16  1  0  0  0  0
 14 18  2  0  0  0  0
 19 23  1  0  0  0  0
 20 22  1  0  0  0  0
M  END
> <ID>
13759

> <Formula>
C18H23ClN2O2

> <FW>
334.8404 (36.4609+298.3795)

> <DSSTox_CID>
28695

> <DSSTox_RID>
82965

> <DSSTox_GSID>
48769

> <DSSTox_FileID_Sort>
7642

> <TS_ChemName>
Phenacaine hydrochloride

> <TS_ChemName_Synonyms>


> <TS_CASRN>
620-99-5

> <CASRN_ChemName_Relationship>
primary

> <TS_Description>
single chemical compound

> <ChemNote>
stereochem; parent [18683-91-5]

> <STRUCTURE_Shown>
tested chemical

> <STRUCTURE_Formula>
C18H23ClN2O2

> <STRUCTURE_MW>
334.8404

> <STRUCTURE_ChemType>
defined organic

> <STRUCTURE_DefinedOrganicForm>
complex

> <STRUCTURE_IUPAC>
(1E)-N,N'-bis(4-ethoxyphenyl)ethanimidamide hydrochloride (1:1)

> <STRUCTURE_SMILES>
Cl.CCOc1ccc(cc1)NC(\C)=N\c2ccc(OCC)cc2

> <STRUCTURE_SMILES_Desalt>
CCOc1ccc(cc1)NC(\C)=N\c2ccc(OCC)cc2

> <Substance_modify_yyyymmdd>
20100107

$$$$
