620-22-4
ChemmineR-0915142007XD

  9  9  0  0  0  0  0  0  0  0  1 V2000
    1.1515   -2.6601    0.0000 C   0  0  0  0  0  0  0  0  0  0  0  0
    0.0000   -3.3222    0.0000 N   0  0  0  0  0  0  0  0  0  0  0  0
    2.3031   -1.9922    0.0000 C   0  0  0  0  0  0  0  0  0  0  0  0
    2.3031   -0.6621    0.0000 C   0  0  0  0  0  0  0  0  0  0  0  0
    3.4546    0.0000    0.0000 C   0  0  0  0  0  0  0  0  0  0  0  0
    4.6062   -0.6621    0.0000 C   0  0  0  0  0  0  0  0  0  0  0  0
    4.6062   -1.9922    0.0000 C   0  0  0  0  0  0  0  0  0  0  0  0
    5.7577   -2.6601    0.0000 C   0  0  0  0  0  0  0  0  0  0  0  0
    3.4546   -2.6601    0.0000 C   0  0  0  0  0  0  0  0  0  0  0  0
  1  2  3  0  0  0  0
  1  3  1  0  0  0  0
  3  4  2  0  0  0  0
  3  9  1  0  0  0  0
  4  5  1  0  0  0  0
  5  6  2  0  0  0  0
  6  7  1  0  0  0  0
  7  8  1  0  0  0  0
  7  9  2  0  0  0  0
M  END
> <ID>
4574

> <Formula>
C8H7N

> <FW>
117.1479

> <DSSTox_CID>
6167

> <DSSTox_RID>
78042

> <DSSTox_GSID>
26167

> <DSSTox_FileID_Sort>
2725

> <TS_ChemName>
3-Methylbenzonitrile

> <TS_ChemName_Synonyms>
3-Methylbenzonitrile (m-Tolunitrile)

> <TS_CASRN>
620-22-4

> <CASRN_ChemName_Relationship>
primary

> <TS_Description>
single chemical compound

> <ChemNote>


> <STRUCTURE_Shown>
tested chemical

> <STRUCTURE_Formula>
C8H7N

> <STRUCTURE_MW>
117.1479

> <STRUCTURE_ChemType>
defined organic

> <STRUCTURE_DefinedOrganicForm>
parent

> <STRUCTURE_IUPAC>
3-methylbenzonitrile

> <STRUCTURE_SMILES>
N#Cc1cccc(C)c1

> <STRUCTURE_SMILES_Desalt>
N#Cc1cccc(C)c1

> <Substance_modify_yyyymmdd>
20080429

$$$$
