62013-04-1
ChemmineR-0915142007XD

 58 61  0  0  1  0  0  0  0  0  1 V2000
    6.5564  -11.2316    0.0000 C   0  0  0  0  0  0  0  0  0  0  0  0
    7.6368   -8.8288    0.0000 C   0  0  0  0  0  0  0  0  0  0  0  0
    6.0163   -5.6624    0.0000 C   0  0  0  0  0  0  0  0  0  0  0  0
    7.1897  -10.0768    0.0000 C   0  0  0  0  0  0  0  0  0  0  0  0
    3.8743  -11.6042    0.0000 C   0  0  0  0  0  0  0  0  0  0  0  0
    5.2154  -11.3434    0.0000 C   0  0  0  0  0  0  0  0  0  0  0  0
    3.9674   -6.9476    0.0000 C   0  0  0  0  0  0  0  0  0  0  0  0
    6.7427   -7.8789    0.0000 O   0  0  0  0  0  0  0  0  0  0  0  0
    4.6752   -5.8300    0.0000 C   0  0  0  0  0  0  0  0  0  0  0  0
    2.6449   -6.9476    0.0000 C   0  0  0  0  0  0  0  0  0  0  0  0
    3.5949  -12.9080    0.0000 O   0  0  0  0  0  0  0  0  0  0  0  0
    2.8312  -10.6728    0.0000 C   0  0  0  0  0  0  0  0  0  0  0  0
    7.0221   -6.5937    0.0000 C   0  0  0  0  0  0  0  0  0  0  0  0
    7.3760  -12.3120    0.0000 O   0  0  0  0  0  0  0  0  0  0  0  0
    2.2538   -8.2887    0.0000 C   0  0  0  0  0  0  0  0  0  0  0  0
    3.0361   -9.3690    0.0000 C   0  0  0  0  0  0  0  0  0  0  0  0
    8.9406   -8.6053    0.0000 O   0  0  0  0  0  0  0  0  0  0  0  0
    1.9371   -5.8486    0.0000 N   0  0  0  0  0  0  0  0  0  0  0  0
    7.0407   -4.7497    0.0000 O   0  0  0  0  0  0  0  0  0  0  0  0
    1.5087  -10.3562    0.0000 O   0  0  0  0  0  0  0  0  0  0  0  0
    3.9115   -4.7311    0.0000 O   0  0  0  0  0  0  0  0  0  0  0  0
    5.7183   -4.3213    0.0000 C   0  0  0  0  0  0  0  0  0  0  0  0
    8.4563  -10.4680    0.0000 C   0  0  0  0  0  0  0  0  0  0  0  0
    5.5320  -12.6286    0.0000 C   0  0  0  0  0  0  0  0  0  0  0  0
    4.6566   -8.0838    0.0000 C   0  0  0  0  0  0  0  0  0  0  0  0
    2.0303  -11.7718    0.0000 C   0  0  0  0  0  0  0  0  0  0  0  0
    8.2514   -6.1467    0.0000 C   0  0  0  0  0  0  0  0  0  0  0  0
    0.9127   -8.3632    0.0000 C   0  0  0  0  0  0  0  0  0  0  0  0
    9.3690   -6.7055    0.0000 C   0  0  0  0  0  0  0  0  0  0  0  0
   10.7101  -13.7648    0.0000 C   0  0  0  0  0  0  0  0  0  0  0  0
   11.4179  -12.6286    0.0000 C   0  0  0  0  0  0  0  0  0  0  0  0
    9.3876  -13.6158    0.0000 C   0  0  0  0  0  0  0  0  0  0  0  0
   10.8219  -11.4551    0.0000 C   0  0  0  0  0  0  0  0  0  0  0  0
    8.6798  -12.5168    0.0000 C   0  0  0  0  0  0  0  0  0  0  0  0
    9.5553  -11.5483    0.0000 O   0  0  0  0  0  0  0  0  0  0  0  0
   10.2817  -15.0314    0.0000 O   0  0  0  0  0  0  0  0  0  0  0  0
   12.7404  -12.5168    0.0000 O   0  0  0  0  0  0  0  0  0  0  0  0
   11.9581  -14.3422    0.0000 C   0  0  0  0  0  0  0  0  0  0  0  0
   11.0454  -16.0931    0.0000 C   0  0  0  0  0  0  0  0  0  0  0  0
   11.4738  -10.3003    0.0000 C   0  0  0  0  0  0  0  0  0  0  0  0
    4.4330  -16.3725    0.0000 C   0  0  0  0  0  0  0  0  0  0  0  0
    5.7741  -16.4097    0.0000 C   0  0  0  0  0  0  0  0  0  0  0  0
    3.7066  -15.2549    0.0000 C   0  0  0  0  0  0  0  0  0  0  0  0
    6.3702  -15.2177    0.0000 C   0  0  0  0  0  0  0  0  0  0  0  0
    4.2840  -14.0256    0.0000 C   0  0  0  0  0  0  0  0  0  0  0  0
    5.5693  -14.2305    0.0000 O   0  0  0  0  0  0  0  0  0  0  0  0
    7.6926  -15.1990    0.0000 C   0  0  0  0  0  0  0  0  0  0  0  0
    2.3842  -15.3108    0.0000 O   0  0  0  0  0  0  0  0  0  0  0  0
    3.9488  -17.6204    0.0000 N   0  0  0  0  0  0  0  0  0  0  0  0
    4.7869  -18.6263    0.0000 C   0  0  0  0  0  0  0  0  0  0  0  0
    2.6449  -17.8626    0.0000 C   0  0  0  0  0  0  0  0  0  0  0  0
    2.6263   -4.6938    0.0000 C   0  0  0  0  0  0  0  0  0  0  0  0
    1.9558   -3.5390    0.0000 C   0  0  0  0  0  0  0  0  0  0  0  0
    0.6333   -3.5204    0.0000 O   0  0  0  0  0  0  0  0  0  0  0  0
    0.0000   -2.3655    0.0000 C   0  0  0  0  0  0  0  0  0  0  0  0
    0.6333   -1.1921    0.0000 C   0  0  0  0  0  0  0  0  0  0  0  0
    1.9558   -1.1735    0.0000 O   0  0  0  0  0  0  0  0  0  0  0  0
    2.6077    0.0000    0.0000 C   0  0  0  0  0  0  0  0  0  0  0  0
  1  6  1  0  0  0  0
  1  4  1  0  0  0  0
  1 14  1  1  0  0  0
  2  4  1  0  0  0  0
  2  8  1  0  0  0  0
  2 17  2  0  0  0  0
  3  9  1  0  0  0  0
  3 19  1  6  0  0  0
  3 22  1  1  0  0  0
  3 13  1  0  0  0  0
  4 23  1  6  0  0  0
  5 11  1  1  0  0  0
  5  6  1  0  0  0  0
  5 12  1  0  0  0  0
  6 24  1  1  0  0  0
  7 10  1  0  0  0  0
  7  9  1  0  0  0  0
  7 25  1  1  0  0  0
  8 13  1  0  0  0  0
  9 21  1  6  0  0  0
 10 15  1  0  0  0  0
 10 18  1  6  0  0  0
 45 11  1  6  0  0  0
 12 16  1  0  0  0  0
 12 20  1  6  0  0  0
 12 26  1  1  0  0  0
 13 27  1  1  0  0  0
 34 14  1  6  0  0  0
 15 16  1  0  0  0  0
 15 28  1  1  0  0  0
 18 52  1  0  0  0  0
 21 52  1  0  0  0  0
 27 29  1  0  0  0  0
 30 31  1  0  0  0  0
 30 32  1  0  0  0  0
 30 36  1  6  0  0  0
 30 38  1  0  0  0  0
 31 33  1  0  0  0  0
 31 37  1  6  0  0  0
 32 34  1  0  0  0  0
 33 35  1  0  0  0  0
 33 40  1  1  0  0  0
 34 35  1  0  0  0  0
 36 39  1  0  0  0  0
 41 42  1  0  0  0  0
 41 43  1  0  0  0  0
 41 49  1  6  0  0  0
 42 44  1  0  0  0  0
 43 45  1  0  0  0  0
 43 48  1  1  0  0  0
 44 46  1  0  0  0  0
 44 47  1  6  0  0  0
 45 46  1  0  0  0  0
 49 50  1  0  0  0  0
 49 51  1  0  0  0  0
 52 53  1  1  0  0  0
 53 54  1  0  0  0  0
 54 55  1  0  0  0  0
 55 56  1  0  0  0  0
 56 57  1  0  0  0  0
 57 58  1  0  0  0  0
M  END
> <ID>
13944

> <Formula>
C42H78N2O14

> <FW>
835.0737

> <DSSTox_CID>
28882

> <DSSTox_RID>
83150

> <DSSTox_GSID>
48956

> <DSSTox_FileID_Sort>
7827

> <TS_ChemName>
Dirithromycin

> <TS_ChemName_Synonyms>


> <TS_CASRN>
62013-04-1

> <CASRN_ChemName_Relationship>
primary

> <TS_Description>
single chemical compound

> <ChemNote>


> <STRUCTURE_Shown>
tested chemical

> <STRUCTURE_Formula>
C42H78N2O14

> <STRUCTURE_MW>
835.0737

> <STRUCTURE_ChemType>
defined organic

> <STRUCTURE_DefinedOrganicForm>
parent

> <STRUCTURE_IUPAC>
(1S,2R,3R,6R,7S,8S,9R,10R,12R,13S,15R,17S)-3-ethyl-2,10-dihydroxy-15-[(2-methoxyethoxy)methyl]-2,6,8,10,12,17-hexamethyl-5-oxo-9-{[3,4,6-trideoxy-3-(dimethylamino)-beta-D-xylo-hexopyranosyl]oxy}-4,16-dioxa-14-azabicyclo[11.3.1]heptadec-7-yl 2,6-dideoxy-3-

> <STRUCTURE_SMILES>
CN(C)[C@H]4C[C@@H](C)O[C@@H](O[C@@H]3[C@@H](C)[C@H](O[C@H]1C[C@@](C)(OC)[C@@H](O)[C@H](C)O1)[C@@H](C)C(=O)O[C@H](CC)[C@@](C)(O)[C@H]2O[C@H](COCCOC)N[C@H]([C@@H]2C)[C@H](C)C[C@@]3(C)O)[C@@H]4O

> <STRUCTURE_SMILES_Desalt>
CN(C)[C@H]4C[C@@H](C)O[C@@H](O[C@@H]3[C@@H](C)[C@H](O[C@H]1C[C@@](C)(OC)[C@@H](O)[C@H](C)O1)[C@@H](C)C(=O)O[C@H](CC)[C@@](C)(O)[C@H]2O[C@H](COCCOC)N[C@H]([C@@H]2C)[C@H](C)C[C@@]3(C)O)[C@@H]4O

> <Substance_modify_yyyymmdd>
20111204

$$$$
