6202-23-9
ChemmineR-0915142007XD

 22 23  0  0  0  0  0  0  0  0  1 V2000
    3.7513   -2.9238    0.0000 C    0  0  0  0  0  0  0  0  0  0  0  0
    2.5468   -2.3537    0.0000 C    0  0  0  0  0  0  0  0  0  0  0  0
    4.9465   -2.3537    0.0000 C    0  0  0  0  0  0  0  0  0  0  0  0
    4.4041    0.0000    0.0000 C    0  0  0  0  0  0  0  0  0  0  0  0
    3.0709    0.0000    0.0000 C    0  0  0  0  0  0  0  0  0  0  0  0
    5.2499   -1.0573    0.0000 C    0  0  0  0  0  0  0  0  0  0  0  0
    2.2434   -1.0573    0.0000 C    0  0  0  0  0  0  0  0  0  0  0  0
    3.7513   -4.2570    0.0000 C    0  0  0  0  0  0  0  0  0  0  0  0
    7.1899   -4.9097    0.0000 N    0  0  0  0  0  0  0  0  0  0  0  0
    4.8822   -4.9097    0.0000 C    0  0  0  0  0  0  0  0  0  0  0  0
    1.5722   -3.2456    0.0000 C    0  0  0  0  0  0  0  0  0  0  0  0
    5.9303   -3.2456    0.0000 C    0  0  0  0  0  0  0  0  0  0  0  0
    6.0590   -4.2570    0.0000 C    0  0  0  0  0  0  0  0  0  0  0  0
    6.5187   -0.6528    0.0000 C    0  0  0  0  0  0  0  0  0  0  0  0
    0.9746   -0.6528    0.0000 C    0  0  0  0  0  0  0  0  0  0  0  0
    8.3576   -4.2570    0.0000 C    0  0  0  0  0  0  0  0  0  0  0  0
    7.1899   -6.2429    0.0000 C    0  0  0  0  0  0  0  0  0  0  0  0
    0.3034   -2.8502    0.0000 C    0  0  0  0  0  0  0  0  0  0  0  0
    7.1899   -2.8502    0.0000 C    0  0  0  0  0  0  0  0  0  0  0  0
    0.0000   -1.5538    0.0000 C    0  0  0  0  0  0  0  0  0  0  0  0
    7.4933   -1.5538    0.0000 C    0  0  0  0  0  0  0  0  0  0  0  0
    9.1943   -1.5814    0.0000 Cl   0  0  0  0  0  0  0  0  0  0  0  0
  1  2  1  0  0  0  0
  1  3  1  0  0  0  0
  1  8  2  0  0  0  0
  2  7  2  0  0  0  0
  2 11  1  0  0  0  0
  3  6  2  0  0  0  0
  3 12  1  0  0  0  0
  4  6  1  0  0  0  0
  4  5  2  0  0  0  0
  5  7  1  0  0  0  0
  6 14  1  0  0  0  0
  7 15  1  0  0  0  0
  8 10  1  0  0  0  0
  9 13  1  0  0  0  0
  9 16  1  0  0  0  0
  9 17  1  0  0  0  0
 10 13  1  0  0  0  0
 11 18  2  0  0  0  0
 12 19  2  0  0  0  0
 14 21  2  0  0  0  0
 15 20  2  0  0  0  0
 18 20  1  0  0  0  0
 19 21  1  0  0  0  0
M  END
> <ID>
10741

> <Formula>
C20H22ClN

> <FW>
311.8484 (275.3874+36.4609)

> <DSSTox_CID>
25105

> <DSSTox_RID>
80672

> <DSSTox_GSID>
45105

> <DSSTox_FileID_Sort>
5354

> <TS_ChemName>
Cyclobenzaprine hydrochloride

> <TS_ChemName_Synonyms>


> <TS_CASRN>
6202-23-9

> <CASRN_ChemName_Relationship>
primary

> <TS_Description>
single chemical compound

> <ChemNote>
parent [303-53-7]

> <STRUCTURE_Shown>
tested chemical

> <STRUCTURE_Formula>
C20H22ClN

> <STRUCTURE_MW>
311.8484

> <STRUCTURE_ChemType>
defined organic

> <STRUCTURE_DefinedOrganicForm>
complex

> <STRUCTURE_IUPAC>
3-(5H-dibenzo[a,d][7]annulen-5-ylidene)-N,N-dimethylpropan-1-amine hydrochloride (1:1)

> <STRUCTURE_SMILES>
Cl.CN(C)CC\C=C2/c3ccccc3C=Cc1ccccc12

> <STRUCTURE_SMILES_Desalt>
CN(C)CC\C=C2/c3ccccc3C=Cc1ccccc12

> <Substance_modify_yyyymmdd>
20100107

$$$$
