621-23-8
ChemmineR-0915142007XD

 12 12  0  0  0  0  0  0  0  0  1 V2000
    5.7592   -1.9975    0.0000 C   0  0  0  0  0  0  0  0  0  0  0  0
    4.6050   -1.3277    0.0000 O   0  0  0  0  0  0  0  0  0  0  0  0
    3.4567   -1.9855    0.0000 C   0  0  0  0  0  0  0  0  0  0  0  0
    3.4567   -3.3251    0.0000 C   0  0  0  0  0  0  0  0  0  0  0  0
    2.3025   -3.9949    0.0000 C   0  0  0  0  0  0  0  0  0  0  0  0
    1.1542   -3.3251    0.0000 C   0  0  0  0  0  0  0  0  0  0  0  0
    1.1542   -1.9975    0.0000 C   0  0  0  0  0  0  0  0  0  0  0  0
    2.3025   -1.3277    0.0000 C   0  0  0  0  0  0  0  0  0  0  0  0
    0.0000   -1.3277    0.0000 O   0  0  0  0  0  0  0  0  0  0  0  0
    0.0000    0.0000    0.0000 C   0  0  0  0  0  0  0  0  0  0  0  0
    2.3025   -5.3226    0.0000 O   0  0  0  0  0  0  0  0  0  0  0  0
    1.1542   -5.9805    0.0000 C   0  0  0  0  0  0  0  0  0  0  0  0
  1  2  1  0  0  0  0
  2  3  1  0  0  0  0
  3  4  2  0  0  0  0
  3  8  1  0  0  0  0
  4  5  1  0  0  0  0
  5  6  2  0  0  0  0
  5 11  1  0  0  0  0
  6  7  1  0  0  0  0
  7  8  2  0  0  0  0
  7  9  1  0  0  0  0
  9 10  1  0  0  0  0
 11 12  1  0  0  0  0
M  END
> <ID>
11327

> <Formula>
C9H12O3

> <FW>
168.1898

> <DSSTox_CID>
25963

> <DSSTox_RID>
81259

> <DSSTox_GSID>
45963

> <DSSTox_FileID_Sort>
5940

> <TS_ChemName>
1,3,5-Trimethoxybenzene

> <TS_ChemName_Synonyms>


> <TS_CASRN>
621-23-8

> <CASRN_ChemName_Relationship>
primary

> <TS_Description>
single chemical compound

> <ChemNote>


> <STRUCTURE_Shown>
tested chemical

> <STRUCTURE_Formula>
C9H12O3

> <STRUCTURE_MW>
168.1898

> <STRUCTURE_ChemType>
defined organic

> <STRUCTURE_DefinedOrganicForm>
parent

> <STRUCTURE_IUPAC>
1,3,5-trimethoxybenzene

> <STRUCTURE_SMILES>
COc1cc(cc(OC)c1)OC

> <STRUCTURE_SMILES_Desalt>
COc1cc(cc(OC)c1)OC

> <Substance_modify_yyyymmdd>
20110930

$$$$
