621-76-1
ChemmineR-0915142007XD

 13 12  0  0  0  0  0  0  0  0  1 V2000
    4.6018   -3.9946    0.0000 C   0  0  0  0  0  0  0  0  0  0  0  0
    5.7602   -3.3235    0.0000 O   0  0  0  0  0  0  0  0  0  0  0  0
    3.4673   -3.3235    0.0000 O   0  0  0  0  0  0  0  0  0  0  0  0
    4.6018   -5.3128    0.0000 O   0  0  0  0  0  0  0  0  0  0  0  0
    5.7602   -2.0053    0.0000 C   0  0  0  0  0  0  0  0  0  0  0  0
    6.8947   -1.3342    0.0000 C   0  0  0  0  0  0  0  0  0  0  0  0
    6.9107    0.0000    0.0000 C   0  0  0  0  0  0  0  0  0  0  0  0
    2.3089   -3.9946    0.0000 C   0  0  0  0  0  0  0  0  0  0  0  0
    1.1584   -3.3235    0.0000 C   0  0  0  0  0  0  0  0  0  0  0  0
    0.0000   -3.9946    0.0000 C   0  0  0  0  0  0  0  0  0  0  0  0
    5.7602   -5.9839    0.0000 C   0  0  0  0  0  0  0  0  0  0  0  0
    5.7602   -7.3181    0.0000 C   0  0  0  0  0  0  0  0  0  0  0  0
    6.9107   -7.9892    0.0000 C   0  0  0  0  0  0  0  0  0  0  0  0
  1  3  1  0  0  0  0
  1  2  1  0  0  0  0
  1  4  1  0  0  0  0
  2  5  1  0  0  0  0
  3  8  1  0  0  0  0
  4 11  1  0  0  0  0
  5  6  1  0  0  0  0
  6  7  1  0  0  0  0
  8  9  1  0  0  0  0
  9 10  1  0  0  0  0
 11 12  1  0  0  0  0
 12 13  1  0  0  0  0
M  END
> <ID>
10107

> <Formula>
C10H22O3

> <FW>
190.2799

> <DSSTox_CID>
24450

> <DSSTox_RID>
80237

> <DSSTox_GSID>
44450

> <DSSTox_FileID_Sort>
4919

> <TS_ChemName>
Tripropyl orthoformate

> <TS_ChemName_Synonyms>


> <TS_CASRN>
621-76-1

> <CASRN_ChemName_Relationship>
primary

> <TS_Description>
single chemical compound

> <ChemNote>


> <STRUCTURE_Shown>
tested chemical

> <STRUCTURE_Formula>
C10H22O3

> <STRUCTURE_MW>
190.2799

> <STRUCTURE_ChemType>
defined organic

> <STRUCTURE_DefinedOrganicForm>
parent

> <STRUCTURE_IUPAC>
1-(dipropoxymethoxy)propane

> <STRUCTURE_SMILES>
CCCOC(OCCC)OCCC

> <STRUCTURE_SMILES_Desalt>
CCCOC(OCCC)OCCC

> <Substance_modify_yyyymmdd>
20091116

$$$$
