621-33-0
ChemmineR-0915142007XD

 10 10  0  0  0  0  0  0  0  0  1 V2000
    2.3014   -2.6608    0.0000 O   0  0  0  0  0  0  0  0  0  0  0  0
    1.1542   -1.9973    0.0000 C   0  0  0  0  0  0  0  0  0  0  0  0
    0.0000   -2.6608    0.0000 C   0  0  0  0  0  0  0  0  0  0  0  0
    3.4556   -1.9973    0.0000 C   0  0  0  0  0  0  0  0  0  0  0  0
    3.4556   -0.6635    0.0000 C   0  0  0  0  0  0  0  0  0  0  0  0
    4.6098    0.0000    0.0000 C   0  0  0  0  0  0  0  0  0  0  0  0
    5.7570   -0.6635    0.0000 C   0  0  0  0  0  0  0  0  0  0  0  0
    5.7570   -1.9973    0.0000 C   0  0  0  0  0  0  0  0  0  0  0  0
    6.9112   -2.6608    0.0000 N   0  0  0  0  0  0  0  0  0  0  0  0
    4.6098   -2.6608    0.0000 C   0  0  0  0  0  0  0  0  0  0  0  0
  1  2  1  0  0  0  0
  1  4  1  0  0  0  0
  2  3  1  0  0  0  0
  4  5  2  0  0  0  0
  4 10  1  0  0  0  0
  5  6  1  0  0  0  0
  6  7  2  0  0  0  0
  7  8  1  0  0  0  0
  8  9  1  0  0  0  0
  8 10  2  0  0  0  0
M  END
> <ID>
4442

> <Formula>
C8H11NO

> <FW>
137.179

> <DSSTox_CID>
5862

> <DSSTox_RID>
77952

> <DSSTox_GSID>
25862

> <DSSTox_FileID_Sort>
2635

> <TS_ChemName>
3-Ethoxyaniline

> <TS_ChemName_Synonyms>
3-Ethoxyaniline (m-Phenetidine)

> <TS_CASRN>
621-33-0

> <CASRN_ChemName_Relationship>
primary

> <TS_Description>
single chemical compound

> <ChemNote>


> <STRUCTURE_Shown>
tested chemical

> <STRUCTURE_Formula>
C8H11NO

> <STRUCTURE_MW>
137.179

> <STRUCTURE_ChemType>
defined organic

> <STRUCTURE_DefinedOrganicForm>
parent

> <STRUCTURE_IUPAC>
3-ethoxyaniline

> <STRUCTURE_SMILES>
CCOc1cccc(N)c1

> <STRUCTURE_SMILES_Desalt>
CCOc1cccc(N)c1

> <Substance_modify_yyyymmdd>
20080429

$$$$
