621-64-7
ChemmineR-0915142007XD

  9  8  0  0  0  0  0  0  0  0  1 V2000
    0.0000   -1.9861    0.0000 O   0  0  0  0  0  0  0  0  0  0  0  0
    1.1571   -2.6597    0.0000 N   0  0  0  0  0  0  0  0  0  0  0  0
    2.3085   -1.9861    0.0000 N   0  0  0  0  0  0  0  0  0  0  0  0
    3.4656   -2.6597    0.0000 C   0  0  0  0  0  0  0  0  0  0  0  0
    2.3085   -0.6563    0.0000 C   0  0  0  0  0  0  0  0  0  0  0  0
    3.4656    0.0000    0.0000 C   0  0  0  0  0  0  0  0  0  0  0  0
    4.5997   -0.6563    0.0000 C   0  0  0  0  0  0  0  0  0  0  0  0
    4.5997   -1.9861    0.0000 C   0  0  0  0  0  0  0  0  0  0  0  0
    5.7568   -2.6597    0.0000 C   0  0  0  0  0  0  0  0  0  0  0  0
  1  2  2  0  0  0  0
  2  3  1  0  0  0  0
  3  4  1  0  0  0  0
  3  5  1  0  0  0  0
  4  8  1  0  0  0  0
  5  6  1  0  0  0  0
  6  7  1  0  0  0  0
  8  9  1  0  0  0  0
M  END
> <ID>
996

> <Formula>
C6H14N2O

> <FW>
130.1882

> <DSSTox_CID>
1032

> <DSSTox_RID>
75917

> <DSSTox_GSID>
21032

> <DSSTox_FileID_Sort>
601

> <TS_ChemName>
N-Nitrosodipropylamine

> <TS_ChemName_Synonyms>


> <TS_CASRN>
621-64-7

> <CASRN_ChemName_Relationship>
primary

> <TS_Description>
single chemical compound

> <ChemNote>


> <STRUCTURE_Shown>
tested chemical

> <STRUCTURE_Formula>
C6H14N2O

> <STRUCTURE_MW>
130.1882

> <STRUCTURE_ChemType>
defined organic

> <STRUCTURE_DefinedOrganicForm>
parent

> <STRUCTURE_IUPAC>
N-nitroso-N-propylpropan-1-amine

> <STRUCTURE_SMILES>
CCCN(CCC)N=O

> <STRUCTURE_SMILES_Desalt>
CCCN(CCC)N=O

> <Substance_modify_yyyymmdd>
20080429

$$$$
