621-07-8
ChemmineR-0915142007XD

 16 17  0  0  0  0  0  0  0  0  1 V2000
    6.9042   -0.6812    0.0000 C   0  0  0  0  0  0  0  0  0  0  0  0
    6.9042   -2.0068    0.0000 C   0  0  0  0  0  0  0  0  0  0  0  0
    8.0457   -2.6696    0.0000 C   0  0  0  0  0  0  0  0  0  0  0  0
    9.2056   -2.0068    0.0000 C   0  0  0  0  0  0  0  0  0  0  0  0
    9.2056   -0.6812    0.0000 C   0  0  0  0  0  0  0  0  0  0  0  0
    8.0641    0.0000    0.0000 C   0  0  0  0  0  0  0  0  0  0  0  0
    5.7535    0.0000    0.0000 C   0  0  0  0  0  0  0  0  0  0  0  0
    4.6120   -0.6812    0.0000 N   0  0  0  0  0  0  0  0  0  0  0  0
    4.5936   -1.9976    0.0000 O   0  0  0  0  0  0  0  0  0  0  0  0
    3.4521   -0.0184    0.0000 C   0  0  0  0  0  0  0  0  0  0  0  0
    0.0000   -0.6628    0.0000 C   0  0  0  0  0  0  0  0  0  0  0  0
    0.0000   -1.9976    0.0000 C   0  0  0  0  0  0  0  0  0  0  0  0
    1.1415   -2.6696    0.0000 C   0  0  0  0  0  0  0  0  0  0  0  0
    2.3014   -1.9976    0.0000 C   0  0  0  0  0  0  0  0  0  0  0  0
    2.3014   -0.6628    0.0000 C   0  0  0  0  0  0  0  0  0  0  0  0
    1.1599    0.0000    0.0000 C   0  0  0  0  0  0  0  0  0  0  0  0
  1  2  2  0  0  0  0
  1  6  1  0  0  0  0
  1  7  1  0  0  0  0
  2  3  1  0  0  0  0
  3  4  2  0  0  0  0
  4  5  1  0  0  0  0
  5  6  2  0  0  0  0
  7  8  1  0  0  0  0
  8  9  1  0  0  0  0
  8 10  1  0  0  0  0
 10 15  1  0  0  0  0
 11 16  2  0  0  0  0
 11 12  1  0  0  0  0
 12 13  2  0  0  0  0
 13 14  1  0  0  0  0
 14 15  2  0  0  0  0
 15 16  1  0  0  0  0
M  END
> <ID>
10354

> <Formula>
C14H15NO

> <FW>
213.275

> <DSSTox_CID>
24702

> <DSSTox_RID>
80407

> <DSSTox_GSID>
44702

> <DSSTox_FileID_Sort>
5089

> <TS_ChemName>
N-Benzyl-N-hydroxy-1-phenylmethanamine

> <TS_ChemName_Synonyms>
N-Benzyl-N-hydroxy-1-phenylmethanamine (Benzenemethanamine, N-hydroxy-N-(phenylmethyl)-)

> <TS_CASRN>
621-07-8

> <CASRN_ChemName_Relationship>
primary

> <TS_Description>
single chemical compound

> <ChemNote>


> <STRUCTURE_Shown>
tested chemical

> <STRUCTURE_Formula>
C14H15NO

> <STRUCTURE_MW>
213.275

> <STRUCTURE_ChemType>
defined organic

> <STRUCTURE_DefinedOrganicForm>
parent

> <STRUCTURE_IUPAC>
N-benzyl-N-hydroxy-1-phenylmethanamine

> <STRUCTURE_SMILES>
ON(Cc1ccccc1)Cc2ccccc2

> <STRUCTURE_SMILES_Desalt>
ON(Cc1ccccc1)Cc2ccccc2

> <Substance_modify_yyyymmdd>
20091116

$$$$
