621-59-0
ChemmineR-0915142007XD

 11 11  0  0  0  0  0  0  0  0  1 V2000
    2.3068   -0.6650    0.0000 C   0  0  0  0  0  0  0  0  0  0  0  0
    2.3068   -2.0020    0.0000 C   0  0  0  0  0  0  0  0  0  0  0  0
    3.4498   -0.0139    0.0000 C   0  0  0  0  0  0  0  0  0  0  0  0
    3.4498   -2.6531    0.0000 C   0  0  0  0  0  0  0  0  0  0  0  0
    6.9273   -0.7135    0.0000 O   0  0  0  0  0  0  0  0  0  0  0  0
    4.5928   -0.6650    0.0000 C   0  0  0  0  0  0  0  0  0  0  0  0
    5.7843   -0.0139    0.0000 C   0  0  0  0  0  0  0  0  0  0  0  0
    1.1430    0.0000    0.0000 O   0  0  0  0  0  0  0  0  0  0  0  0
    4.5928   -2.0020    0.0000 C   0  0  0  0  0  0  0  0  0  0  0  0
    1.1430   -2.6670    0.0000 O   0  0  0  0  0  0  0  0  0  0  0  0
    0.0000   -2.0158    0.0000 C   0  0  0  0  0  0  0  0  0  0  0  0
  1  2  1  0  0  0  0
  1  3  2  0  0  0  0
  1  8  1  0  0  0  0
  2  4  2  0  0  0  0
  2 10  1  0  0  0  0
  3  6  1  0  0  0  0
  4  9  1  0  0  0  0
  5  7  2  0  0  0  0
  6  7  1  0  0  0  0
  6  9  2  0  0  0  0
 10 11  1  0  0  0  0
M  END
> <ID>
14287

> <Formula>
C8H8O3

> <FW>
152.1473

> <DSSTox_CID>
29383

> <DSSTox_RID>
83498

> <DSSTox_GSID>
49423

> <DSSTox_FileID_Sort>
8173

> <TS_ChemName>
Benzaldehyde,3-hydroxy-4-methoxy-

> <TS_ChemName_Synonyms>


> <TS_CASRN>
621-59-0

> <CASRN_ChemName_Relationship>
primary

> <TS_Description>
single chemical compound

> <ChemNote>


> <STRUCTURE_Shown>
tested chemical

> <STRUCTURE_Formula>
C8H8O3

> <STRUCTURE_MW>
152.1473

> <STRUCTURE_ChemType>
defined organic

> <STRUCTURE_DefinedOrganicForm>
parent

> <STRUCTURE_IUPAC>
3-hydroxy-4-methoxybenzaldehyde

> <STRUCTURE_SMILES>
Oc1cc(ccc1OC)C=O

> <STRUCTURE_SMILES_Desalt>
Oc1cc(ccc1OC)C=O

> <Substance_modify_yyyymmdd>
20111204

$$$$
