6211-15-0
ChemmineR-0915142007XD

 54 56  0  0  1  0  0  0  0  0  1 V2000
    2.2852   -3.9312    0.0000 C   0  0  0  0  0  0  0  0  0  0  0  0
    2.2852   -2.6368    0.0000 C   0  0  0  0  0  0  0  0  0  0  0  0
    3.3879   -4.5704    0.0000 C   0  0  0  0  0  0  0  0  0  0  0  0
    1.1506   -1.9816    0.0000 C   0  0  0  0  0  0  0  0  0  0  0  0
    1.1506   -4.6184    0.0000 C   0  0  0  0  0  0  0  0  0  0  0  0
    0.3835   -3.2121    0.0000 O   0  0  0  0  0  0  0  0  0  0  0  0
    4.5385   -3.9312    0.0000 C   0  0  0  0  0  0  0  0  0  0  0  0
    3.3879   -1.9496    0.0000 C   0  0  0  0  0  0  0  0  0  0  0  0
    3.3879   -5.9128    0.0000 C   0  0  0  0  0  0  0  0  0  0  0  0
    4.5385   -2.6368    0.0000 C   0  0  0  0  0  0  0  0  0  0  0  0
    5.1777   -4.5385    0.0000 N   0  0  0  0  0  0  0  0  0  0  0  0
    2.2852   -5.2416    0.0000 C   0  0  0  0  0  0  0  0  0  0  0  0
    2.2852   -6.5680    0.0000 C   0  0  0  0  0  0  0  0  0  0  0  0
    1.1506   -5.9447    0.0000 C   0  0  0  0  0  0  0  0  0  0  0  0
    1.1506   -0.6552    0.0000 C   0  0  0  0  0  0  0  0  0  0  0  0
    4.7782   -5.2416    0.0000 C   0  0  0  0  0  0  0  0  0  0  0  0
    3.3879   -0.6552    0.0000 C   0  0  0  0  0  0  0  0  0  0  0  0
    2.2852   -0.0160    0.0000 C   0  0  0  0  0  0  0  0  0  0  0  0
    0.0000   -0.0160    0.0000 O   0  0  0  0  0  0  0  0  0  0  0  0
    0.0639   -6.6319    0.0000 O   0  0  0  0  0  0  0  0  0  0  0  0
    6.4082   -4.5385    0.0000 C   0  0  0  0  0  0  0  0  0  0  0  0
    3.3879   -3.2920    0.0000 H   0  0  0  0  0  0  0  0  0  0  0  0
   13.6953   -3.8992    0.0000 C   0  0  0  0  0  0  0  0  0  0  0  0
   13.6953   -2.6048    0.0000 C   0  0  0  0  0  0  0  0  0  0  0  0
   12.5926   -4.5544    0.0000 C   0  0  0  0  0  0  0  0  0  0  0  0
   14.8459   -1.9496    0.0000 C   0  0  0  0  0  0  0  0  0  0  0  0
   14.8459   -4.5704    0.0000 C   0  0  0  0  0  0  0  0  0  0  0  0
   15.6129   -3.1961    0.0000 O   0  0  0  0  0  0  0  0  0  0  0  0
   11.4420   -3.8992    0.0000 C   0  0  0  0  0  0  0  0  0  0  0  0
   12.5926   -1.9177    0.0000 C   0  0  0  0  0  0  0  0  0  0  0  0
   12.5926   -5.8648    0.0000 C   0  0  0  0  0  0  0  0  0  0  0  0
   11.4420   -2.6048    0.0000 C   0  0  0  0  0  0  0  0  0  0  0  0
   10.8028   -4.5225    0.0000 N   0  0  0  0  0  0  0  0  0  0  0  0
   13.6953   -5.2256    0.0000 C   0  0  0  0  0  0  0  0  0  0  0  0
   13.6953   -6.5520    0.0000 C   0  0  0  0  0  0  0  0  0  0  0  0
   14.8459   -5.9128    0.0000 C   0  0  0  0  0  0  0  0  0  0  0  0
   14.8459   -0.6232    0.0000 C   0  0  0  0  0  0  0  0  0  0  0  0
   11.2023   -5.2256    0.0000 C   0  0  0  0  0  0  0  0  0  0  0  0
   12.5926   -0.6232    0.0000 C   0  0  0  0  0  0  0  0  0  0  0  0
   13.6953    0.0000    0.0000 C   0  0  0  0  0  0  0  0  0  0  0  0
   15.9805    0.0000    0.0000 O   0  0  0  0  0  0  0  0  0  0  0  0
   15.9326   -6.5999    0.0000 O   0  0  0  0  0  0  0  0  0  0  0  0
    9.5723   -4.5225    0.0000 C   0  0  0  0  0  0  0  0  0  0  0  0
   12.5926   -3.2760    0.0000 H   0  0  0  0  0  0  0  0  0  0  0  0
    3.1482   -7.5588    0.0000 O   0  0  0  0  0  0  0  0  0  0  0  0
    4.4905   -7.5588    0.0000 S   0  0  0  0  0  0  0  0  0  0  0  0
    4.4905   -6.2324    0.0000 O   0  0  0  0  0  0  0  0  0  0  0  0
    4.4905   -8.8852    0.0000 O   0  0  0  0  0  0  0  0  0  0  0  0
    5.8169   -7.5588    0.0000 O   0  0  0  0  0  0  0  0  0  0  0  0
    8.3578   -7.4629    0.0000 O   0  0  0  0  0  0  0  0  0  0  0  0
   10.4992   -7.4149    0.0000 O   0  0  0  0  0  0  0  0  0  0  0  0
   12.5766   -7.3830    0.0000 O   0  0  0  0  0  0  0  0  0  0  0  0
    8.8852   -8.8053    0.0000 O   0  0  0  0  0  0  0  0  0  0  0  0
   10.7709   -8.6774    0.0000 O   0  0  0  0  0  0  0  0  0  0  0  0
  1  2  1  0  0  0  0
  1  3  1  0  0  0  0
  1  5  1  0  0  0  0
  1 12  1  1  0  0  0
  2  4  1  0  0  0  0
  2  8  2  0  0  0  0
  3  7  1  0  0  0  0
  3  9  1  0  0  0  0
  3 22  1  1  0  0  0
  4 15  2  0  0  0  0
  4  6  1  0  0  0  0
  5  6  1  6  0  0  0
  5 14  1  0  0  0  0
  7 10  1  0  0  0  0
  7 11  1  1  0  0  0
  8 17  1  0  0  0  0
  8 10  1  0  0  0  0
  9 13  2  0  0  0  0
 11 16  1  0  0  0  0
 11 21  1  0  0  0  0
 12 16  1  0  0  0  0
 13 14  1  0  0  0  0
 14 20  1  6  0  0  0
 15 19  1  0  0  0  0
 15 18  1  0  0  0  0
 17 18  2  0  0  0  0
 23 24  1  0  0  0  0
 23 25  1  0  0  0  0
 23 27  1  0  0  0  0
 23 34  1  6  0  0  0
 24 26  1  0  0  0  0
 24 30  2  0  0  0  0
 25 29  1  0  0  0  0
 25 31  1  0  0  0  0
 25 44  1  6  0  0  0
 26 37  2  0  0  0  0
 26 28  1  0  0  0  0
 27 28  1  1  0  0  0
 27 36  1  0  0  0  0
 29 32  1  0  0  0  0
 29 33  1  6  0  0  0
 30 39  1  0  0  0  0
 30 32  1  0  0  0  0
 31 35  2  0  0  0  0
 33 38  1  0  0  0  0
 33 43  1  0  0  0  0
 34 38  1  0  0  0  0
 35 36  1  0  0  0  0
 36 42  1  1  0  0  0
 37 41  1  0  0  0  0
 37 40  1  0  0  0  0
 39 40  2  0  0  0  0
 45 46  1  0  0  0  0
 46 47  2  0  0  0  0
 46 48  2  0  0  0  0
 46 49  1  0  0  0  0
M  END
> <ID>
13903

> <Formula>
C34H50N2O15S

> <FW>
758.8302 (285.3377+285.3377+98.0785+18.0153+18.0153+18.0153+18.0153+18.0153)

> <DSSTox_CID>
28840

> <DSSTox_RID>
83109

> <DSSTox_GSID>
48914

> <DSSTox_FileID_Sort>
7786

> <TS_ChemName>
Morphine sulfate pentahydrate

> <TS_ChemName_Synonyms>


> <TS_CASRN>
6211-15-0

> <CASRN_ChemName_Relationship>
primary

> <TS_Description>
single chemical compound

> <ChemNote>


> <STRUCTURE_Shown>
tested chemical

> <STRUCTURE_Formula>
C34H50N2O15S

> <STRUCTURE_MW>
758.8302

> <STRUCTURE_ChemType>
defined organic

> <STRUCTURE_DefinedOrganicForm>
complex

> <STRUCTURE_IUPAC>
(5alpha,6alpha)-17-methyl-7,8-didehydro-4,5-epoxymorphinan-3,6-diol sulfate hydrate (2:1:5)

> <STRUCTURE_SMILES>
O.O.O.O.O.O=S(=O)(O)O.Oc5ccc1C[C@H]2N(C)CC[C@]43c1c5O[C@H]4[C@@H](O)C=C[C@@H]23.Oc1ccc2C[C@H]4N(C)CC[C@@]35[C@@H](Oc1c23)[C@@H](O)C=C[C@@H]45

> <STRUCTURE_SMILES_Desalt>
Oc1ccc2C[C@H]4N(C)CC[C@@]35[C@@H](Oc1c23)[C@@H](O)C=C[C@@H]45

> <Substance_modify_yyyymmdd>
20111204

$$$$
