6217-54-5
ChemmineR-0915142007XD

 24 23  0  0  0  0  0  0  0  0  1 V2000
    4.6017   -6.6558    0.0000 C   0  0  0  0  0  0  0  0  0  0  0  0
    5.7493   -6.0017    0.0000 C   0  0  0  0  0  0  0  0  0  0  0  0
    5.7493   -4.6591    0.0000 C   0  0  0  0  0  0  0  0  0  0  0  0
    6.8968   -3.9935    0.0000 C   0  0  0  0  0  0  0  0  0  0  0  0
    6.8968   -2.6738    0.0000 C   0  0  0  0  0  0  0  0  0  0  0  0
    5.7493   -2.0082    0.0000 C   0  0  0  0  0  0  0  0  0  0  0  0
    5.7493   -0.6885    0.0000 C   0  0  0  0  0  0  0  0  0  0  0  0
    6.8968    0.0000    0.0000 C   0  0  0  0  0  0  0  0  0  0  0  0
    8.0559   -0.6885    0.0000 C   0  0  0  0  0  0  0  0  0  0  0  0
    9.1920    0.0000    0.0000 C   0  0  0  0  0  0  0  0  0  0  0  0
   10.3395   -0.6885    0.0000 C   0  0  0  0  0  0  0  0  0  0  0  0
   10.3395   -2.0082    0.0000 O   0  0  0  0  0  0  0  0  0  0  0  0
   11.4756    0.0000    0.0000 O   0  0  0  0  0  0  0  0  0  0  0  0
    3.4427   -6.0017    0.0000 C   0  0  0  0  0  0  0  0  0  0  0  0
    2.2951   -6.6558    0.0000 C   0  0  0  0  0  0  0  0  0  0  0  0
    1.1361   -2.0082    0.0000 C   0  0  0  0  0  0  0  0  0  0  0  0
    0.0000   -2.6738    0.0000 C   0  0  0  0  0  0  0  0  0  0  0  0
    0.0000   -3.9935    0.0000 C   0  0  0  0  0  0  0  0  0  0  0  0
    1.1361   -4.6591    0.0000 C   0  0  0  0  0  0  0  0  0  0  0  0
    1.1361   -6.0017    0.0000 C   0  0  0  0  0  0  0  0  0  0  0  0
    3.4427   -0.6885    0.0000 C   0  0  0  0  0  0  0  0  0  0  0  0
    2.2951    0.0000    0.0000 C   0  0  0  0  0  0  0  0  0  0  0  0
    1.1361   -0.6885    0.0000 C   0  0  0  0  0  0  0  0  0  0  0  0
    4.6017    0.0000    0.0000 C   0  0  0  0  0  0  0  0  0  0  0  0
  1  2  2  0  0  0  0
  1 14  1  0  0  0  0
  2  3  1  0  0  0  0
  3  4  1  0  0  0  0
  4  5  2  0  0  0  0
  5  6  1  0  0  0  0
  6  7  1  0  0  0  0
  7  8  2  0  0  0  0
  8  9  1  0  0  0  0
  9 10  1  0  0  0  0
 10 11  1  0  0  0  0
 11 12  2  0  0  0  0
 11 13  1  0  0  0  0
 14 15  1  0  0  0  0
 15 20  2  0  0  0  0
 16 17  1  0  0  0  0
 16 23  1  0  0  0  0
 17 18  2  0  0  0  0
 18 19  1  0  0  0  0
 19 20  1  0  0  0  0
 21 22  1  0  0  0  0
 21 24  1  0  0  0  0
 22 23  2  0  0  0  0
M  END
> <ID>
7771

> <Formula>
C22H32O2

> <FW>
328.4883

> <DSSTox_CID>
20465

> <DSSTox_RID>
79498

> <DSSTox_GSID>
40465

> <DSSTox_FileID_Sort>
4180

> <TS_ChemName>
Docosahexaenoic acid

> <TS_ChemName_Synonyms>
Docosahexanoic acid (DHA)

> <TS_CASRN>
6217-54-5

> <CASRN_ChemName_Relationship>
primary

> <TS_Description>
single chemical compound

> <ChemNote>
stereochem

> <STRUCTURE_Shown>
tested chemical

> <STRUCTURE_Formula>
C22H32O2

> <STRUCTURE_MW>
328.4883

> <STRUCTURE_ChemType>
defined organic

> <STRUCTURE_DefinedOrganicForm>
parent

> <STRUCTURE_IUPAC>
(4Z,7Z,10Z,13Z,16Z,19Z)-docosa-4,7,10,13,16,19-hexaenoic acid

> <STRUCTURE_SMILES>
O=C(O)CC/C=C\C\C=C/C/C=C\C/C=C\C/C=C\C/C=C\CC

> <STRUCTURE_SMILES_Desalt>
O=C(O)CC/C=C\C\C=C/C/C=C\C/C=C\C/C=C\C/C=C\CC

> <Substance_modify_yyyymmdd>
20080429

$$$$
