6219-89-2
ChemmineR-0915142007XD

 16 17  0  0  0  0  0  0  0  0  1 V2000
    4.6043    0.0000    0.0000 N   0  0  0  0  0  0  0  0  0  0  0  0
    5.7554   -0.6630    0.0000 C   0  0  0  0  0  0  0  0  0  0  0  0
    6.9065    0.0000    0.0000 C   0  0  0  0  0  0  0  0  0  0  0  0
    8.0576   -0.6630    0.0000 C   0  0  0  0  0  0  0  0  0  0  0  0
    8.0576   -1.9983    0.0000 C   0  0  0  0  0  0  0  0  0  0  0  0
    9.2087   -2.6613    0.0000 O   0  0  0  0  0  0  0  0  0  0  0  0
    6.9065   -2.6613    0.0000 C   0  0  0  0  0  0  0  0  0  0  0  0
    5.7554   -1.9983    0.0000 C   0  0  0  0  0  0  0  0  0  0  0  0
    3.4533   -0.6630    0.0000 C   0  0  0  0  0  0  0  0  0  0  0  0
    3.4533   -1.9983    0.0000 C   0  0  0  0  0  0  0  0  0  0  0  0
    2.3022   -2.6613    0.0000 C   0  0  0  0  0  0  0  0  0  0  0  0
    1.1511   -1.9983    0.0000 C   0  0  0  0  0  0  0  0  0  0  0  0
    0.0000   -2.6613    0.0000 N   0  0  0  0  0  0  0  0  0  0  0  0
    1.1511   -0.6630    0.0000 C   0  0  0  0  0  0  0  0  0  0  0  0
    0.0000    0.0000    0.0000 C   0  0  0  0  0  0  0  0  0  0  0  0
    2.3022    0.0000    0.0000 C   0  0  0  0  0  0  0  0  0  0  0  0
  1  2  1  0  0  0  0
  1  9  1  0  0  0  0
  2  3  2  0  0  0  0
  2  8  1  0  0  0  0
  3  4  1  0  0  0  0
  4  5  2  0  0  0  0
  5  6  1  0  0  0  0
  5  7  1  0  0  0  0
  7  8  2  0  0  0  0
  9 10  2  0  0  0  0
  9 16  1  0  0  0  0
 10 11  1  0  0  0  0
 11 12  2  0  0  0  0
 12 13  1  0  0  0  0
 12 14  1  0  0  0  0
 14 15  1  0  0  0  0
 14 16  2  0  0  0  0
M  END
> <ID>
3704

> <Formula>
C13H14N2O

> <FW>
214.2631

> <DSSTox_CID>
4483

> <DSSTox_RID>
77420

> <DSSTox_GSID>
24483

> <DSSTox_FileID_Sort>
2103

> <TS_ChemName>
4-Amino-4'-hydroxy-3-methyldiphenylamine

> <TS_ChemName_Synonyms>
4-Amino-4'-hydroxy-3-methyl-diphenylamine

> <TS_CASRN>
6219-89-2

> <CASRN_ChemName_Relationship>
primary

> <TS_Description>
single chemical compound

> <ChemNote>


> <STRUCTURE_Shown>
tested chemical

> <STRUCTURE_Formula>
C13H14N2O

> <STRUCTURE_MW>
214.2631

> <STRUCTURE_ChemType>
defined organic

> <STRUCTURE_DefinedOrganicForm>
parent

> <STRUCTURE_IUPAC>
4-[(4-amino-3-methylphenyl)amino]phenol

> <STRUCTURE_SMILES>
Oc2ccc(Nc1cc(C)c(N)cc1)cc2

> <STRUCTURE_SMILES_Desalt>
Oc2ccc(Nc1cc(C)c(N)cc1)cc2

> <Substance_modify_yyyymmdd>
20080429

$$$$
