622-97-9
ChemmineR-0915142007XD

  9  9  0  0  0  0  0  0  0  0  1 V2000
    0.0000    0.0000    0.0000 C   0  0  0  0  0  0  0  0  0  0  0  0
    0.6638   -1.1542    0.0000 C   0  0  0  0  0  0  0  0  0  0  0  0
    1.9915   -1.1542    0.0000 C   0  0  0  0  0  0  0  0  0  0  0  0
    2.6554    0.0000    0.0000 C   0  0  0  0  0  0  0  0  0  0  0  0
    3.9890    0.0000    0.0000 C   0  0  0  0  0  0  0  0  0  0  0  0
    4.6529   -1.1542    0.0000 C   0  0  0  0  0  0  0  0  0  0  0  0
    3.9890   -2.3025    0.0000 C   0  0  0  0  0  0  0  0  0  0  0  0
    2.6554   -2.3025    0.0000 C   0  0  0  0  0  0  0  0  0  0  0  0
    5.9806   -1.1542    0.0000 C   0  0  0  0  0  0  0  0  0  0  0  0
  1  2  2  0  0  0  0
  2  3  1  0  0  0  0
  3  4  2  0  0  0  0
  3  8  1  0  0  0  0
  4  5  1  0  0  0  0
  5  6  2  0  0  0  0
  6  7  1  0  0  0  0
  6  9  1  0  0  0  0
  7  8  2  0  0  0  0
M  END
> <ID>
855

> <Formula>
C9H10

> <FW>
118.1757

> <DSSTox_CID>
889

> <DSSTox_RID>
75846

> <DSSTox_GSID>
20889

> <DSSTox_FileID_Sort>
530

> <TS_ChemName>
4-Methylstyrene

> <TS_ChemName_Synonyms>
Benzene, 1-ethenyl-4-methyl-; p-Methylstyrene

> <TS_CASRN>
622-97-9

> <CASRN_ChemName_Relationship>
primary

> <TS_Description>
single chemical compound

> <ChemNote>


> <STRUCTURE_Shown>
tested chemical

> <STRUCTURE_Formula>
C9H10

> <STRUCTURE_MW>
118.1757

> <STRUCTURE_ChemType>
defined organic

> <STRUCTURE_DefinedOrganicForm>
parent

> <STRUCTURE_IUPAC>
1-ethenyl-4-methylbenzene

> <STRUCTURE_SMILES>
Cc1ccc(C=C)cc1

> <STRUCTURE_SMILES_Desalt>
Cc1ccc(C=C)cc1

> <Substance_modify_yyyymmdd>
20080429

$$$$
