622-62-8
ChemmineR-0915142007XD

 10 10  0  0  0  0  0  0  0  0  1 V2000
    1.1426   -1.3230    0.0000 C   0  0  0  0  0  0  0  0  0  0  0  0
    1.1426    0.0000    0.0000 O   0  0  0  0  0  0  0  0  0  0  0  0
    2.2851   -2.0145    0.0000 C   0  0  0  0  0  0  0  0  0  0  0  0
    0.0000   -2.0145    0.0000 C   0  0  0  0  0  0  0  0  0  0  0  0
    0.0000   -3.3375    0.0000 C   0  0  0  0  0  0  0  0  0  0  0  0
    2.2851   -3.3375    0.0000 C   0  0  0  0  0  0  0  0  0  0  0  0
    1.1426   -3.9989    0.0000 C   0  0  0  0  0  0  0  0  0  0  0  0
    1.1426   -5.3520    0.0000 O   0  0  0  0  0  0  0  0  0  0  0  0
    2.2851   -6.0135    0.0000 C   0  0  0  0  0  0  0  0  0  0  0  0
    3.4577   -5.3520    0.0000 C   0  0  0  0  0  0  0  0  0  0  0  0
  1  2  1  0  0  0  0
  1  3  2  0  0  0  0
  1  4  1  0  0  0  0
  3  6  1  0  0  0  0
  4  5  2  0  0  0  0
  5  7  1  0  0  0  0
  6  7  2  0  0  0  0
  7  8  1  0  0  0  0
  8  9  1  0  0  0  0
  9 10  1  0  0  0  0
M  END
> <ID>
9937

> <Formula>
C8H10O2

> <FW>
138.1638

> <DSSTox_CID>
24251

> <DSSTox_RID>
80134

> <DSSTox_GSID>
44251

> <DSSTox_FileID_Sort>
4816

> <TS_ChemName>
4-Ethoxyphenol

> <TS_ChemName_Synonyms>
p-Ethoxyphenol

> <TS_CASRN>
622-62-8

> <CASRN_ChemName_Relationship>
primary

> <TS_Description>
single chemical compound

> <ChemNote>


> <STRUCTURE_Shown>
tested chemical

> <STRUCTURE_Formula>
C8H10O2

> <STRUCTURE_MW>
138.1638

> <STRUCTURE_ChemType>
defined organic

> <STRUCTURE_DefinedOrganicForm>
parent

> <STRUCTURE_IUPAC>
4-ethoxyphenol

> <STRUCTURE_SMILES>
CCOc1ccc(O)cc1

> <STRUCTURE_SMILES_Desalt>
CCOc1ccc(O)cc1

> <Substance_modify_yyyymmdd>
20090302

$$$$
