622-20-8
ChemmineR-0915142007XD

 16 17  0  0  0  0  0  0  0  0  1 V2000
    5.9920   -2.2989    0.0000 C   0  0  0  0  0  0  0  0  0  0  0  0
    4.6616   -2.2989    0.0000 C   0  0  0  0  0  0  0  0  0  0  0  0
    3.9911   -1.1494    0.0000 S   0  0  0  0  0  0  0  0  0  0  0  0
    2.6607   -1.1494    0.0000 C   0  0  0  0  0  0  0  0  0  0  0  0
    1.9902   -2.2989    0.0000 C   0  0  0  0  0  0  0  0  0  0  0  0
    0.6599   -2.2989    0.0000 C   0  0  0  0  0  0  0  0  0  0  0  0
    0.0000   -1.1494    0.0000 C   0  0  0  0  0  0  0  0  0  0  0  0
    0.6599    0.0000    0.0000 C   0  0  0  0  0  0  0  0  0  0  0  0
    1.9902    0.0000    0.0000 C   0  0  0  0  0  0  0  0  0  0  0  0
    6.6518   -3.4590    0.0000 S   0  0  0  0  0  0  0  0  0  0  0  0
    7.9822   -3.4590    0.0000 C   0  0  0  0  0  0  0  0  0  0  0  0
    8.6527   -2.2989    0.0000 C   0  0  0  0  0  0  0  0  0  0  0  0
    9.9724   -2.2989    0.0000 C   0  0  0  0  0  0  0  0  0  0  0  0
   10.6429   -3.4590    0.0000 C   0  0  0  0  0  0  0  0  0  0  0  0
    9.9724   -4.6084    0.0000 C   0  0  0  0  0  0  0  0  0  0  0  0
    8.6527   -4.6084    0.0000 C   0  0  0  0  0  0  0  0  0  0  0  0
  1  2  1  0  0  0  0
  1 10  1  0  0  0  0
  2  3  1  0  0  0  0
  3  4  1  0  0  0  0
  4  5  2  0  0  0  0
  4  9  1  0  0  0  0
  5  6  1  0  0  0  0
  6  7  2  0  0  0  0
  7  8  1  0  0  0  0
  8  9  2  0  0  0  0
 10 11  1  0  0  0  0
 11 12  2  0  0  0  0
 11 16  1  0  0  0  0
 12 13  1  0  0  0  0
 13 14  2  0  0  0  0
 14 15  1  0  0  0  0
 15 16  2  0  0  0  0
M  END
> <ID>
3773

> <Formula>
C14H14S2

> <FW>
246.391

> <DSSTox_CID>
4625

> <DSSTox_RID>
77473

> <DSSTox_GSID>
24625

> <DSSTox_FileID_Sort>
2156

> <TS_ChemName>
1,2-Bis(phenylthio)ethane

> <TS_ChemName_Synonyms>
1,2-Bis(phenylthio)ethane (1,1'-(1,2-Ethanediylbis(thio))bis-benzene)

> <TS_CASRN>
622-20-8

> <CASRN_ChemName_Relationship>
primary

> <TS_Description>
single chemical compound

> <ChemNote>


> <STRUCTURE_Shown>
tested chemical

> <STRUCTURE_Formula>
C14H14S2

> <STRUCTURE_MW>
246.391

> <STRUCTURE_ChemType>
defined organic

> <STRUCTURE_DefinedOrganicForm>
parent

> <STRUCTURE_IUPAC>
1,1'-(ethane-1,2-diyldisulfanediyl)dibenzene

> <STRUCTURE_SMILES>
C(CSc1ccccc1)Sc2ccccc2

> <STRUCTURE_SMILES_Desalt>
C(CSc1ccccc1)Sc2ccccc2

> <Substance_modify_yyyymmdd>
20080429

$$$$
