6220-15-1
ChemmineR-0915142007XD

 13 12  0  0  0  0  0  0  0  0  2 V2000
    1.9681   -2.3084    0.0000 N    0  3  0  0  0  0  0  0  0  0  0  0
    0.6898   -2.3084    0.0000 C    0  0  0  0  0  0  0  0  0  0  0  0
    2.7130   -1.1496    0.0000 C    0  0  0  0  0  0  0  0  0  0  0  0
    1.9681    0.0000    0.0000 C    0  0  0  0  0  0  0  0  0  0  0  0
    0.0000   -1.1496    0.0000 C    0  0  0  0  0  0  0  0  0  0  0  0
    0.6898    0.0000    0.0000 C    0  0  0  0  0  0  0  0  0  0  0  0
    2.6119   -3.4488    0.0000 C    0  0  0  0  0  0  0  0  0  0  0  0
    1.9681   -4.5984    0.0000 C    0  0  0  0  0  0  0  0  0  0  0  0
    2.6119   -5.7480    0.0000 C    0  0  0  0  0  0  0  0  0  0  0  0
    1.9221   -6.8884    0.0000 C    0  0  0  0  0  0  0  0  0  0  0  0
    2.6119   -8.0472    0.0000 C    0  0  0  0  0  0  0  0  0  0  0  0
    1.9221   -9.1968    0.0000 C    0  0  0  0  0  0  0  0  0  0  0  0
    4.1753   -2.5659    0.0000 Cl   0  5  0  0  0  0  0  0  0  0  0  0
  1  2  2  0  0  0  0
  1  3  1  0  0  0  0
  1  7  1  0  0  0  0
  2  5  1  0  0  0  0
  3  4  2  0  0  0  0
  4  6  1  0  0  0  0
  5  6  2  0  0  0  0
  7  8  1  0  0  0  0
  8  9  1  0  0  0  0
  9 10  1  0  0  0  0
 10 11  1  0  0  0  0
 11 12  1  0  0  0  0
M  END
> <ID>
13010

> <Formula>
C11H18ClN

> <FW>
199.7203 (164.2668+35.4535)

> <DSSTox_CID>
27911

> <DSSTox_RID>
82664

> <DSSTox_GSID>
47935

> <DSSTox_FileID_Sort>
7341

> <TS_ChemName>
1-Hexylpyridinium chloride

> <TS_ChemName_Synonyms>


> <TS_CASRN>
6220-15-1

> <CASRN_ChemName_Relationship>
primary

> <TS_Description>
single chemical compound

> <ChemNote>
ammonium; parent [46122-12-7]

> <STRUCTURE_Shown>
tested chemical

> <STRUCTURE_Formula>
C11H18ClN

> <STRUCTURE_MW>
199.7203

> <STRUCTURE_ChemType>
defined organic

> <STRUCTURE_DefinedOrganicForm>
salt

> <STRUCTURE_IUPAC>
1-hexylpyridinium chloride

> <STRUCTURE_SMILES>
[Cl-].CCCCCC[n+]1ccccc1

> <STRUCTURE_SMILES_Desalt>
CCCCCC[n+]1ccccc1

> <Substance_modify_yyyymmdd>
20110418

$$$$
