62288-83-9
ChemmineR-0915142007XD

 78 80  0  0  1  0  0  0  0  0  1 V2000
    5.3185   -2.6157    0.0000 C   0  0  0  0  0  0  0  0  0  0  0  0
    4.6428   -3.7709    0.0000 C   0  0  0  0  0  0  0  0  0  0  0  0
    5.3185   -4.9262    0.0000 O   0  0  0  0  0  0  0  0  0  0  0  0
    3.3350   -3.7709    0.0000 O   0  0  0  0  0  0  0  0  0  0  0  0
    0.0000  -12.7513    0.0000 N   0  0  0  0  0  0  0  0  0  0  0  0
    1.1117  -12.0974    0.0000 C   0  0  0  0  0  0  0  0  0  0  0  0
    2.3105  -12.7513    0.0000 C   0  0  0  0  0  0  0  0  0  0  0  0
    3.4439  -12.0974    0.0000 N   0  0  0  0  0  0  0  0  0  0  0  0
    4.5992  -12.7513    0.0000 C   0  0  0  0  0  0  0  0  0  0  0  0
    5.7544  -12.0974    0.0000 C   0  0  0  0  0  0  0  0  0  0  0  0
    6.9097  -12.7513    0.0000 N   0  0  0  0  0  0  0  0  0  0  0  0
    8.0431  -12.0974    0.0000 C   0  0  0  0  0  0  0  0  0  0  0  0
    9.1984  -12.7513    0.0000 O   0  0  0  0  0  0  0  0  0  0  0  0
    1.1117  -10.7678    0.0000 O   0  0  0  0  0  0  0  0  0  0  0  0
    4.5992  -14.0809    0.0000 O   0  0  0  0  0  0  0  0  0  0  0  0
    5.7544  -10.7678    0.0000 C   0  0  0  0  0  0  0  0  0  0  0  0
    4.5992  -10.1139    0.0000 C   0  0  0  0  0  0  0  0  0  0  0  0
    4.5992   -8.7842    0.0000 C   0  0  0  0  0  0  0  0  0  0  0  0
    3.4439   -8.1085    0.0000 N   0  0  0  0  0  0  0  0  0  0  0  0
    8.0431  -10.7678    0.0000 C   0  0  0  0  0  0  0  0  0  0  0  0
    6.9751   -9.9831    0.0000 C   0  0  0  0  0  0  0  0  0  0  0  0
    9.1330   -9.9831    0.0000 N   0  0  0  0  0  0  0  0  0  0  0  0
    7.3892   -8.7189    0.0000 C   0  0  0  0  0  0  0  0  0  0  0  0
    8.7189   -8.7189    0.0000 C   0  0  0  0  0  0  0  0  0  0  0  0
   10.2664  -10.6370    0.0000 C   0  0  0  0  0  0  0  0  0  0  0  0
   11.4217   -9.9831    0.0000 C   0  0  0  0  0  0  0  0  0  0  0  0
   12.5769  -10.6370    0.0000 N   0  0  0  0  0  0  0  0  0  0  0  0
   13.7322   -9.9831    0.0000 C   0  0  0  0  0  0  0  0  0  0  0  0
   14.8656  -10.6370    0.0000 C   0  0  0  0  0  0  0  0  0  0  0  0
   16.0427   -9.9831    0.0000 N   0  0  0  0  0  0  0  0  0  0  0  0
   10.2664  -11.9666    0.0000 O   0  0  0  0  0  0  0  0  0  0  0  0
   11.4217   -8.6535    0.0000 C   0  0  0  0  0  0  0  0  0  0  0  0
   10.2664   -7.9778    0.0000 S   0  0  0  0  0  0  0  0  0  0  0  0
   10.2664   -6.6481    0.0000 S   0  0  0  0  0  0  0  0  0  0  0  0
   13.7322   -8.6535    0.0000 O   0  0  0  0  0  0  0  0  0  0  0  0
   14.8656  -11.9666    0.0000 C   0  0  0  0  0  0  0  0  0  0  0  0
   16.0209  -12.6423    0.0000 C   0  0  0  0  0  0  0  0  0  0  0  0
   16.0209  -13.9720    0.0000 O   0  0  0  0  0  0  0  0  0  0  0  0
   17.1761  -11.9884    0.0000 N   0  0  0  0  0  0  0  0  0  0  0  0
   16.0427   -8.6535    0.0000 C   0  0  0  0  0  0  0  0  0  0  0  0
   17.1979   -7.9995    0.0000 C   0  0  0  0  0  0  0  0  0  0  0  0
   14.8874   -7.9778    0.0000 O   0  0  0  0  0  0  0  0  0  0  0  0
   18.3314   -8.6535    0.0000 C   0  0  0  0  0  0  0  0  0  0  0  0
   19.4866   -7.9995    0.0000 C   0  0  0  0  0  0  0  0  0  0  0  0
   20.6419   -8.6535    0.0000 C   0  0  0  0  0  0  0  0  0  0  0  0
   21.7971   -7.9995    0.0000 N   0  0  0  0  0  0  0  0  0  0  0  0
   20.6419  -10.0049    0.0000 O   0  0  0  0  0  0  0  0  0  0  0  0
   17.1979   -6.6699    0.0000 N   0  0  0  0  0  0  0  0  0  0  0  0
   18.3314   -4.6646    0.0000 C   0  0  0  0  0  0  0  0  0  0  0  0
   18.3314   -5.9942    0.0000 C   0  0  0  0  0  0  0  0  0  0  0  0
   17.1979   -3.9889    0.0000 C   0  0  0  0  0  0  0  0  0  0  0  0
   16.0427   -4.6646    0.0000 C   0  0  0  0  0  0  0  0  0  0  0  0
   16.0427   -5.9942    0.0000 C   0  0  0  0  0  0  0  0  0  0  0  0
   20.6419   -4.6646    0.0000 C   0  0  0  0  0  0  0  0  0  0  0  0
   20.6419   -5.9942    0.0000 C   0  0  0  0  0  0  0  0  0  0  0  0
   19.4866   -3.9889    0.0000 C   0  0  0  0  0  0  0  0  0  0  0  0
   19.4866   -6.6699    0.0000 C   0  0  0  0  0  0  0  0  0  0  0  0
   11.4217   -4.6646    0.0000 N   0  0  0  0  0  0  0  0  0  0  0  0
   10.2664   -3.9889    0.0000 C   0  0  0  0  0  0  0  0  0  0  0  0
    9.1330   -4.6646    0.0000 C   0  0  0  0  0  0  0  0  0  0  0  0
    9.1330   -5.9942    0.0000 C   0  0  0  0  0  0  0  0  0  0  0  0
   13.7104   -4.6646    0.0000 C   0  0  0  0  0  0  0  0  0  0  0  0
   13.7104   -5.9942    0.0000 O   0  0  0  0  0  0  0  0  0  0  0  0
   12.5769   -3.9889    0.0000 C   0  0  0  0  0  0  0  0  0  0  0  0
   14.8656   -3.9889    0.0000 N   0  0  0  0  0  0  0  0  0  0  0  0
   14.8656   -6.6481    0.0000 O   0  0  0  0  0  0  0  0  0  0  0  0
   12.5769   -2.6593    0.0000 C   0  0  0  0  0  0  0  0  0  0  0  0
   14.8656   -2.6593    0.0000 C   0  0  0  0  0  0  0  0  0  0  0  0
   13.7104   -2.0053    0.0000 C   0  0  0  0  0  0  0  0  0  0  0  0
   16.0209   -2.0053    0.0000 C   0  0  0  0  0  0  0  0  0  0  0  0
   16.0209   -0.6757    0.0000 C   0  0  0  0  0  0  0  0  0  0  0  0
   13.7104   -0.6757    0.0000 C   0  0  0  0  0  0  0  0  0  0  0  0
   14.8656    0.0000    0.0000 C   0  0  0  0  0  0  0  0  0  0  0  0
   10.2664   -2.6593    0.0000 O   0  0  0  0  0  0  0  0  0  0  0  0
   17.1761    0.0000    0.0000 O   0  0  0  0  0  0  0  0  0  0  0  0
    2.3105   -8.7624    0.0000 C   0  0  0  0  0  0  0  0  0  0  0  0
    2.3105  -10.0921    0.0000 N   0  0  0  0  0  0  0  0  0  0  0  0
    1.1117   -8.1085    0.0000 N   0  0  0  0  0  0  0  0  0  0  0  0
  1  2  1  0  0  0  0
  2  3  1  0  0  0  0
  2  4  2  0  0  0  0
  5  6  1  0  0  0  0
  6  7  1  0  0  0  0
  6 14  2  0  0  0  0
  7  8  1  0  0  0  0
  8  9  1  0  0  0  0
  9 10  1  0  0  0  0
  9 15  2  0  0  0  0
 10 11  1  0  0  0  0
 10 16  1  6  0  0  0
 11 12  1  0  0  0  0
 12 13  2  0  0  0  0
 20 12  1  6  0  0  0
 16 17  1  0  0  0  0
 17 18  1  0  0  0  0
 18 19  1  0  0  0  0
 19 76  1  0  0  0  0
 20 21  1  0  0  0  0
 20 22  1  0  0  0  0
 21 23  1  0  0  0  0
 22 24  1  0  0  0  0
 22 25  1  0  0  0  0
 23 24  1  0  0  0  0
 26 25  1  6  0  0  0
 25 31  2  0  0  0  0
 26 27  1  0  0  0  0
 26 32  1  0  0  0  0
 27 28  1  0  0  0  0
 28 29  1  0  0  0  0
 28 35  2  0  0  0  0
 29 30  1  0  0  0  0
 29 36  1  1  0  0  0
 30 40  1  0  0  0  0
 32 33  1  0  0  0  0
 33 34  1  0  0  0  0
 34 61  1  0  0  0  0
 36 37  1  0  0  0  0
 37 38  2  0  0  0  0
 37 39  1  0  0  0  0
 40 41  1  0  0  0  0
 40 42  2  0  0  0  0
 41 43  1  1  0  0  0
 41 48  1  0  0  0  0
 43 44  1  0  0  0  0
 44 45  1  0  0  0  0
 45 46  1  0  0  0  0
 45 47  2  0  0  0  0
 48 53  1  0  0  0  0
 49 51  1  0  0  0  0
 49 56  1  0  0  0  0
 49 50  2  0  0  0  0
 50 57  1  0  0  0  0
 52 51  1  1  0  0  0
 52 65  1  0  0  0  0
 52 53  1  0  0  0  0
 53 66  2  0  0  0  0
 54 55  1  0  0  0  0
 54 56  2  0  0  0  0
 55 57  2  0  0  0  0
 58 59  1  0  0  0  0
 58 64  1  0  0  0  0
 59 60  1  0  0  0  0
 59 74  2  0  0  0  0
 60 61  1  0  0  0  0
 62 63  2  0  0  0  0
 62 64  1  0  0  0  0
 62 65  1  0  0  0  0
 64 67  1  1  0  0  0
 67 69  1  0  0  0  0
 68 70  2  0  0  0  0
 68 69  1  0  0  0  0
 69 72  2  0  0  0  0
 70 71  1  0  0  0  0
 71 73  2  0  0  0  0
 71 75  1  0  0  0  0
 72 73  1  0  0  0  0
 76 77  2  0  0  0  0
 76 78  1  0  0  0  0
M  END
> <ID>
12034

> <Formula>
C48H68N14O14S2

> <FW>
1129.2689 (60.0520+1069.2170)

> <DSSTox_CID>
26864

> <DSSTox_RID>
81971

> <DSSTox_GSID>
46864

> <DSSTox_FileID_Sort>
6652

> <TS_ChemName>
Desmopressin acetate

> <TS_ChemName_Synonyms>


> <TS_CASRN>
62288-83-9

> <CASRN_ChemName_Relationship>
primary

> <TS_Description>
single chemical compound

> <ChemNote>
stereochem; tautomers; parent [16679-58-6]

> <STRUCTURE_Shown>
tested chemical

> <STRUCTURE_Formula>
C48H68N14O14S2

> <STRUCTURE_MW>
1129.2689

> <STRUCTURE_ChemType>
defined organic

> <STRUCTURE_DefinedOrganicForm>
complex

> <STRUCTURE_IUPAC>
1-{[(4R,7S,10S,13S,16S)-7-(2-amino-2-oxoethyl)-10-(3-amino-3-oxopropyl)-13-benzyl-16-(4-hydroxybenzyl)-6,9,12,15,18-pentaoxo-1,2-dithia-5,8,11,14,17-pentaazacycloicosan-4-yl]carbonyl}-L-prolyl-L-arginylglycinamide acetate (1:1)

> <STRUCTURE_SMILES>
CC(=O)O.NC(=O)CNC(=O)[C@H](CCCNC(=N)N)NC(=O)[C@@H]1CCCN1C(=O)[C@@H]4CSSCCC(=O)N[C@@H](Cc2ccc(O)cc2)C(=O)N[C@@H](Cc3ccccc3)C(=O)N[C@@H](CCC(N)=O)C(=O)N[C@@H](CC(N)=O)C(=O)N4

> <STRUCTURE_SMILES_Desalt>
NC(=O)CNC(=O)[C@H](CCCNC(=N)N)NC(=O)[C@@H]1CCCN1C(=O)[C@@H]4CSSCCC(=O)N[C@@H](Cc2ccc(O)cc2)C(=O)N[C@@H](Cc3ccccc3)C(=O)N[C@@H](CCC(N)=O)C(=O)N[C@@H](CC(N)=O)C(=O)N4

> <Substance_modify_yyyymmdd>
20110728

$$$$
