623-07-4
ChemmineR-0915142007XD

  9  9  0  0  0  0  0  0  0  0  1 V2000
    5.9806   -1.1542    0.0000 O    0  0  0  0  0  0  0  0  0  0  0  0
    4.6529   -1.1542    0.0000 C    0  0  0  0  0  0  0  0  0  0  0  0
    3.9890   -2.3025    0.0000 C    0  0  0  0  0  0  0  0  0  0  0  0
    2.6554   -2.3025    0.0000 C    0  0  0  0  0  0  0  0  0  0  0  0
    1.9915   -1.1542    0.0000 C    0  0  0  0  0  0  0  0  0  0  0  0
    0.6638   -1.1542    0.0000 Hg   0  0  0  0  0  0  0  0  0  0  0  0
    0.0000    0.0000    0.0000 Cl   0  0  0  0  0  0  0  0  0  0  0  0
    2.6554    0.0000    0.0000 C    0  0  0  0  0  0  0  0  0  0  0  0
    3.9890    0.0000    0.0000 C    0  0  0  0  0  0  0  0  0  0  0  0
  1  2  1  0  0  0  0
  2  3  2  0  0  0  0
  2  9  1  0  0  0  0
  3  4  1  0  0  0  0
  4  5  2  0  0  0  0
  5  6  1  0  0  0  0
  5  8  1  0  0  0  0
  6  7  1  0  0  0  0
  8  9  2  0  0  0  0
M  END
> <ID>
12042

> <Formula>
C6H5ClHgO

> <FW>
329.1463

> <DSSTox_CID>
26872

> <DSSTox_RID>
81979

> <DSSTox_GSID>
46872

> <DSSTox_FileID_Sort>
6660

> <TS_ChemName>
4-Chloromercuriphenol

> <TS_ChemName_Synonyms>


> <TS_CASRN>
623-07-4

> <CASRN_ChemName_Relationship>
primary

> <TS_Description>
single chemical compound

> <ChemNote>


> <STRUCTURE_Shown>
tested chemical

> <STRUCTURE_Formula>
C6H5ClHgO

> <STRUCTURE_MW>
329.1463

> <STRUCTURE_ChemType>
organometallic

> <STRUCTURE_DefinedOrganicForm>


> <STRUCTURE_IUPAC>
chloro(4-hydroxyphenyl)mercury

> <STRUCTURE_SMILES>
Cl[Hg]c1ccc(O)cc1

> <STRUCTURE_SMILES_Desalt>
Cl[Hg]c1ccc(O)cc1

> <Substance_modify_yyyymmdd>
20110728

$$$$
