623-84-7
ChemmineR-0915142007XD

 11 10  0  0  0  0  0  0  0  0  1 V2000
    3.4387   -1.3288    0.0000 C   0  0  0  0  0  0  0  0  0  0  0  0
    4.5983   -1.9972    0.0000 C   0  0  0  0  0  0  0  0  0  0  0  0
    2.3032   -1.9972    0.0000 O   0  0  0  0  0  0  0  0  0  0  0  0
    3.4387    0.0000    0.0000 C   0  0  0  0  0  0  0  0  0  0  0  0
    5.7499   -1.3288    0.0000 O   0  0  0  0  0  0  0  0  0  0  0  0
    1.1516   -1.3288    0.0000 C   0  0  0  0  0  0  0  0  0  0  0  0
    6.9015   -1.9972    0.0000 C   0  0  0  0  0  0  0  0  0  0  0  0
    0.0000   -1.9972    0.0000 C   0  0  0  0  0  0  0  0  0  0  0  0
    1.1516    0.0000    0.0000 O   0  0  0  0  0  0  0  0  0  0  0  0
    6.9015   -3.3259    0.0000 O   0  0  0  0  0  0  0  0  0  0  0  0
    8.0531   -1.3288    0.0000 C   0  0  0  0  0  0  0  0  0  0  0  0
  1  2  1  0  0  0  0
  1  3  1  0  0  0  0
  1  4  1  0  0  0  0
  2  5  1  0  0  0  0
  3  6  1  0  0  0  0
  5  7  1  0  0  0  0
  6  8  1  0  0  0  0
  6  9  2  0  0  0  0
  7 10  2  0  0  0  0
  7 11  1  0  0  0  0
M  END
> <ID>
10475

> <Formula>
C7H12O4

> <FW>
160.1678

> <DSSTox_CID>
24827

> <DSSTox_RID>
80508

> <DSSTox_GSID>
44827

> <DSSTox_FileID_Sort>
5190

> <TS_ChemName>
Propane-1,2-diyl diacetate

> <TS_ChemName_Synonyms>
Propane-1,2-diyl diacetate (1,2-Propanediol, diacetate)

> <TS_CASRN>
623-84-7

> <CASRN_ChemName_Relationship>
primary

> <TS_Description>
single chemical compound

> <ChemNote>


> <STRUCTURE_Shown>
tested chemical

> <STRUCTURE_Formula>
C7H12O4

> <STRUCTURE_MW>
160.1678

> <STRUCTURE_ChemType>
defined organic

> <STRUCTURE_DefinedOrganicForm>
parent

> <STRUCTURE_IUPAC>
propane-1,2-diyl diacetate

> <STRUCTURE_SMILES>
CC(COC(=O)C)OC(=O)C

> <STRUCTURE_SMILES_Desalt>
CC(COC(=O)C)OC(=O)C

> <Substance_modify_yyyymmdd>
20091116

$$$$
