623-91-6
ChemmineR-0915142007XD

 12 11  0  0  0  0  0  0  0  0  1 V2000
    3.4136   -1.2814    0.0000 C   0  0  0  0  0  0  0  0  0  0  0  0
    4.5823   -1.9887    0.0000 C   0  0  0  0  0  0  0  0  0  0  0  0
    5.7099   -1.2814    0.0000 C   0  0  0  0  0  0  0  0  0  0  0  0
    6.8375   -1.9887    0.0000 C   0  0  0  0  0  0  0  0  0  0  0  0
    3.4136    0.0000    0.0000 O   0  0  0  0  0  0  0  0  0  0  0  0
    2.2860   -1.9887    0.0000 O   0  0  0  0  0  0  0  0  0  0  0  0
    6.8375   -3.2701    0.0000 O   0  0  0  0  0  0  0  0  0  0  0  0
    7.9651   -1.2814    0.0000 O   0  0  0  0  0  0  0  0  0  0  0  0
    1.1584   -1.2814    0.0000 C   0  0  0  0  0  0  0  0  0  0  0  0
    0.0000   -1.9887    0.0000 C   0  0  0  0  0  0  0  0  0  0  0  0
    9.1235   -1.9887    0.0000 C   0  0  0  0  0  0  0  0  0  0  0  0
   10.2512   -1.2814    0.0000 C   0  0  0  0  0  0  0  0  0  0  0  0
  1  2  1  0  0  0  0
  1  6  1  0  0  0  0
  1  5  2  0  0  0  0
  2  3  2  0  0  0  0
  3  4  1  0  0  0  0
  4  8  1  0  0  0  0
  4  7  2  0  0  0  0
  6  9  1  0  0  0  0
  8 11  1  0  0  0  0
  9 10  1  0  0  0  0
 11 12  1  0  0  0  0
M  END
> <ID>
5024

> <Formula>
C8H12O4

> <FW>
172.1785

> <DSSTox_CID>
7253

> <DSSTox_RID>
78370

> <DSSTox_GSID>
27253

> <DSSTox_FileID_Sort>
3053

> <TS_ChemName>
Diethyl (2E)-but-2-enedioate

> <TS_ChemName_Synonyms>


> <TS_CASRN>
623-91-6

> <CASRN_ChemName_Relationship>
primary

> <TS_Description>
single chemical compound

> <ChemNote>
stereochem

> <STRUCTURE_Shown>
tested chemical

> <STRUCTURE_Formula>
C8H12O4

> <STRUCTURE_MW>
172.1785

> <STRUCTURE_ChemType>
defined organic

> <STRUCTURE_DefinedOrganicForm>
parent

> <STRUCTURE_IUPAC>
diethyl (2E)-but-2-enedioate

> <STRUCTURE_SMILES>
O=C(/C=C/C(=O)OCC)OCC

> <STRUCTURE_SMILES_Desalt>
O=C(/C=C/C(=O)OCC)OCC

> <Substance_modify_yyyymmdd>
20080429

$$$$
