623-39-2
ChemmineR-0915142007XD

  7  6  0  0  0  0  0  0  0  0  1 V2000
    0.0000   -2.3029    0.0000 C   0  0  0  0  0  0  0  0  0  0  0  0
    3.9889   -2.3029    0.0000 C   0  0  0  0  0  0  0  0  0  0  0  0
    1.9944   -1.1488    0.0000 C   0  0  0  0  0  0  0  0  0  0  0  0
    3.3241   -1.1488    0.0000 C   0  0  0  0  0  0  0  0  0  0  0  0
    5.3185   -2.3029    0.0000 O   0  0  0  0  0  0  0  0  0  0  0  0
    3.9889    0.0000    0.0000 O   0  0  0  0  0  0  0  0  0  0  0  0
    1.3296   -2.3029    0.0000 O   0  0  0  0  0  0  0  0  0  0  0  0
  1  7  1  0  0  0  0
  2  4  1  0  0  0  0
  2  5  1  0  0  0  0
  3  4  1  0  0  0  0
  3  7  1  0  0  0  0
  4  6  1  0  0  0  0
M  END
> <ID>
14200

> <Formula>
C4H10O3

> <FW>
106.1204

> <DSSTox_CID>
29293

> <DSSTox_RID>
83411

> <DSSTox_GSID>
49336

> <DSSTox_FileID_Sort>
8086

> <TS_ChemName>
1-O-Methylglycerol

> <TS_ChemName_Synonyms>


> <TS_CASRN>
623-39-2

> <CASRN_ChemName_Relationship>
primary

> <TS_Description>
single chemical compound

> <ChemNote>


> <STRUCTURE_Shown>
tested chemical

> <STRUCTURE_Formula>
C4H10O3

> <STRUCTURE_MW>
106.1204

> <STRUCTURE_ChemType>
defined organic

> <STRUCTURE_DefinedOrganicForm>
parent

> <STRUCTURE_IUPAC>
3-methoxypropane-1,2-diol

> <STRUCTURE_SMILES>
OCC(O)COC

> <STRUCTURE_SMILES_Desalt>
OCC(O)COC

> <Substance_modify_yyyymmdd>
20111204

$$$$
