623-42-7
ChemmineR-0915142007XD

  7  6  0  0  0  0  0  0  0  0  1 V2000
    3.4876   -1.3245    0.0000 C   0  0  0  0  0  0  0  0  0  0  0  0
    3.4876    0.0000    0.0000 O   0  0  0  0  0  0  0  0  0  0  0  0
    4.6385   -2.0012    0.0000 O   0  0  0  0  0  0  0  0  0  0  0  0
    2.3251   -2.0012    0.0000 C   0  0  0  0  0  0  0  0  0  0  0  0
    1.1336   -1.3707    0.0000 C   0  0  0  0  0  0  0  0  0  0  0  0
    0.0000   -2.0012    0.0000 C   0  0  0  0  0  0  0  0  0  0  0  0
    5.7837   -1.3245    0.0000 C   0  0  0  0  0  0  0  0  0  0  0  0
  1  2  2  0  0  0  0
  1  3  1  0  0  0  0
  1  4  1  0  0  0  0
  3  7  1  0  0  0  0
  4  5  1  0  0  0  0
  5  6  1  0  0  0  0
M  END
> <ID>
12234

> <Formula>
C5H10O2

> <FW>
102.1317

> <DSSTox_CID>
27083

> <DSSTox_RID>
82095

> <DSSTox_GSID>
47083

> <DSSTox_FileID_Sort>
6776

> <TS_ChemName>
Methyl butyrate

> <TS_ChemName_Synonyms>


> <TS_CASRN>
623-42-7

> <CASRN_ChemName_Relationship>
primary

> <TS_Description>
single chemical compound

> <ChemNote>


> <STRUCTURE_Shown>
tested chemical

> <STRUCTURE_Formula>
C5H10O2

> <STRUCTURE_MW>
102.1317

> <STRUCTURE_ChemType>
defined organic

> <STRUCTURE_DefinedOrganicForm>
parent

> <STRUCTURE_IUPAC>
methyl butanoate

> <STRUCTURE_SMILES>
CCCC(=O)OC

> <STRUCTURE_SMILES_Desalt>
CCCC(=O)OC

> <Substance_modify_yyyymmdd>
20100429

$$$$
