623-03-0
ChemmineR-0915142007XD

  9  9  0  0  0  0  0  0  0  0  1 V2000
    4.6197   -1.3305    0.0000 C    0  0  0  0  0  0  0  0  0  0  0  0
    4.6197    0.0000    0.0000 N    0  0  0  0  0  0  0  0  0  0  0  0
    3.4648   -1.9865    0.0000 C    0  0  0  0  0  0  0  0  0  0  0  0
    2.3098   -1.3305    0.0000 C    0  0  0  0  0  0  0  0  0  0  0  0
    3.4648   -3.3216    0.0000 C    0  0  0  0  0  0  0  0  0  0  0  0
    1.1549   -1.9865    0.0000 C    0  0  0  0  0  0  0  0  0  0  0  0
    2.3098   -3.9776    0.0000 C    0  0  0  0  0  0  0  0  0  0  0  0
    1.1549   -3.3216    0.0000 C    0  0  0  0  0  0  0  0  0  0  0  0
    0.0000   -3.9776    0.0000 Cl   0  0  0  0  0  0  0  0  0  0  0  0
  1  2  3  0  0  0  0
  1  3  1  0  0  0  0
  3  4  2  0  0  0  0
  3  5  1  0  0  0  0
  4  6  1  0  0  0  0
  5  7  2  0  0  0  0
  6  8  2  0  0  0  0
  7  8  1  0  0  0  0
  8  9  1  0  0  0  0
M  END
> <ID>
10355

> <Formula>
C7H4ClN

> <FW>
137.5664

> <DSSTox_CID>
24703

> <DSSTox_RID>
80408

> <DSSTox_GSID>
44703

> <DSSTox_FileID_Sort>
5090

> <TS_ChemName>
4-Chlorobenzonitrile

> <TS_ChemName_Synonyms>
4-Chlorobenzonitrile (Benzonitrile, 4-chloro-)

> <TS_CASRN>
623-03-0

> <CASRN_ChemName_Relationship>
primary

> <TS_Description>
single chemical compound

> <ChemNote>


> <STRUCTURE_Shown>
tested chemical

> <STRUCTURE_Formula>
C7H4ClN

> <STRUCTURE_MW>
137.5664

> <STRUCTURE_ChemType>
defined organic

> <STRUCTURE_DefinedOrganicForm>
parent

> <STRUCTURE_IUPAC>
4-chlorobenzonitrile

> <STRUCTURE_SMILES>
N#Cc1ccc(Cl)cc1

> <STRUCTURE_SMILES_Desalt>
N#Cc1ccc(Cl)cc1

> <Substance_modify_yyyymmdd>
20091116

$$$$
