623167-81-7
ChemmineR-0915142007XD

 20 19  0  0  0  0  0  0  0  0  2 V2000
    7.3241   -9.4019    0.0000 C   0  0  0  0  0  0  0  0  0  0  0  0
    6.6659   -8.2454    0.0000 C   0  0  0  0  0  0  0  0  0  0  0  0
    7.3241   -7.0984    0.0000 C   0  0  0  0  0  0  0  0  0  0  0  0
    6.6659   -5.9420    0.0000 C   0  0  0  0  0  0  0  0  0  0  0  0
    8.6591   -0.1786    0.0000 C   0  0  0  0  0  0  0  0  0  0  0  0
    7.3241   -4.7856    0.0000 C   0  0  0  0  0  0  0  0  0  0  0  0
    7.3241   -0.1786    0.0000 C   0  0  0  0  0  0  0  0  0  0  0  0
    9.3267   -1.3351    0.0000 C   0  0  0  0  0  0  0  0  0  0  0  0
    6.6659   -3.6385    0.0000 C   0  0  0  0  0  0  0  0  0  0  0  0
    6.6659   -1.3351    0.0000 C   0  0  0  0  0  0  0  0  0  0  0  0
    8.6591   -2.4821    0.0000 C   0  0  0  0  0  0  0  0  0  0  0  0
    7.3241   -2.4821    0.0000 N   0  3  0  0  0  0  0  0  0  0  0  0
    1.3351   -1.3351    0.0000 C   0  0  0  0  0  0  0  0  0  0  0  0
    0.0000   -1.3351    0.0000 F   0  0  0  0  0  0  0  0  0  0  0  0
    1.3351   -2.6607    0.0000 F   0  0  0  0  0  0  0  0  0  0  0  0
    1.3351    0.0000    0.0000 F   0  0  0  0  0  0  0  0  0  0  0  0
    2.6607   -2.6607    0.0000 O   0  5  0  0  0  0  0  0  0  0  0  0
    2.6607    0.0000    0.0000 O   0  0  0  0  0  0  0  0  0  0  0  0
    3.9958   -1.3351    0.0000 O   0  0  0  0  0  0  0  0  0  0  0  0
    2.6607   -1.3351    0.0000 S   0  0  0  0  0  0  0  0  0  0  0  0
  1  2  1  0  0  0  0
  2  3  1  0  0  0  0
  3  4  1  0  0  0  0
  4  6  1  0  0  0  0
  5  7  2  0  0  0  0
  5  8  1  0  0  0  0
  6  9  1  0  0  0  0
  7 10  1  0  0  0  0
  8 11  2  0  0  0  0
  9 12  1  0  0  0  0
 10 12  2  0  0  0  0
 11 12  1  0  0  0  0
 13 14  1  0  0  0  0
 13 15  1  0  0  0  0
 13 16  1  0  0  0  0
 13 20  1  0  0  0  0
 17 20  1  0  0  0  0
 18 20  2  0  0  0  0
 19 20  2  0  0  0  0
M  END
> <ID>
14199

> <Formula>
C12H18F3NO3S

> <FW>
313.3364 (164.2668+149.0697)

> <DSSTox_CID>
29292

> <DSSTox_RID>
83410

> <DSSTox_GSID>
49335

> <DSSTox_FileID_Sort>
8085

> <TS_ChemName>
1-Hexylpyridinium trifluoromethanesulfonate

> <TS_ChemName_Synonyms>


> <TS_CASRN>
623167-81-7

> <CASRN_ChemName_Relationship>
primary

> <TS_Description>
single chemical compound

> <ChemNote>


> <STRUCTURE_Shown>
tested chemical

> <STRUCTURE_Formula>
C12H18F3NO3S

> <STRUCTURE_MW>
313.3364

> <STRUCTURE_ChemType>
defined organic

> <STRUCTURE_DefinedOrganicForm>
complex

> <STRUCTURE_IUPAC>
1-hexylpyridinium trifluoromethanesulfonate

> <STRUCTURE_SMILES>
FC(F)(F)S([O-])(=O)=O.CCCCCC[n+]1ccccc1

> <STRUCTURE_SMILES_Desalt>
CCCCCC[n+]1ccccc1

> <Substance_modify_yyyymmdd>
20111204

$$$$
