6233-83-6
ChemmineR-0915142007XD

 74 75  0  0  1  0  0  0  0  0  1 V2000
    0.0000  -12.7548    0.0000 N   0  0  0  0  0  0  0  0  0  0  0  0
    1.1120  -12.1007    0.0000 C   0  0  0  0  0  0  0  0  0  0  0  0
    2.3111  -12.7548    0.0000 C   0  0  0  0  0  0  0  0  0  0  0  0
    3.4449  -12.1007    0.0000 N   0  0  0  0  0  0  0  0  0  0  0  0
    4.6005  -12.7548    0.0000 C   0  0  0  0  0  0  0  0  0  0  0  0
    5.7560  -12.1007    0.0000 C   0  0  0  0  0  0  0  0  0  0  0  0
    6.9116  -12.7548    0.0000 N   0  0  0  0  0  0  0  0  0  0  0  0
    8.0454  -12.1007    0.0000 C   0  0  0  0  0  0  0  0  0  0  0  0
    9.2009  -12.7548    0.0000 O   0  0  0  0  0  0  0  0  0  0  0  0
    1.1120  -10.7708    0.0000 O   0  0  0  0  0  0  0  0  0  0  0  0
    4.6005  -14.0848    0.0000 O   0  0  0  0  0  0  0  0  0  0  0  0
    5.7560  -10.7708    0.0000 C   0  0  0  0  0  0  0  0  0  0  0  0
    4.6005  -10.0949    0.0000 C   0  0  0  0  0  0  0  0  0  0  0  0
    3.4449  -10.7708    0.0000 C   0  0  0  0  0  0  0  0  0  0  0  0
    8.0454  -10.7708    0.0000 C   0  0  0  0  0  0  0  0  0  0  0  0
    6.9770   -9.9858    0.0000 C   0  0  0  0  0  0  0  0  0  0  0  0
    9.1355   -9.9858    0.0000 N   0  0  0  0  0  0  0  0  0  0  0  0
    7.3913   -8.7213    0.0000 C   0  0  0  0  0  0  0  0  0  0  0  0
    8.7213   -8.7213    0.0000 C   0  0  0  0  0  0  0  0  0  0  0  0
   10.2693  -10.6399    0.0000 C   0  0  0  0  0  0  0  0  0  0  0  0
   11.4248   -9.9858    0.0000 C   0  0  0  0  0  0  0  0  0  0  0  0
   12.5804  -10.6399    0.0000 N   0  0  0  0  0  0  0  0  0  0  0  0
   13.7360   -9.9858    0.0000 C   0  0  0  0  0  0  0  0  0  0  0  0
   14.8697  -10.6399    0.0000 C   0  0  0  0  0  0  0  0  0  0  0  0
   16.0471   -9.9858    0.0000 N   0  0  0  0  0  0  0  0  0  0  0  0
   10.2693  -11.9699    0.0000 O   0  0  0  0  0  0  0  0  0  0  0  0
   11.4248   -8.6558    0.0000 C   0  0  0  0  0  0  0  0  0  0  0  0
   10.2693   -7.9800    0.0000 S   0  0  0  0  0  0  0  0  0  0  0  0
   10.2693   -6.6500    0.0000 S   0  0  0  0  0  0  0  0  0  0  0  0
   13.7360   -8.6558    0.0000 O   0  0  0  0  0  0  0  0  0  0  0  0
   14.8697  -11.9699    0.0000 C   0  0  0  0  0  0  0  0  0  0  0  0
   16.0253  -12.6458    0.0000 C   0  0  0  0  0  0  0  0  0  0  0  0
   16.0253  -13.9758    0.0000 O   0  0  0  0  0  0  0  0  0  0  0  0
   17.1809  -11.9917    0.0000 N   0  0  0  0  0  0  0  0  0  0  0  0
   16.0471   -8.6558    0.0000 C   0  0  0  0  0  0  0  0  0  0  0  0
   17.2027   -8.0018    0.0000 C   0  0  0  0  0  0  0  0  0  0  0  0
   14.8916   -7.9800    0.0000 O   0  0  0  0  0  0  0  0  0  0  0  0
   18.3364   -8.6558    0.0000 C   0  0  0  0  0  0  0  0  0  0  0  0
   19.4920   -8.0018    0.0000 C   0  0  0  0  0  0  0  0  0  0  0  0
   20.6476   -8.6558    0.0000 C   0  0  0  0  0  0  0  0  0  0  0  0
   21.8031   -8.0018    0.0000 N   0  0  0  0  0  0  0  0  0  0  0  0
   20.6476  -10.0076    0.0000 O   0  0  0  0  0  0  0  0  0  0  0  0
   17.2027   -6.6718    0.0000 N   0  0  0  0  0  0  0  0  0  0  0  0
   18.3364   -4.6659    0.0000 C   0  0  0  0  0  0  0  0  0  0  0  0
   17.2027   -4.0118    0.0000 C   0  0  0  0  0  0  0  0  0  0  0  0
   16.0471   -4.6659    0.0000 C   0  0  0  0  0  0  0  0  0  0  0  0
   16.0471   -5.9959    0.0000 C   0  0  0  0  0  0  0  0  0  0  0  0
   19.4920   -4.0118    0.0000 C   0  0  0  0  0  0  0  0  0  0  0  0
   11.4248   -4.6659    0.0000 N   0  0  0  0  0  0  0  0  0  0  0  0
   10.2693   -3.9900    0.0000 C   0  0  0  0  0  0  0  0  0  0  0  0
    9.1355   -4.6659    0.0000 C   0  0  0  0  0  0  0  0  0  0  0  0
    9.1355   -5.9959    0.0000 C   0  0  0  0  0  0  0  0  0  0  0  0
   13.7142   -4.6659    0.0000 C   0  0  0  0  0  0  0  0  0  0  0  0
   13.7142   -5.9959    0.0000 O   0  0  0  0  0  0  0  0  0  0  0  0
   12.5804   -3.9900    0.0000 C   0  0  0  0  0  0  0  0  0  0  0  0
   14.8697   -3.9900    0.0000 N   0  0  0  0  0  0  0  0  0  0  0  0
   14.8697   -6.6500    0.0000 O   0  0  0  0  0  0  0  0  0  0  0  0
   12.5804   -2.6600    0.0000 C   0  0  0  0  0  0  0  0  0  0  0  0
   14.8697   -2.6600    0.0000 C   0  0  0  0  0  0  0  0  0  0  0  0
   13.7142   -2.0059    0.0000 C   0  0  0  0  0  0  0  0  0  0  0  0
   16.0253   -2.0059    0.0000 C   0  0  0  0  0  0  0  0  0  0  0  0
   16.0253   -0.6759    0.0000 C   0  0  0  0  0  0  0  0  0  0  0  0
   13.7142   -0.6759    0.0000 C   0  0  0  0  0  0  0  0  0  0  0  0
   14.8697    0.0000    0.0000 C   0  0  0  0  0  0  0  0  0  0  0  0
    8.0018   -3.9900    0.0000 N   0  0  0  0  0  0  0  0  0  0  0  0
   10.2693   -2.6600    0.0000 O   0  0  0  0  0  0  0  0  0  0  0  0
   16.0471   -3.3359    0.0000 H   0  0  0  0  0  0  0  0  0  0  0  0
   17.1809    0.0000    0.0000 O   0  0  0  0  0  0  0  0  0  0  0  0
    4.6005   -8.7649    0.0000 C   0  0  0  0  0  0  0  0  0  0  0  0
   17.2027   -2.6600    0.0000 C   0  0  0  0  0  0  0  0  0  0  0  0
    3.9682   -5.3418    0.0000 C   0  0  0  0  0  0  0  0  0  0  0  0
    3.9682   -6.6718    0.0000 O   0  0  0  0  0  0  0  0  0  0  0  0
    5.1237   -4.6659    0.0000 O   0  0  0  0  0  0  0  0  0  0  0  0
    2.8126   -4.6659    0.0000 C   0  0  0  0  0  0  0  0  0  0  0  0
  1  2  1  0  0  0  0
  2  3  1  0  0  0  0
  2 10  2  0  0  0  0
  3  4  1  0  0  0  0
  4  5  1  0  0  0  0
  5  6  1  0  0  0  0
  5 11  2  0  0  0  0
  6  7  1  0  0  0  0
  6 12  1  6  0  0  0
  7  8  1  0  0  0  0
  8  9  2  0  0  0  0
 15  8  1  6  0  0  0
 12 13  1  0  0  0  0
 13 14  1  0  0  0  0
 13 69  1  0  0  0  0
 15 16  1  0  0  0  0
 15 17  1  0  0  0  0
 16 18  1  0  0  0  0
 17 19  1  0  0  0  0
 17 20  1  0  0  0  0
 18 19  1  0  0  0  0
 21 20  1  6  0  0  0
 20 26  2  0  0  0  0
 21 22  1  0  0  0  0
 21 27  1  0  0  0  0
 22 23  1  0  0  0  0
 23 24  1  0  0  0  0
 23 30  2  0  0  0  0
 24 25  1  0  0  0  0
 24 31  1  1  0  0  0
 25 35  1  0  0  0  0
 27 28  1  0  0  0  0
 28 29  1  0  0  0  0
 29 52  1  0  0  0  0
 31 32  1  0  0  0  0
 32 33  2  0  0  0  0
 32 34  1  0  0  0  0
 35 36  1  0  0  0  0
 35 37  2  0  0  0  0
 36 38  1  1  0  0  0
 36 43  1  0  0  0  0
 38 39  1  0  0  0  0
 39 40  1  0  0  0  0
 40 41  1  0  0  0  0
 40 42  2  0  0  0  0
 43 47  1  0  0  0  0
 44 45  1  0  0  0  0
 44 48  1  0  0  0  0
 45 46  1  0  0  0  0
 45 70  1  1  0  0  0
 46 56  1  0  0  0  0
 46 47  1  0  0  0  0
 46 67  1  6  0  0  0
 47 57  2  0  0  0  0
 49 50  1  0  0  0  0
 49 55  1  0  0  0  0
 50 51  1  0  0  0  0
 50 66  2  0  0  0  0
 51 52  1  0  0  0  0
 51 65  1  6  0  0  0
 53 54  2  0  0  0  0
 53 55  1  0  0  0  0
 53 56  1  0  0  0  0
 55 58  1  1  0  0  0
 58 60  1  0  0  0  0
 59 61  2  0  0  0  0
 59 60  1  0  0  0  0
 60 63  2  0  0  0  0
 61 62  1  0  0  0  0
 62 64  2  0  0  0  0
 62 68  1  0  0  0  0
 63 64  1  0  0  0  0
 71 72  2  0  0  0  0
 71 73  1  0  0  0  0
 71 74  1  0  0  0  0
M  END
> <ID>
11779

> <Formula>
C45H70N12O14S2

> <FW>
1067.2393 (1007.1873+60.0520)

> <DSSTox_CID>
26552

> <DSSTox_RID>
81713

> <DSSTox_GSID>
46552

> <DSSTox_FileID_Sort>
6394

> <TS_ChemName>
Oxytocin acetate

> <TS_ChemName_Synonyms>


> <TS_CASRN>
6233-83-6

> <CASRN_ChemName_Relationship>
primary

> <TS_Description>
single chemical compound

> <ChemNote>
stereochem; parent [50-56-6]

> <STRUCTURE_Shown>
tested chemical

> <STRUCTURE_Formula>
C45H70N12O14S2

> <STRUCTURE_MW>
1067.2393

> <STRUCTURE_ChemType>
defined organic

> <STRUCTURE_DefinedOrganicForm>
complex

> <STRUCTURE_IUPAC>
1-{[(4R,7S,10S,13S,16S,19R)-19-amino-7-(2-amino-2-oxoethyl)-10-(3-amino-3-oxopropyl)-13-[(2S)-butan-2-yl]-16-(4-hydroxybenzyl)-6,9,12,15,18-pentaoxo-1,2-dithia-5,8,11,14,17-pentaazacycloicosan-4-yl]carbonyl}-L-prolyl-L-leucylglycinamide acetate (1:1)

> <STRUCTURE_SMILES>
CC(=O)O.NC(=O)CNC(=O)[C@H](CC(C)C)NC(=O)[C@@H]1CCCN1C(=O)[C@@H]3CSSC[C@H](N)C(=O)N[C@@H](Cc2ccc(O)cc2)C(=O)N[C@@H]([C@@H](C)CC)C(=O)N[C@@H](CCC(N)=O)C(=O)N[C@@H](CC(N)=O)C(=O)N3

> <STRUCTURE_SMILES_Desalt>
NC(=O)CNC(=O)[C@H](CC(C)C)NC(=O)[C@@H]1CCCN1C(=O)[C@@H]3CSSC[C@H](N)C(=O)N[C@@H](Cc2ccc(O)cc2)C(=O)N[C@@H]([C@@H](C)CC)C(=O)N[C@@H](CCC(N)=O)C(=O)N[C@@H](CC(N)=O)C(=O)N3

> <Substance_modify_yyyymmdd>
20110811

$$$$
