623580-02-9
ChemmineR-0915142007XD

 26 25  0  0  0  0  0  0  0  0  2 V2000
   12.5928   -8.6009    0.0000 C   0  0  0  0  0  0  0  0  0  0  0  0
    9.1424   -5.2764    0.0000 C   0  0  0  0  0  0  0  0  0  0  0  0
   11.4469   -7.9335    0.0000 C   0  0  0  0  0  0  0  0  0  0  0  0
   11.4469   -6.6112    0.0000 C   0  0  0  0  0  0  0  0  0  0  0  0
   11.6232   -2.3045    0.0000 C   0  0  0  0  0  0  0  0  0  0  0  0
   10.2883   -2.3045    0.0000 C   0  0  0  0  0  0  0  0  0  0  0  0
   12.2780   -3.4630    0.0000 C   0  0  0  0  0  0  0  0  0  0  0  0
   10.2883   -5.9438    0.0000 C   0  0  0  0  0  0  0  0  0  0  0  0
    9.6209   -3.4630    0.0000 C   0  0  0  0  0  0  0  0  0  0  0  0
   11.6232   -4.6090    0.0000 C   0  0  0  0  0  0  0  0  0  0  0  0
   10.2883   -4.6090    0.0000 N   0  3  0  0  0  0  0  0  0  0  0  0
    1.3348   -3.4630    0.0000 C   0  0  0  0  0  0  0  0  0  0  0  0
    5.3142   -1.1585    0.0000 C   0  0  0  0  0  0  0  0  0  0  0  0
    0.0000   -3.4630    0.0000 F   0  0  0  0  0  0  0  0  0  0  0  0
    1.3348   -4.7853    0.0000 F   0  0  0  0  0  0  0  0  0  0  0  0
    1.3348   -2.1282    0.0000 F   0  0  0  0  0  0  0  0  0  0  0  0
    6.4727   -1.8134    0.0000 F   0  0  0  0  0  0  0  0  0  0  0  0
    4.1682   -0.4911    0.0000 F   0  0  0  0  0  0  0  0  0  0  0  0
    5.9816    0.0000    0.0000 F   0  0  0  0  0  0  0  0  0  0  0  0
    3.9919   -3.4630    0.0000 N   0  5  0  0  0  0  0  0  0  0  0  0
    2.6571   -4.7853    0.0000 O   0  0  0  0  0  0  0  0  0  0  0  0
    2.6571   -2.1282    0.0000 O   0  0  0  0  0  0  0  0  0  0  0  0
    5.8053   -2.9719    0.0000 O   0  0  0  0  0  0  0  0  0  0  0  0
    3.5008   -1.6371    0.0000 O   0  0  0  0  0  0  0  0  0  0  0  0
    2.6571   -3.4630    0.0000 S   0  0  0  0  0  0  0  0  0  0  0  0
    4.6593   -2.3045    0.0000 S   0  0  0  0  0  0  0  0  0  0  0  0
  1  3  1  0  0  0  0
  2 11  1  0  0  0  0
  3  4  1  0  0  0  0
  4  8  1  0  0  0  0
  5  6  1  0  0  0  0
  5  7  1  0  0  0  0
  6  9  1  0  0  0  0
  7 10  1  0  0  0  0
  8 11  1  0  0  0  0
  9 11  1  0  0  0  0
 10 11  1  0  0  0  0
 12 14  1  0  0  0  0
 12 15  1  0  0  0  0
 12 16  1  0  0  0  0
 12 25  1  0  0  0  0
 13 17  1  0  0  0  0
 13 18  1  0  0  0  0
 13 19  1  0  0  0  0
 13 26  1  0  0  0  0
 20 25  1  0  0  0  0
 20 26  1  0  0  0  0
 21 25  2  0  0  0  0
 22 25  2  0  0  0  0
 23 26  2  0  0  0  0
 24 26  2  0  0  0  0
M  END
> <ID>
14202

> <Formula>
C12H22F6N2O4S2

> <FW>
436.4345 (156.2878+280.1467)

> <DSSTox_CID>
29295

> <DSSTox_RID>
83413

> <DSSTox_GSID>
49338

> <DSSTox_FileID_Sort>
8088

> <TS_ChemName>
1-Butyl-1-methylpiperidinium bis(trifluoromethylsulfonyl)imide

> <TS_ChemName_Synonyms>


> <TS_CASRN>
623580-02-9

> <CASRN_ChemName_Relationship>
primary

> <TS_Description>
single chemical compound

> <ChemNote>


> <STRUCTURE_Shown>
tested chemical

> <STRUCTURE_Formula>
C12H22F6N2O4S2

> <STRUCTURE_MW>
436.4345

> <STRUCTURE_ChemType>
defined organic

> <STRUCTURE_DefinedOrganicForm>
complex

> <STRUCTURE_IUPAC>
1-butyl-1-methylpiperidinium bis[(trifluoromethyl)sulfonyl]azanide

> <STRUCTURE_SMILES>
FC(F)(F)S(=O)(=O)[N-]S(=O)(=O)C(F)(F)F.C[N+]1(CCCC)CCCCC1

> <STRUCTURE_SMILES_Desalt>
O=S(=O)(NS(=O)(=O)C(F)(F)F)C(F)(F)F

> <Substance_modify_yyyymmdd>
20111204

$$$$
