624-48-6
ChemmineR-0915142007XD

 10  9  0  0  0  0  0  0  0  0  1 V2000
    4.6578   -1.1511    0.0000 C   0  0  0  0  0  0  0  0  0  0  0  0
    1.9962   -1.1511    0.0000 C   0  0  0  0  0  0  0  0  0  0  0  0
    2.6616   -2.3023    0.0000 C   0  0  0  0  0  0  0  0  0  0  0  0
    3.9924   -2.3023    0.0000 C   0  0  0  0  0  0  0  0  0  0  0  0
    3.9924    0.0000    0.0000 O   0  0  0  0  0  0  0  0  0  0  0  0
    2.6616    0.0000    0.0000 O   0  0  0  0  0  0  0  0  0  0  0  0
    5.9885   -1.1511    0.0000 O   0  0  0  0  0  0  0  0  0  0  0  0
    0.6654   -1.1511    0.0000 O   0  0  0  0  0  0  0  0  0  0  0  0
    6.6539   -2.3023    0.0000 C   0  0  0  0  0  0  0  0  0  0  0  0
    0.0000    0.0000    0.0000 C   0  0  0  0  0  0  0  0  0  0  0  0
  1  4  1  0  0  0  0
  1  5  2  0  0  0  0
  1  7  1  0  0  0  0
  2  3  1  0  0  0  0
  2  6  2  0  0  0  0
  2  8  1  0  0  0  0
  3  4  2  0  0  0  0
  7  9  1  0  0  0  0
  8 10  1  0  0  0  0
M  END
> <ID>
7956

> <Formula>
C6H8O4

> <FW>
144.1253

> <DSSTox_CID>
20765

> <DSSTox_RID>
79592

> <DSSTox_GSID>
40765

> <DSSTox_FileID_Sort>
4274

> <TS_ChemName>
Dimethyl maleate

> <TS_ChemName_Synonyms>
Dimethyl maleate (2-Butenedioic acid (2Z)-, dimethyl ester)

> <TS_CASRN>
624-48-6

> <CASRN_ChemName_Relationship>
primary

> <TS_Description>
single chemical compound

> <ChemNote>
stereochem

> <STRUCTURE_Shown>
tested chemical

> <STRUCTURE_Formula>
C6H8O4

> <STRUCTURE_MW>
144.1253

> <STRUCTURE_ChemType>
defined organic

> <STRUCTURE_DefinedOrganicForm>
parent

> <STRUCTURE_IUPAC>
dimethyl (2Z)-but-2-enedioate

> <STRUCTURE_SMILES>
COC(=O)/C=C\C(=O)OC

> <STRUCTURE_SMILES_Desalt>
COC(=O)/C=C\C(=O)OC

> <Substance_modify_yyyymmdd>
20080429

$$$$
