624-92-0
ChemmineR-0915142007XD

  4  3  0  0  0  0  0  0  0  0  1 V2000
    1.1513   -0.6638    0.0000 S   0  0  0  0  0  0  0  0  0  0  0  0
    0.0000    0.0000    0.0000 C   0  0  0  0  0  0  0  0  0  0  0  0
    2.3061    0.0000    0.0000 S   0  0  0  0  0  0  0  0  0  0  0  0
    3.4575   -0.6638    0.0000 C   0  0  0  0  0  0  0  0  0  0  0  0
  1  2  1  0  0  0  0
  1  3  1  0  0  0  0
  3  4  1  0  0  0  0
M  END
> <ID>
4027

> <Formula>
C2H6S2

> <FW>
94.199

> <DSSTox_CID>
5117

> <DSSTox_RID>
77673

> <DSSTox_GSID>
25117

> <DSSTox_FileID_Sort>
2356

> <TS_ChemName>
Methyl disulfide

> <TS_ChemName_Synonyms>


> <TS_CASRN>
624-92-0

> <CASRN_ChemName_Relationship>
primary

> <TS_Description>
single chemical compound

> <ChemNote>


> <STRUCTURE_Shown>
tested chemical

> <STRUCTURE_Formula>
C2H6S2

> <STRUCTURE_MW>
94.199

> <STRUCTURE_ChemType>
defined organic

> <STRUCTURE_DefinedOrganicForm>
parent

> <STRUCTURE_IUPAC>
dimethyl disulfide

> <STRUCTURE_SMILES>
CSSC

> <STRUCTURE_SMILES_Desalt>
CSSC

> <Substance_modify_yyyymmdd>
20080429

$$$$
