624-83-9
ChemmineR-0915142007XD

  4  3  0  0  0  0  0  0  0  0  1 V2000
    1.1498   -0.6560    0.0000 C   0  0  0  0  0  0  0  0  0  0  0  0
    2.3030    0.0000    0.0000 N   0  0  0  0  0  0  0  0  0  0  0  0
    0.0000   -1.3431    0.0000 O   0  0  0  0  0  0  0  0  0  0  0  0
    3.4528   -0.6560    0.0000 C   0  0  0  0  0  0  0  0  0  0  0  0
  1  2  2  0  0  0  0
  1  3  2  0  0  0  0
  2  4  1  0  0  0  0
M  END
> <ID>
3364

> <Formula>
C2H3NO

> <FW>
57.0513

> <DSSTox_CID>
3786

> <DSSTox_RID>
77191

> <DSSTox_GSID>
23786

> <DSSTox_FileID_Sort>
1874

> <TS_ChemName>
Methyl isocyanate

> <TS_ChemName_Synonyms>


> <TS_CASRN>
624-83-9

> <CASRN_ChemName_Relationship>
primary

> <TS_Description>
single chemical compound

> <ChemNote>


> <STRUCTURE_Shown>
tested chemical

> <STRUCTURE_Formula>
C2H3NO

> <STRUCTURE_MW>
57.0513

> <STRUCTURE_ChemType>
defined organic

> <STRUCTURE_DefinedOrganicForm>
parent

> <STRUCTURE_IUPAC>
isocyanatomethane

> <STRUCTURE_SMILES>
C\N=C=O

> <STRUCTURE_SMILES_Desalt>
C\N=C=O

> <Substance_modify_yyyymmdd>
20080429

$$$$
