62476-59-9
ChemmineR-0915142007XD

 25 25  0  0  0  0  0  0  0  0  2 V2000
    8.0767   -1.9883    0.0000 C    0  0  0  0  0  0  0  0  0  0  0  0
   10.3861   -1.9883    0.0000 N    0  3  0  0  0  0  0  0  0  0  0  0
    9.2252   -2.6552    0.0000 C    0  0  0  0  0  0  0  0  0  0  0  0
    1.1609   -1.9513    0.0000 C    0  0  0  0  0  0  0  0  0  0  0  0
    8.0767   -0.6545    0.0000 C    0  0  0  0  0  0  0  0  0  0  0  0
    2.3341   -2.6181    0.0000 C    0  0  0  0  0  0  0  0  0  0  0  0
    4.6311   -3.9519    0.0000 C    0  0  0  0  0  0  0  0  0  0  0  0
    4.6311   -2.6181    0.0000 C    0  0  0  0  0  0  0  0  0  0  0  0
    6.9282   -2.6552    0.0000 C    0  0  0  0  0  0  0  0  0  0  0  0
    3.4950   -1.9513    0.0000 C    0  0  0  0  0  0  0  0  0  0  0  0
    9.2252   -3.9766    0.0000 C    0  0  0  0  0  0  0  0  0  0  0  0
   10.3861   -0.6545    0.0000 O    0  5  0  0  0  0  0  0  0  0  0  0
    5.7673   -4.6311    0.0000 O    0  0  0  0  0  0  0  0  0  0  0  0
   11.5346   -2.6552    0.0000 O    0  0  0  0  0  0  0  0  0  0  0  0
    6.9282   -3.9766    0.0000 C    0  0  0  0  0  0  0  0  0  0  0  0
    6.9282    0.0000    0.0000 O    0  0  0  0  0  0  0  0  0  0  0  0
    2.3341   -3.9519    0.0000 C    0  0  0  0  0  0  0  0  0  0  0  0
    3.4950   -4.6188    0.0000 C    0  0  0  0  0  0  0  0  0  0  0  0
    0.0000   -1.2967    0.0000 F    0  0  0  0  0  0  0  0  0  0  0  0
    1.8278   -0.7904    0.0000 F    0  0  0  0  0  0  0  0  0  0  0  0
    0.5063   -3.1121    0.0000 F    0  0  0  0  0  0  0  0  0  0  0  0
    8.0767   -4.6311    0.0000 C    0  0  0  0  0  0  0  0  0  0  0  0
    5.7920   -1.9513    0.0000 Cl   0  0  0  0  0  0  0  0  0  0  0  0
    9.2252    0.0000    0.0000 O    0  5  0  0  0  0  0  0  0  0  0  0
   12.3497   -0.0123    0.0000 Na   0  3  0  0  0  0  0  0  0  0  0  0
  1  3  2  0  0  0  0
  1  5  1  0  0  0  0
  1  9  1  0  0  0  0
  2  3  1  0  0  0  0
  2 12  1  0  0  0  0
  2 14  2  0  0  0  0
  3 11  1  0  0  0  0
  4  6  1  0  0  0  0
  4 19  1  0  0  0  0
  4 20  1  0  0  0  0
  4 21  1  0  0  0  0
  5 16  2  0  0  0  0
  5 24  1  0  0  0  0
  6 17  2  0  0  0  0
  6 10  1  0  0  0  0
  7 13  1  0  0  0  0
  7  8  1  0  0  0  0
  7 18  2  0  0  0  0
  8 10  2  0  0  0  0
  8 23  1  0  0  0  0
  9 15  2  0  0  0  0
 11 22  2  0  0  0  0
 13 15  1  0  0  0  0
 15 22  1  0  0  0  0
 17 18  1  0  0  0  0
M  END
> <ID>
3390

> <Formula>
C14H6ClF3NNaO5

> <FW>
383.6391 (360.6499+22.9892)

> <DSSTox_CID>
3853

> <DSSTox_RID>
77207

> <DSSTox_GSID>
23853

> <DSSTox_FileID_Sort>
1890

> <TS_ChemName>
Acifluorfen-sodium

> <TS_ChemName_Synonyms>
Acifluorfen-sodium (Benzoic acid, 5-(2-chloro-4-(trifluoromethyl)phenoxy)-2-nitro-, sodium salt)

> <TS_CASRN>
62476-59-9

> <CASRN_ChemName_Relationship>
primary

> <TS_Description>
single chemical compound

> <ChemNote>
parent [50594-66-6]

> <STRUCTURE_Shown>
tested chemical

> <STRUCTURE_Formula>
C14H6ClF3NNaO5

> <STRUCTURE_MW>
383.6391

> <STRUCTURE_ChemType>
defined organic

> <STRUCTURE_DefinedOrganicForm>
salt

> <STRUCTURE_IUPAC>
sodium 5-[2-chloro-4-(trifluoromethyl)phenoxy]-2-nitrobenzoate

> <STRUCTURE_SMILES>
[Na+].Clc2cc(ccc2Oc1cc(C([O-])=O)c(cc1)[N+]([O-])=O)C(F)(F)F

> <STRUCTURE_SMILES_Desalt>
Clc2cc(ccc2Oc1cc(C(=O)O)c(cc1)[N+]([O-])=O)C(F)(F)F

> <Substance_modify_yyyymmdd>
20080429

$$$$
