625-48-9
ChemmineR-0915142007XD

  6  5  0  0  0  0  0  0  0  0  2 V2000
    0.0000    0.0000    0.0000 O   0  0  0  0  0  0  0  0  0  0  0  0
    0.0000   -1.3307    0.0000 C   0  0  0  0  0  0  0  0  0  0  0  0
    1.1509   -1.9943    0.0000 C   0  0  0  0  0  0  0  0  0  0  0  0
    2.3053   -1.3307    0.0000 N   0  3  0  0  0  0  0  0  0  0  0  0
    3.4563   -1.9943    0.0000 O   0  0  0  0  0  0  0  0  0  0  0  0
    2.3053    0.0000    0.0000 O   0  5  0  0  0  0  0  0  0  0  0  0
  1  2  1  0  0  0  0
  2  3  1  0  0  0  0
  3  4  1  0  0  0  0
  4  5  2  0  0  0  0
  4  6  1  0  0  0  0
M  END
> <ID>
4385

> <Formula>
C2H5NO3

> <FW>
91.066

> <DSSTox_CID>
5751

> <DSSTox_RID>
77909

> <DSSTox_GSID>
25751

> <DSSTox_FileID_Sort>
2592

> <TS_ChemName>
2-Nitroethanol

> <TS_ChemName_Synonyms>


> <TS_CASRN>
625-48-9

> <CASRN_ChemName_Relationship>
primary

> <TS_Description>
single chemical compound

> <ChemNote>


> <STRUCTURE_Shown>
tested chemical

> <STRUCTURE_Formula>
C2H5NO3

> <STRUCTURE_MW>
91.066

> <STRUCTURE_ChemType>
defined organic

> <STRUCTURE_DefinedOrganicForm>
parent

> <STRUCTURE_IUPAC>
2-nitroethanol

> <STRUCTURE_SMILES>
[O-][N+](=O)CCO

> <STRUCTURE_SMILES_Desalt>
[O-][N+](=O)CCO

> <Substance_modify_yyyymmdd>
20080429

$$$$
