625-45-6
ChemmineR-0915142007XD

  6  5  0  0  0  0  0  0  0  0  1 V2000
    3.4658   -1.3355    0.0000 C   0  0  0  0  0  0  0  0  0  0  0  0
    3.4658    0.0000    0.0000 O   0  0  0  0  0  0  0  0  0  0  0  0
    4.6211   -1.9917    0.0000 O   0  0  0  0  0  0  0  0  0  0  0  0
    2.3105   -1.9917    0.0000 C   0  0  0  0  0  0  0  0  0  0  0  0
    1.1553   -1.3355    0.0000 O   0  0  0  0  0  0  0  0  0  0  0  0
    0.0000   -1.9917    0.0000 C   0  0  0  0  0  0  0  0  0  0  0  0
  1  2  2  0  0  0  0
  1  3  1  0  0  0  0
  1  4  1  0  0  0  0
  4  5  1  0  0  0  0
  5  6  1  0  0  0  0
M  END
> <ID>
6344

> <Formula>
C3H6O3

> <FW>
90.0779

> <DSSTox_CID>
11591

> <DSSTox_RID>
78886

> <DSSTox_GSID>
31591

> <DSSTox_FileID_Sort>
3568

> <TS_ChemName>
Methoxyacetic acid

> <TS_ChemName_Synonyms>


> <TS_CASRN>
625-45-6

> <CASRN_ChemName_Relationship>
primary

> <TS_Description>
single chemical compound

> <ChemNote>


> <STRUCTURE_Shown>
tested chemical

> <STRUCTURE_Formula>
C3H6O3

> <STRUCTURE_MW>
90.0779

> <STRUCTURE_ChemType>
defined organic

> <STRUCTURE_DefinedOrganicForm>
parent

> <STRUCTURE_IUPAC>
methoxyacetic acid

> <STRUCTURE_SMILES>
O=C(O)COC

> <STRUCTURE_SMILES_Desalt>
O=C(O)COC

> <Substance_modify_yyyymmdd>
20080429

$$$$
