625-86-5
ChemmineR-0915142007XD

  7  7  0  0  0  0  0  0  0  0  1 V2000
    2.3417   -2.1548    0.0000 O   0  0  0  0  0  0  0  0  0  0  0  0
    1.0774   -1.7407    0.0000 C   0  0  0  0  0  0  0  0  0  0  0  0
    0.0000   -2.5243    0.0000 C   0  0  0  0  0  0  0  0  0  0  0  0
    1.0774   -0.4140    0.0000 C   0  0  0  0  0  0  0  0  0  0  0  0
    2.3417    0.0000    0.0000 C   0  0  0  0  0  0  0  0  0  0  0  0
    3.1208   -1.0774    0.0000 C   0  0  0  0  0  0  0  0  0  0  0  0
    4.4520   -1.0774    0.0000 C   0  0  0  0  0  0  0  0  0  0  0  0
  1  2  1  0  0  0  0
  1  6  1  0  0  0  0
  2  3  1  0  0  0  0
  2  4  2  0  0  0  0
  4  5  1  0  0  0  0
  5  6  2  0  0  0  0
  6  7  1  0  0  0  0
M  END
> <ID>
1936

> <Formula>
C6H8O

> <FW>
96.1271

> <DSSTox_CID>
2093

> <DSSTox_RID>
76486

> <DSSTox_GSID>
22093

> <DSSTox_FileID_Sort>
1170

> <TS_ChemName>
2,5-Dimethylfuran

> <TS_ChemName_Synonyms>


> <TS_CASRN>
625-86-5

> <CASRN_ChemName_Relationship>
primary

> <TS_Description>
single chemical compound

> <ChemNote>


> <STRUCTURE_Shown>
tested chemical

> <STRUCTURE_Formula>
C6H8O

> <STRUCTURE_MW>
96.1271

> <STRUCTURE_ChemType>
defined organic

> <STRUCTURE_DefinedOrganicForm>
parent

> <STRUCTURE_IUPAC>
2,5-dimethylfuran

> <STRUCTURE_SMILES>
Cc1ccc(C)o1

> <STRUCTURE_SMILES_Desalt>
Cc1ccc(C)o1

> <Substance_modify_yyyymmdd>
20080429

$$$$
