625-55-8
ChemmineR-0915142007XD

  6  5  0  0  0  0  0  0  0  0  1 V2000
    1.3130   -2.3066    0.0000 C   0  0  0  0  0  0  0  0  0  0  0  0
    0.0000   -2.3066    0.0000 O   0  0  0  0  0  0  0  0  0  0  0  0
    1.9874   -1.1533    0.0000 O   0  0  0  0  0  0  0  0  0  0  0  0
    3.3323   -1.1533    0.0000 C   0  0  0  0  0  0  0  0  0  0  0  0
    3.9907    0.0000    0.0000 C   0  0  0  0  0  0  0  0  0  0  0  0
    3.9907   -2.3066    0.0000 C   0  0  0  0  0  0  0  0  0  0  0  0
  1  2  2  0  0  0  0
  1  3  1  0  0  0  0
  3  4  1  0  0  0  0
  4  5  1  0  0  0  0
  4  6  1  0  0  0  0
M  END
> <ID>
5026

> <Formula>
C4H8O2

> <FW>
88.1051

> <DSSTox_CID>
7258

> <DSSTox_RID>
78372

> <DSSTox_GSID>
27258

> <DSSTox_FileID_Sort>
3055

> <TS_ChemName>
Isopropyl formate

> <TS_ChemName_Synonyms>
Formic acid, 1-methylethyl ester

> <TS_CASRN>
625-55-8

> <CASRN_ChemName_Relationship>
primary

> <TS_Description>
single chemical compound

> <ChemNote>


> <STRUCTURE_Shown>
tested chemical

> <STRUCTURE_Formula>
C4H8O2

> <STRUCTURE_MW>
88.1051

> <STRUCTURE_ChemType>
defined organic

> <STRUCTURE_DefinedOrganicForm>
parent

> <STRUCTURE_IUPAC>
propan-2-yl formate

> <STRUCTURE_SMILES>
CC(C)OC=O

> <STRUCTURE_SMILES_Desalt>
CC(C)OC=O

> <Substance_modify_yyyymmdd>
20080429

$$$$
