625-69-4
ChemmineR-0915142007XD

  7  6  0  0  0  0  0  0  0  0  1 V2000
    0.0000    0.0000    0.0000 C   0  0  0  0  0  0  0  0  0  0  0  0
    1.1545   -0.6604    0.0000 C   0  0  0  0  0  0  0  0  0  0  0  0
    2.3090    0.0000    0.0000 C   0  0  0  0  0  0  0  0  0  0  0  0
    3.4635   -0.6604    0.0000 C   0  0  0  0  0  0  0  0  0  0  0  0
    4.6180    0.0000    0.0000 C   0  0  0  0  0  0  0  0  0  0  0  0
    1.1545   -1.9903    0.0000 O   0  0  0  0  0  0  0  0  0  0  0  0
    3.4635   -1.9903    0.0000 O   0  0  0  0  0  0  0  0  0  0  0  0
  1  2  1  0  0  0  0
  2  3  1  0  0  0  0
  2  6  1  0  0  0  0
  3  4  1  0  0  0  0
  4  5  1  0  0  0  0
  4  7  1  0  0  0  0
M  END
> <ID>
6589

> <Formula>
C5H12O2

> <FW>
104.1476

> <DSSTox_CID>
12878

> <DSSTox_RID>
79042

> <DSSTox_GSID>
32878

> <DSSTox_FileID_Sort>
3724

> <TS_ChemName>
2,4-Pentanediol

> <TS_ChemName_Synonyms>


> <TS_CASRN>
625-69-4

> <CASRN_ChemName_Relationship>
primary

> <TS_Description>
single chemical compound

> <ChemNote>


> <STRUCTURE_Shown>
tested chemical

> <STRUCTURE_Formula>
C5H12O2

> <STRUCTURE_MW>
104.1476

> <STRUCTURE_ChemType>
defined organic

> <STRUCTURE_DefinedOrganicForm>
parent

> <STRUCTURE_IUPAC>
pentane-2,4-diol

> <STRUCTURE_SMILES>
CC(O)CC(C)O

> <STRUCTURE_SMILES_Desalt>
CC(O)CC(C)O

> <Substance_modify_yyyymmdd>
20080429

$$$$
