625114-41-2
ChemmineR-0915142007XD

 28 30  0  0  1  0  0  0  0  0  1 V2000
    4.5921   -4.4508    0.0000 C    0  0  0  0  0  0  0  0  0  0  0  0
    5.7460   -5.1219    0.0000 C    0  0  0  0  0  0  0  0  0  0  0  0
    6.8999   -4.4508    0.0000 C    0  0  0  0  0  0  0  0  0  0  0  0
    4.5921   -3.1203    0.0000 O    0  0  0  0  0  0  0  0  0  0  0  0
    3.4617   -5.1219    0.0000 N    0  0  0  0  0  0  0  0  0  0  0  0
    6.8999   -8.4424    0.0000 C    0  0  0  0  0  0  0  0  0  0  0  0
    5.7460   -9.1135    0.0000 C    0  0  0  0  0  0  0  0  0  0  0  0
    4.5921   -8.4424    0.0000 C    0  0  0  0  0  0  0  0  0  0  0  0
    4.5921   -7.1119    0.0000 C    0  0  0  0  0  0  0  0  0  0  0  0
    5.7460   -6.4525    0.0000 C    0  0  0  0  0  0  0  0  0  0  0  0
    6.8999   -7.1119    0.0000 C    0  0  0  0  0  0  0  0  0  0  0  0
    8.0538   -9.1135    0.0000 Cl   0  0  0  0  0  0  0  0  0  0  0  0
    5.7460  -10.4441    0.0000 S    0  0  0  0  0  0  0  0  0  0  0  0
    4.4272  -10.4441    0.0000 O    0  0  0  0  0  0  0  0  0  0  0  0
    7.0765  -10.4441    0.0000 O    0  0  0  0  0  0  0  0  0  0  0  0
    5.7460  -11.7746    0.0000 C    0  0  0  0  0  0  0  0  0  0  0  0
    6.8999   -3.1203    0.0000 C    0  0  0  0  0  0  0  0  0  0  0  0
    5.8284   -2.3431    0.0000 C    0  0  0  0  0  0  0  0  0  0  0  0
    6.2523   -1.0715    0.0000 C    0  0  0  0  0  0  0  0  0  0  0  0
    7.5828   -1.0715    0.0000 C    0  0  0  0  0  0  0  0  0  0  0  0
    7.9832   -2.3431    0.0000 C    0  0  0  0  0  0  0  0  0  0  0  0
    2.3078   -3.1203    0.0000 N    0  0  0  0  0  0  0  0  0  0  0  0
    0.0000   -4.4508    0.0000 N    0  0  0  0  0  0  0  0  0  0  0  0
    2.3078   -4.4508    0.0000 C    0  0  0  0  0  0  0  0  0  0  0  0
    0.0000   -3.1203    0.0000 C    0  0  0  0  0  0  0  0  0  0  0  0
    1.1539   -5.1219    0.0000 C    0  0  0  0  0  0  0  0  0  0  0  0
    1.1539   -2.4727    0.0000 C    0  0  0  0  0  0  0  0  0  0  0  0
    8.3482    0.0000    0.0000 O    0  0  0  0  0  0  0  0  0  0  0  0
  1  2  1  0  0  0  0
  1  5  1  0  0  0  0
  1  4  2  0  0  0  0
  2  3  1  0  0  0  0
  2 10  1  6  0  0  0
 17  3  1  1  0  0  0
  5 24  1  0  0  0  0
  6 11  2  0  0  0  0
  6  7  1  0  0  0  0
  6 12  1  0  0  0  0
  7  8  2  0  0  0  0
  7 13  1  0  0  0  0
  8  9  1  0  0  0  0
  9 10  2  0  0  0  0
 10 11  1  0  0  0  0
 13 14  2  0  0  0  0
 13 15  2  0  0  0  0
 13 16  1  0  0  0  0
 17 18  1  0  0  0  0
 17 21  1  0  0  0  0
 18 19  1  0  0  0  0
 19 20  1  0  0  0  0
 20 21  1  0  0  0  0
 20 28  2  0  0  0  0
 22 24  2  0  0  0  0
 22 27  1  0  0  0  0
 23 25  1  0  0  0  0
 23 26  2  0  0  0  0
 24 26  1  0  0  0  0
 25 27  2  0  0  0  0
M  END
> <ID>
13568

> <Formula>
C19H20ClN3O4S

> <FW>
421.8978

> <DSSTox_CID>
28494

> <DSSTox_RID>
82769

> <DSSTox_GSID>
48520

> <DSSTox_FileID_Sort>
7446

> <TS_ChemName>
Piragliatin

> <TS_ChemName_Synonyms>


> <TS_CASRN>
625114-41-2

> <CASRN_ChemName_Relationship>
primary

> <TS_Description>
single chemical compound

> <ChemNote>
stereochem

> <STRUCTURE_Shown>
tested chemical

> <STRUCTURE_Formula>
C19H20ClN3O4S

> <STRUCTURE_MW>
421.8978

> <STRUCTURE_ChemType>
defined organic

> <STRUCTURE_DefinedOrganicForm>
parent

> <STRUCTURE_IUPAC>
(2R)-2-[3-chloro-4-(methylsulfonyl)phenyl]-3-[(1R)-3-oxocyclopentyl]-N-(pyrazin-2-yl)propanamide

> <STRUCTURE_SMILES>
O=C(Nc1cnccn1)[C@H](C[C@@H]2CC(=O)CC2)c3ccc(c(Cl)c3)S(C)(=O)=O

> <STRUCTURE_SMILES_Desalt>
O=C(Nc1cnccn1)[C@H](C[C@@H]2CC(=O)CC2)c3ccc(c(Cl)c3)S(C)(=O)=O

> <Substance_modify_yyyymmdd>
20130910

$$$$
