6258-06-6
ChemmineR-0915142007XD

 23 24  0  0  0  0  0  0  0  0  2 V2000
    3.4586   -1.3221    0.0000 C    0  0  0  0  0  0  0  0  0  0  0  0
    3.4586   -3.9780    0.0000 C    0  0  0  0  0  0  0  0  0  0  0  0
    2.3018   -3.3287    0.0000 C    0  0  0  0  0  0  0  0  0  0  0  0
    4.6154   -1.9949    0.0000 C    0  0  0  0  0  0  0  0  0  0  0  0
    4.6154   -3.3287    0.0000 C    0  0  0  0  0  0  0  0  0  0  0  0
    2.3018   -1.9949    0.0000 C    0  0  0  0  0  0  0  0  0  0  0  0
    1.1568   -3.9780    0.0000 C    0  0  0  0  0  0  0  0  0  0  0  0
    1.1568   -1.3221    0.0000 C    0  0  0  0  0  0  0  0  0  0  0  0
    5.7604   -3.9780    0.0000 C    0  0  0  0  0  0  0  0  0  0  0  0
    5.7604   -1.3221    0.0000 C    0  0  0  0  0  0  0  0  0  0  0  0
    0.0000   -1.9949    0.0000 C    0  0  0  0  0  0  0  0  0  0  0  0
    6.9172   -3.3287    0.0000 C    0  0  0  0  0  0  0  0  0  0  0  0
    6.9172   -1.9831    0.0000 C    0  0  0  0  0  0  0  0  0  0  0  0
    0.0000   -3.3287    0.0000 C    0  0  0  0  0  0  0  0  0  0  0  0
    8.0740   -3.9780    0.0000 S    0  0  0  0  0  0  0  0  0  0  0  0
    7.4011   -5.1348    0.0000 O    0  0  0  0  0  0  0  0  0  0  0  0
    8.7232   -2.8330    0.0000 O    0  5  0  0  0  0  0  0  0  0  0  0
    9.2308   -4.6508    0.0000 O    0  0  0  0  0  0  0  0  0  0  0  0
    5.7604   -5.3118    0.0000 N    0  0  0  0  0  0  0  0  0  0  0  0
    5.7604    0.0000    0.0000 Br   0  0  0  0  0  0  0  0  0  0  0  0
    3.4586   -5.3118    0.0000 O    0  0  0  0  0  0  0  0  0  0  0  0
    3.4586    0.0000    0.0000 O    0  0  0  0  0  0  0  0  0  0  0  0
   11.8040   -2.6559    0.0000 Na   0  3  0  0  0  0  0  0  0  0  0  0
  1  4  1  0  0  0  0
  1  6  1  0  0  0  0
  1 22  2  0  0  0  0
  2  3  1  0  0  0  0
  2  5  1  0  0  0  0
  2 21  2  0  0  0  0
  3  6  2  0  0  0  0
  3  7  1  0  0  0  0
  4  5  2  0  0  0  0
  4 10  1  0  0  0  0
  5  9  1  0  0  0  0
  6  8  1  0  0  0  0
  7 14  2  0  0  0  0
  8 11  2  0  0  0  0
  9 12  2  0  0  0  0
  9 19  1  0  0  0  0
 10 13  2  0  0  0  0
 10 20  1  0  0  0  0
 11 14  1  0  0  0  0
 12 13  1  0  0  0  0
 12 15  1  0  0  0  0
 15 16  2  0  0  0  0
 15 17  1  0  0  0  0
 15 18  2  0  0  0  0
M  END
> <ID>
5915

> <Formula>
C14H7BrNNaO5S

> <FW>
404.1678 (381.1786+22.9892)

> <DSSTox_CID>
9277

> <DSSTox_RID>
78743

> <DSSTox_GSID>
29277

> <DSSTox_FileID_Sort>
3425

> <TS_ChemName>
2-Anthracenesulfonic acid, 1-amino-4-bromo-9,10-dihydro-9,10-dioxo-, monosodium salt

> <TS_ChemName_Synonyms>


> <TS_CASRN>
6258-06-6

> <CASRN_ChemName_Relationship>
primary

> <TS_Description>
single chemical compound

> <ChemNote>
parent [116-81-4]

> <STRUCTURE_Shown>
tested chemical

> <STRUCTURE_Formula>
C14H7BrNNaO5S

> <STRUCTURE_MW>
404.1678

> <STRUCTURE_ChemType>
defined organic

> <STRUCTURE_DefinedOrganicForm>
salt

> <STRUCTURE_IUPAC>
sodium 1-amino-4-bromo-9,10-dioxo-9,10-dihydroanthracene-2-sulfonate

> <STRUCTURE_SMILES>
[Na+].[O-]S(=O)(=O)c3cc(Br)c2c(C(=O)c1ccccc1C2=O)c3N

> <STRUCTURE_SMILES_Desalt>
O=S(=O)(O)c3cc(Br)c2c(C(=O)c1ccccc1C2=O)c3N

> <Substance_modify_yyyymmdd>
20080429

$$$$
