6259-76-3
ChemmineR-0915142007XD

 16 16  0  0  0  0  0  0  0  0  1 V2000
    2.3138   -2.0025    0.0000 C   0  0  0  0  0  0  0  0  0  0  0  0
    3.4655   -1.3281    0.0000 C   0  0  0  0  0  0  0  0  0  0  0  0
    4.6172   -2.0025    0.0000 O   0  0  0  0  0  0  0  0  0  0  0  0
    2.3138   -3.3410    0.0000 C   0  0  0  0  0  0  0  0  0  0  0  0
    3.4655    0.0000    0.0000 O   0  0  0  0  0  0  0  0  0  0  0  0
    3.4655   -3.9946    0.0000 O   0  0  0  0  0  0  0  0  0  0  0  0
    1.1517   -1.3281    0.0000 C   0  0  0  0  0  0  0  0  0  0  0  0
    1.1517   -3.9946    0.0000 C   0  0  0  0  0  0  0  0  0  0  0  0
    0.0000   -2.0025    0.0000 C   0  0  0  0  0  0  0  0  0  0  0  0
    0.0000   -3.3410    0.0000 C   0  0  0  0  0  0  0  0  0  0  0  0
    4.6172   -3.3410    0.0000 C   0  0  0  0  0  0  0  0  0  0  0  0
    5.7689   -3.9946    0.0000 C   0  0  0  0  0  0  0  0  0  0  0  0
    6.9309   -3.3410    0.0000 C   0  0  0  0  0  0  0  0  0  0  0  0
    8.0826   -3.9946    0.0000 C   0  0  0  0  0  0  0  0  0  0  0  0
    9.2343   -3.3410    0.0000 C   0  0  0  0  0  0  0  0  0  0  0  0
   10.3757   -3.9946    0.0000 C   0  0  0  0  0  0  0  0  0  0  0  0
  1  2  1  0  0  0  0
  1  4  2  0  0  0  0
  1  7  1  0  0  0  0
  2  3  2  0  0  0  0
  2  5  1  0  0  0  0
  4  6  1  0  0  0  0
  4  8  1  0  0  0  0
  6 11  1  0  0  0  0
  7  9  2  0  0  0  0
  8 10  2  0  0  0  0
  9 10  1  0  0  0  0
 11 12  1  0  0  0  0
 12 13  1  0  0  0  0
 13 14  1  0  0  0  0
 14 15  1  0  0  0  0
 15 16  1  0  0  0  0
M  END
> <ID>
7545

> <Formula>
C13H18O3

> <FW>
222.2802

> <DSSTox_CID>
18924

> <DSSTox_RID>
79419

> <DSSTox_GSID>
38924

> <DSSTox_FileID_Sort>
4101

> <TS_ChemName>
Hexyl salicylate

> <TS_ChemName_Synonyms>
Hexyl salicylate (n-Hexylsalicylic acid)

> <TS_CASRN>
6259-76-3

> <CASRN_ChemName_Relationship>
primary

> <TS_Description>
single chemical compound

> <ChemNote>


> <STRUCTURE_Shown>
tested chemical

> <STRUCTURE_Formula>
C13H18O3

> <STRUCTURE_MW>
222.2802

> <STRUCTURE_ChemType>
defined organic

> <STRUCTURE_DefinedOrganicForm>
parent

> <STRUCTURE_IUPAC>
2-(hexyloxy)benzoic acid

> <STRUCTURE_SMILES>
O=C(O)c1ccccc1OCCCCCC

> <STRUCTURE_SMILES_Desalt>
O=C(O)c1ccccc1OCCCCCC

> <Substance_modify_yyyymmdd>
20080429

$$$$
