626-17-5
ChemmineR-0915142007XD

 10 10  0  0  0  0  0  0  0  0  1 V2000
    4.5983   -1.3325    0.0000 C   0  0  0  0  0  0  0  0  0  0  0  0
    4.5983   -2.6651    0.0000 C   0  0  0  0  0  0  0  0  0  0  0  0
    3.4453   -3.3348    0.0000 C   0  0  0  0  0  0  0  0  0  0  0  0
    2.2923   -2.6651    0.0000 C   0  0  0  0  0  0  0  0  0  0  0  0
    2.2923   -1.3325    0.0000 C   0  0  0  0  0  0  0  0  0  0  0  0
    3.4453   -0.6766    0.0000 C   0  0  0  0  0  0  0  0  0  0  0  0
    5.7513   -0.6766    0.0000 C   0  0  0  0  0  0  0  0  0  0  0  0
    6.9044    0.0000    0.0000 N   0  0  0  0  0  0  0  0  0  0  0  0
    1.1392   -0.6766    0.0000 C   0  0  0  0  0  0  0  0  0  0  0  0
    0.0000    0.0000    0.0000 N   0  0  0  0  0  0  0  0  0  0  0  0
  1  2  2  0  0  0  0
  1  6  1  0  0  0  0
  1  7  1  0  0  0  0
  2  3  1  0  0  0  0
  3  4  2  0  0  0  0
  4  5  1  0  0  0  0
  5  6  2  0  0  0  0
  5  9  1  0  0  0  0
  7  8  3  0  0  0  0
  9 10  3  0  0  0  0
M  END
> <ID>
5027

> <Formula>
C8H4N2

> <FW>
128.1308

> <DSSTox_CID>
7259

> <DSSTox_RID>
78373

> <DSSTox_GSID>
27259

> <DSSTox_FileID_Sort>
3056

> <TS_ChemName>
1,3-Benzenedicarbonitrile

> <TS_ChemName_Synonyms>
1,3-Dicyanobenzene

> <TS_CASRN>
626-17-5

> <CASRN_ChemName_Relationship>
primary

> <TS_Description>
single chemical compound

> <ChemNote>


> <STRUCTURE_Shown>
tested chemical

> <STRUCTURE_Formula>
C8H4N2

> <STRUCTURE_MW>
128.1308

> <STRUCTURE_ChemType>
defined organic

> <STRUCTURE_DefinedOrganicForm>
parent

> <STRUCTURE_IUPAC>
benzene-1,3-dicarbonitrile

> <STRUCTURE_SMILES>
N#Cc1cccc(C#N)c1

> <STRUCTURE_SMILES_Desalt>
N#Cc1cccc(C#N)c1

> <Substance_modify_yyyymmdd>
20080429

$$$$
