626-56-2
ChemmineR-0915142007XD

  7  7  0  0  0  0  0  0  0  0  1 V2000
    1.1318    0.0000    0.0000 N   0  0  0  0  0  0  0  0  0  0  0  0
    2.3084   -0.6536    0.0000 C   0  0  0  0  0  0  0  0  0  0  0  0
    0.0000   -0.6536    0.0000 C   0  0  0  0  0  0  0  0  0  0  0  0
    2.3084   -1.9919    0.0000 C   0  0  0  0  0  0  0  0  0  0  0  0
    0.0000   -1.9919    0.0000 C   0  0  0  0  0  0  0  0  0  0  0  0
    1.1318   -2.6593    0.0000 C   0  0  0  0  0  0  0  0  0  0  0  0
    3.4402   -2.6593    0.0000 C   0  0  0  0  0  0  0  0  0  0  0  0
  1  2  1  0  0  0  0
  1  3  1  0  0  0  0
  2  4  1  0  0  0  0
  3  5  1  0  0  0  0
  4  6  1  0  0  0  0
  4  7  1  0  0  0  0
  5  6  1  0  0  0  0
M  END
> <ID>
5848

> <Formula>
C6H13N

> <FW>
99.1741

> <DSSTox_CID>
9195

> <DSSTox_RID>
78705

> <DSSTox_GSID>
29195

> <DSSTox_FileID_Sort>
3387

> <TS_ChemName>
3-Methylpiperidine

> <TS_ChemName_Synonyms>


> <TS_CASRN>
626-56-2

> <CASRN_ChemName_Relationship>
primary

> <TS_Description>
single chemical compound

> <ChemNote>


> <STRUCTURE_Shown>
tested chemical

> <STRUCTURE_Formula>
C6H13N

> <STRUCTURE_MW>
99.1741

> <STRUCTURE_ChemType>
defined organic

> <STRUCTURE_DefinedOrganicForm>
parent

> <STRUCTURE_IUPAC>
3-methylpiperidine

> <STRUCTURE_SMILES>
CC1CCCNC1

> <STRUCTURE_SMILES_Desalt>
CC1CCCNC1

> <Substance_modify_yyyymmdd>
20080429

$$$$
