626-43-7
ChemmineR-0915142007XD

  9  9  0  0  0  0  0  0  0  0  1 V2000
    0.0000   -3.9949    0.0000 N    0  0  0  0  0  0  0  0  0  0  0  0
    1.1552   -3.3368    0.0000 C    0  0  0  0  0  0  0  0  0  0  0  0
    1.1552   -2.0067    0.0000 C    0  0  0  0  0  0  0  0  0  0  0  0
    2.3104   -3.9949    0.0000 C    0  0  0  0  0  0  0  0  0  0  0  0
    2.3104   -1.3347    0.0000 C    0  0  0  0  0  0  0  0  0  0  0  0
    3.4656   -3.3368    0.0000 C    0  0  0  0  0  0  0  0  0  0  0  0
    3.4656   -2.0067    0.0000 C    0  0  0  0  0  0  0  0  0  0  0  0
    2.3104    0.0000    0.0000 Cl   0  0  0  0  0  0  0  0  0  0  0  0
    4.6025   -3.9949    0.0000 Cl   0  0  0  0  0  0  0  0  0  0  0  0
  1  2  1  0  0  0  0
  2  3  2  0  0  0  0
  2  4  1  0  0  0  0
  3  5  1  0  0  0  0
  4  6  2  0  0  0  0
  5  7  2  0  0  0  0
  5  8  1  0  0  0  0
  6  7  1  0  0  0  0
  6  9  1  0  0  0  0
M  END
> <ID>
6266

> <Formula>
C6H5Cl2N

> <FW>
162.0166

> <DSSTox_CID>
10307

> <DSSTox_RID>
78842

> <DSSTox_GSID>
30307

> <DSSTox_FileID_Sort>
3524

> <TS_ChemName>
3,5-Dichloroaniline

> <TS_ChemName_Synonyms>


> <TS_CASRN>
626-43-7

> <CASRN_ChemName_Relationship>
primary

> <TS_Description>
single chemical compound

> <ChemNote>


> <STRUCTURE_Shown>
tested chemical

> <STRUCTURE_Formula>
C6H5Cl2N

> <STRUCTURE_MW>
162.0166

> <STRUCTURE_ChemType>
defined organic

> <STRUCTURE_DefinedOrganicForm>
parent

> <STRUCTURE_IUPAC>
3,5-dichloroaniline

> <STRUCTURE_SMILES>
Nc1cc(Cl)cc(Cl)c1

> <STRUCTURE_SMILES_Desalt>
Nc1cc(Cl)cc(Cl)c1

> <Substance_modify_yyyymmdd>
20080429

$$$$
