62625-32-5
ChemmineR-0915142007XD

 32 33  0  0  0  0  0  0  0  0  2 V2000
   10.3913   -1.5425    0.0000 Na   0  3  0  0  0  0  0  0  0  0  0  0
    6.5558   -0.6358    0.0000 C    0  0  0  0  0  0  0  0  0  0  0  0
    6.5558   -1.9073    0.0000 C    0  0  0  0  0  0  0  0  0  0  0  0
    5.4510    0.0000    0.0000 C    0  0  0  0  0  0  0  0  0  0  0  0
    5.4510   -2.5327    0.0000 C    0  0  0  0  0  0  0  0  0  0  0  0
    4.3566   -0.6358    0.0000 C    0  0  0  0  0  0  0  0  0  0  0  0
    4.3566   -1.9073    0.0000 C    0  0  0  0  0  0  0  0  0  0  0  0
    7.6606   -2.5327    0.0000 S    0  0  0  0  0  0  0  0  0  0  0  0
    5.4510   -4.2107    0.0000 C    0  0  0  0  0  0  0  0  0  0  0  0
    7.1186   -5.0862    0.0000 C    0  0  0  0  0  0  0  0  0  0  0  0
    8.2234   -4.4608    0.0000 C    0  0  0  0  0  0  0  0  0  0  0  0
    7.1186   -6.3682    0.0000 C    0  0  0  0  0  0  0  0  0  0  0  0
    9.3178   -5.0966    0.0000 C    0  0  0  0  0  0  0  0  0  0  0  0
    8.2234   -6.9935    0.0000 C    0  0  0  0  0  0  0  0  0  0  0  0
    9.3178   -6.3682    0.0000 C    0  0  0  0  0  0  0  0  0  0  0  0
   10.4225   -6.9935    0.0000 O    0  0  0  0  0  0  0  0  0  0  0  0
   10.4225   -4.4608    0.0000 Br   0  0  0  0  0  0  0  0  0  0  0  0
    8.2234   -8.2651    0.0000 Br   0  0  0  0  0  0  0  0  0  0  0  0
    7.6606   -3.8042    0.0000 O    0  0  0  0  0  0  0  0  0  0  0  0
    8.7549   -1.9073    0.0000 O    0  5  0  0  0  0  0  0  0  0  0  0
    7.6606   -1.2611    0.0000 O    0  0  0  0  0  0  0  0  0  0  0  0
    3.3039   -5.3259    0.0000 C    0  0  0  0  0  0  0  0  0  0  0  0
    3.3039   -6.5975    0.0000 C    0  0  0  0  0  0  0  0  0  0  0  0
    2.1992   -4.6901    0.0000 C    0  0  0  0  0  0  0  0  0  0  0  0
    2.1992   -7.2228    0.0000 C    0  0  0  0  0  0  0  0  0  0  0  0
    1.1048   -5.3259    0.0000 C    0  0  0  0  0  0  0  0  0  0  0  0
    1.1048   -6.5975    0.0000 C    0  0  0  0  0  0  0  0  0  0  0  0
    0.0000   -4.6901    0.0000 Br   0  0  0  0  0  0  0  0  0  0  0  0
    0.0000   -7.2228    0.0000 O    0  0  0  0  0  0  0  0  0  0  0  0
    2.1992   -8.4944    0.0000 Br   0  0  0  0  0  0  0  0  0  0  0  0
    4.2003   -7.1811    0.0000 C    0  0  0  0  0  0  0  0  0  0  0  0
    6.2014   -7.2749    0.0000 C    0  0  0  0  0  0  0  0  0  0  0  0
  2  3  1  0  0  0  0
  2  4  2  0  0  0  0
  3  5  2  0  0  0  0
  3  8  1  0  0  0  0
  4  6  1  0  0  0  0
  5  7  1  0  0  0  0
  5  9  1  0  0  0  0
  6  7  2  0  0  0  0
  8 19  2  0  0  0  0
  8 20  1  0  0  0  0
  8 21  2  0  0  0  0
  9 10  2  0  0  0  0
  9 22  1  0  0  0  0
 10 11  1  0  0  0  0
 10 12  1  0  0  0  0
 11 13  2  0  0  0  0
 12 14  2  0  0  0  0
 12 32  1  0  0  0  0
 13 15  1  0  0  0  0
 13 17  1  0  0  0  0
 14 15  1  0  0  0  0
 14 18  1  0  0  0  0
 15 16  2  0  0  0  0
 22 23  1  0  0  0  0
 22 24  2  0  0  0  0
 23 25  2  0  0  0  0
 23 31  1  0  0  0  0
 24 26  1  0  0  0  0
 25 27  1  0  0  0  0
 25 30  1  0  0  0  0
 26 27  2  0  0  0  0
 26 28  1  0  0  0  0
 27 29  1  0  0  0  0
M  END
> <ID>
10356

> <Formula>
C21H13Br4NaO5S

> <FW>
719.9957 (22.9892+697.0065)

> <DSSTox_CID>
24704

> <DSSTox_RID>
80409

> <DSSTox_GSID>
44704

> <DSSTox_FileID_Sort>
5091

> <TS_ChemName>
Bromocresol green sodium salt

> <TS_ChemName_Synonyms>
Phenol, 4,4'-(3H-1,2-benzoxathiol- 3-ylidene)bis[2,6-dibromo-3-methyl-, S,S-dioxide, monosodium salt

> <TS_CASRN>
62625-32-5

> <CASRN_ChemName_Relationship>
primary

> <TS_Description>
single chemical compound

> <ChemNote>
parent [76-60-8]

> <STRUCTURE_Shown>
tested chemical

> <STRUCTURE_Formula>
C21H13Br4NaO5S

> <STRUCTURE_MW>
719.9957

> <STRUCTURE_ChemType>
defined organic

> <STRUCTURE_DefinedOrganicForm>
salt

> <STRUCTURE_IUPAC>
sodium 2-[(E)-(3,5-dibromo-4-hydroxy-2-methylphenyl)(3,5-dibromo-2-methyl-4-oxocyclohexa-2,5-dien-1-ylidene)methyl]benzenesulfonate

> <STRUCTURE_SMILES>
[Na+].CC=1C(\C=C(Br)C(=O)C=1Br)=C(/c2cc(Br)c(O)c(Br)c2C)c3ccccc3S([O-])(=O)=O

> <STRUCTURE_SMILES_Desalt>
CC=1C(\C=C(Br)C(=O)C=1Br)=C(/c2cc(Br)c(O)c(Br)c2C)c3ccccc3S(=O)(=O)O

> <Substance_modify_yyyymmdd>
20091116

$$$$
