62658-63-3
ChemmineR-0915142007XD

 28 30  0  0  0  0  0  0  0  0  1 V2000
   10.3714   -7.3143    0.0000 C   0  0  0  0  0  0  0  0  0  0  0  0
    9.2218   -6.6448    0.0000 C   0  0  0  0  0  0  0  0  0  0  0  0
    9.2218   -5.3183    0.0000 C   0  0  0  0  0  0  0  0  0  0  0  0
    8.0596   -4.6488    0.0000 O   0  0  0  0  0  0  0  0  0  0  0  0
    6.9100   -5.3183    0.0000 C   0  0  0  0  0  0  0  0  0  0  0  0
    5.7605   -4.6488    0.0000 C   0  0  0  0  0  0  0  0  0  0  0  0
    5.7605   -3.3224    0.0000 C   0  0  0  0  0  0  0  0  0  0  0  0
    4.6109   -2.6529    0.0000 N   0  0  0  0  0  0  0  0  0  0  0  0
    4.6109   -1.3264    0.0000 C   0  0  0  0  0  0  0  0  0  0  0  0
    5.9373   -1.3264    0.0000 C   0  0  0  0  0  0  0  0  0  0  0  0
    3.2719   -1.3264    0.0000 C   0  0  0  0  0  0  0  0  0  0  0  0
    4.6109    0.0000    0.0000 C   0  0  0  0  0  0  0  0  0  0  0  0
    4.6109   -5.3183    0.0000 O   0  0  0  0  0  0  0  0  0  0  0  0
    3.4613   -4.6488    0.0000 C   0  0  0  0  0  0  0  0  0  0  0  0
    3.4613   -3.3224    0.0000 O   0  0  0  0  0  0  0  0  0  0  0  0
    2.2991   -5.3183    0.0000 C   0  0  0  0  0  0  0  0  0  0  0  0
    2.2991   -6.6448    0.0000 C   0  0  0  0  0  0  0  0  0  0  0  0
    1.1496   -7.3143    0.0000 C   0  0  0  0  0  0  0  0  0  0  0  0
    0.0000   -6.6448    0.0000 C   0  0  0  0  0  0  0  0  0  0  0  0
    0.0000   -5.3183    0.0000 C   0  0  0  0  0  0  0  0  0  0  0  0
    1.1496   -4.6488    0.0000 C   0  0  0  0  0  0  0  0  0  0  0  0
   10.3714   -4.6488    0.0000 C   0  0  0  0  0  0  0  0  0  0  0  0
   11.5210   -5.3183    0.0000 C   0  0  0  0  0  0  0  0  0  0  0  0
   11.5210   -6.6448    0.0000 C   0  0  0  0  0  0  0  0  0  0  0  0
   12.5063   -4.4341    0.0000 N   0  0  0  0  0  0  0  0  0  0  0  0
   11.9631   -3.2087    0.0000 C   0  0  0  0  0  0  0  0  0  0  0  0
   12.6326   -2.0591    0.0000 C   0  0  0  0  0  0  0  0  0  0  0  0
   10.6493   -3.3476    0.0000 C   0  0  0  0  0  0  0  0  0  0  0  0
  1  2  2  0  0  0  0
  1 24  1  0  0  0  0
  2  3  1  0  0  0  0
  3  4  1  0  0  0  0
  3 22  2  0  0  0  0
  4  5  1  0  0  0  0
  5  6  1  0  0  0  0
  6  7  1  0  0  0  0
  6 13  1  0  0  0  0
  7  8  1  0  0  0  0
  8  9  1  0  0  0  0
  9 10  1  0  0  0  0
  9 11  1  0  0  0  0
  9 12  1  0  0  0  0
 13 14  1  0  0  0  0
 14 15  2  0  0  0  0
 14 16  1  0  0  0  0
 16 17  2  0  0  0  0
 16 21  1  0  0  0  0
 17 18  1  0  0  0  0
 18 19  2  0  0  0  0
 19 20  1  0  0  0  0
 20 21  2  0  0  0  0
 22 23  1  0  0  0  0
 22 28  1  0  0  0  0
 23 24  2  0  0  0  0
 23 25  1  0  0  0  0
 25 26  1  0  0  0  0
 26 27  1  0  0  0  0
 26 28  2  0  0  0  0
M  END
> <ID>
2430

> <Formula>
C23H28N2O3

> <FW>
380.48

> <DSSTox_CID>
2684

> <DSSTox_RID>
76690

> <DSSTox_GSID>
22684

> <DSSTox_FileID_Sort>
1374

> <TS_ChemName>
Bopindolol

> <TS_ChemName_Synonyms>


> <TS_CASRN>
62658-63-3

> <CASRN_ChemName_Relationship>
primary

> <TS_Description>
single chemical compound

> <ChemNote>


> <STRUCTURE_Shown>
tested chemical

> <STRUCTURE_Formula>
C23H28N2O3

> <STRUCTURE_MW>
380.48

> <STRUCTURE_ChemType>
defined organic

> <STRUCTURE_DefinedOrganicForm>
parent

> <STRUCTURE_IUPAC>
1-(tert-butylamino)-3-[(2-methyl-1H-indol-4-yl)oxy]propan-2-yl benzoate

> <STRUCTURE_SMILES>
CC(C)(C)NCC(OC(=O)c1ccccc1)COc3cccc2nc(C)cc23

> <STRUCTURE_SMILES_Desalt>
CC(C)(C)NCC(OC(=O)c1ccccc1)COc3cccc2nc(C)cc23

> <Substance_modify_yyyymmdd>
20080429

$$$$
