6266-73-5
ChemmineR-0915142007XD

 40 43  0  0  1  0  0  0  0  0  1 V2000
    6.7751   -2.6427    0.0000 C   0  0  0  0  0  0  0  0  0  0  0  0
    4.4163   -3.9551    0.0000 C   0  0  0  0  0  0  0  0  0  0  0  0
    3.2989   -4.6291    0.0000 C   0  0  0  0  0  0  0  0  0  0  0  0
    6.7751   -3.9906    0.0000 C   0  0  0  0  0  0  0  0  0  0  0  0
    5.6046   -4.6291    0.0000 C   0  0  0  0  0  0  0  0  0  0  0  0
    5.6046   -2.0219    0.0000 C   0  0  0  0  0  0  0  0  0  0  0  0
    3.2989   -5.9593    0.0000 C   0  0  0  0  0  0  0  0  0  0  0  0
    4.4163   -2.6427    0.0000 C   0  0  0  0  0  0  0  0  0  0  0  0
    5.6046   -5.9593    0.0000 C   0  0  0  0  0  0  0  0  0  0  0  0
    8.0167   -2.2170    0.0000 C   0  0  0  0  0  0  0  0  0  0  0  0
    4.4163   -6.6155    0.0000 C   0  0  0  0  0  0  0  0  0  0  0  0
    8.0167   -4.3808    0.0000 C   0  0  0  0  0  0  0  0  0  0  0  0
    2.1283   -3.9551    0.0000 C   0  0  0  0  0  0  0  0  0  0  0  0
    8.7793   -3.2989    0.0000 C   0  0  0  0  0  0  0  0  0  0  0  0
   11.8831   -1.5962    0.0000 C   0  0  0  0  0  0  0  0  0  0  0  0
    2.1283   -6.6155    0.0000 C   0  0  0  0  0  0  0  0  0  0  0  0
   12.2733   -0.3015    0.0000 O   0  0  0  0  0  0  0  0  0  0  0  0
    8.4601   -0.9755    0.0000 C   0  0  0  0  0  0  0  0  0  0  0  0
    9.7725   -0.7449    0.0000 C   0  0  0  0  0  0  0  0  0  0  0  0
    5.6046   -0.6030    0.0000 O   0  0  0  0  0  0  0  0  0  0  0  0
    6.6865   -6.7042    0.0000 O   0  0  0  0  0  0  0  0  0  0  0  0
   10.5352   -1.7736    0.0000 C   0  0  0  0  0  0  0  0  0  0  0  0
    6.7751   -1.4011    0.0000 C   0  0  0  0  0  0  0  0  0  0  0  0
    0.9932   -4.6291    0.0000 C   0  0  0  0  0  0  0  0  0  0  0  0
    0.9932   -5.9593    0.0000 C   0  0  0  0  0  0  0  0  0  0  0  0
    3.2989   -3.3698    0.0000 C   0  0  0  0  0  0  0  0  0  0  0  0
   12.6812   -2.6072    0.0000 O   0  0  0  0  0  0  0  0  0  0  0  0
    0.0000   -6.5978    0.0000 O   0  0  0  0  0  0  0  0  0  0  0  0
    7.5555    0.0000    0.0000 C   0  0  0  0  0  0  0  0  0  0  0  0
    6.7751   -5.3563    0.0000 H   0  0  0  0  0  0  0  0  0  0  0  0
    3.2989   -7.5555    0.0000 H   0  0  0  0  0  0  0  0  0  0  0  0
    4.4163   -5.2676    0.0000 H   0  0  0  0  0  0  0  0  0  0  0  0
    5.5691   -3.2280    0.0000 H   0  0  0  0  0  0  0  0  0  0  0  0
    8.0167   -3.5295    0.0000 H   0  0  0  0  0  0  0  0  0  0  0  0
   17.7360   -3.0329    0.0000 C   0  0  0  0  0  0  0  0  0  0  0  0
   17.7360   -4.3631    0.0000 C   0  0  0  0  0  0  0  0  0  0  0  0
   16.5832   -2.3766    0.0000 N   0  0  0  0  0  0  0  0  0  0  0  0
   16.5832   -5.0193    0.0000 N   0  0  0  0  0  0  0  0  0  0  0  0
   15.4303   -3.0329    0.0000 C   0  0  0  0  0  0  0  0  0  0  0  0
   15.4303   -4.3631    0.0000 C   0  0  0  0  0  0  0  0  0  0  0  0
  1  4  1  0  0  0  0
  1  6  1  0  0  0  0
  1 10  1  0  0  0  0
  1 23  1  1  0  0  0
  2  8  1  0  0  0  0
  2  3  1  0  0  0  0
  2 32  1  6  0  0  0
  2  5  1  0  0  0  0
  3  7  1  0  0  0  0
  3 13  1  0  0  0  0
  3 26  1  1  0  0  0
  4  5  1  0  0  0  0
  4 12  1  0  0  0  0
  4 30  1  6  0  0  0
  5  9  1  0  0  0  0
  5 33  1  1  0  0  0
  6  8  1  0  0  0  0
  6 20  1  6  0  0  0
  7 16  1  0  0  0  0
  7 31  1  1  0  0  0
  7 11  1  0  0  0  0
  9 11  1  0  0  0  0
  9 21  1  6  0  0  0
 10 14  1  0  0  0  0
 10 18  1  0  0  0  0
 10 34  1  6  0  0  0
 12 14  1  0  0  0  0
 13 24  1  0  0  0  0
 15 22  1  0  0  0  0
 15 17  2  0  0  0  0
 15 27  1  0  0  0  0
 16 25  1  0  0  0  0
 18 19  1  0  0  0  0
 18 29  1  6  0  0  0
 19 22  1  0  0  0  0
 24 25  1  0  0  0  0
 25 28  1  6  0  0  0
 35 36  1  0  0  0  0
 35 37  1  0  0  0  0
 36 38  1  0  0  0  0
 37 39  1  0  0  0  0
 38 40  1  0  0  0  0
 39 40  1  0  0  0  0
M  END
> <ID>
10736

> <Formula>
C28H50N2O5

> <FW>
494.7070 (408.5714+86.1356)

> <DSSTox_CID>
25094

> <DSSTox_RID>
80667

> <DSSTox_GSID>
45094

> <DSSTox_FileID_Sort>
5349

> <TS_ChemName>
Cholic acid piperazine (1:1)

> <TS_ChemName_Synonyms>
Cholic acid  piperazine (1:1)

> <TS_CASRN>
6266-73-5

> <CASRN_ChemName_Relationship>
primary

> <TS_Description>
single chemical compound

> <ChemNote>
stereochem; parent [81-25-4]

> <STRUCTURE_Shown>
tested chemical

> <STRUCTURE_Formula>
C28H50N2O5

> <STRUCTURE_MW>
494.707

> <STRUCTURE_ChemType>
defined organic

> <STRUCTURE_DefinedOrganicForm>
complex

> <STRUCTURE_IUPAC>
(3alpha,5beta,7alpha,8xi,12alpha)-3,7,12-trihydroxycholan-24-oic acid - piperazine (1:1)

> <STRUCTURE_SMILES>
O=C(O)CC[C@@H](C)[C@H]4CC[C@@H]2[C@]4(C)[C@@H](O)C[C@@H]1[C@@]3(C)CC[C@@H](O)C[C@H]3C[C@@H](O)[C@H]12.C1CNCCN1

> <STRUCTURE_SMILES_Desalt>
O=C(O)CC[C@@H](C)[C@H]2CC[C@H]1[C@@H]3[C@H](O)C[C@@H]4C[C@H](O)CC[C@]4(C)[C@H]3C[C@H](O)[C@@]12C

> <Substance_modify_yyyymmdd>
20100107

$$$$
