627-63-4
ChemmineR-0915142007XD

  8  7  0  0  0  0  0  0  0  0  1 V2000
    5.7539   -1.3292    0.0000 Cl   0  0  0  0  0  0  0  0  0  0  0  0
    0.0000   -1.9966    0.0000 Cl   0  0  0  0  0  0  0  0  0  0  0  0
    4.6031   -1.9966    0.0000 C    0  0  0  0  0  0  0  0  0  0  0  0
    1.1508   -1.3292    0.0000 C    0  0  0  0  0  0  0  0  0  0  0  0
    2.3016   -1.9966    0.0000 C    0  0  0  0  0  0  0  0  0  0  0  0
    3.4524   -1.3292    0.0000 C    0  0  0  0  0  0  0  0  0  0  0  0
    4.6031   -3.3258    0.0000 O    0  0  0  0  0  0  0  0  0  0  0  0
    1.1508    0.0000    0.0000 O    0  0  0  0  0  0  0  0  0  0  0  0
  1  3  1  0  0  0  0
  2  4  1  0  0  0  0
  3  6  1  0  0  0  0
  3  7  2  0  0  0  0
  4  5  1  0  0  0  0
  4  8  2  0  0  0  0
  5  6  2  0  0  0  0
M  END
> <ID>
6632

> <Formula>
C4H2Cl2O2

> <FW>
152.9635

> <DSSTox_CID>
13519

> <DSSTox_RID>
79081

> <DSSTox_GSID>
33519

> <DSSTox_FileID_Sort>
3763

> <TS_ChemName>
Fumaryl chloride

> <TS_ChemName_Synonyms>


> <TS_CASRN>
627-63-4

> <CASRN_ChemName_Relationship>
primary

> <TS_Description>
single chemical compound

> <ChemNote>
stereochem

> <STRUCTURE_Shown>
tested chemical

> <STRUCTURE_Formula>
C4H2Cl2O2

> <STRUCTURE_MW>
152.9635

> <STRUCTURE_ChemType>
defined organic

> <STRUCTURE_DefinedOrganicForm>
parent

> <STRUCTURE_IUPAC>
(2E)-but-2-enedioyl dichloride

> <STRUCTURE_SMILES>
ClC(=O)/C=C/C(Cl)=O

> <STRUCTURE_SMILES_Desalt>
ClC(=O)/C=C/C(Cl)=O

> <Substance_modify_yyyymmdd>
20080429

$$$$
