627-03-2
ChemmineR-0915142007XD

  7  6  0  0  0  0  0  0  0  0  1 V2000
    4.5885   -1.3266    0.0000 C   0  0  0  0  0  0  0  0  0  0  0  0
    5.7429   -1.9985    0.0000 O   0  0  0  0  0  0  0  0  0  0  0  0
    4.5885    0.0000    0.0000 O   0  0  0  0  0  0  0  0  0  0  0  0
    3.4400   -1.9985    0.0000 C   0  0  0  0  0  0  0  0  0  0  0  0
    2.2857   -1.3266    0.0000 O   0  0  0  0  0  0  0  0  0  0  0  0
    1.1543   -1.9985    0.0000 C   0  0  0  0  0  0  0  0  0  0  0  0
    0.0000   -1.3266    0.0000 C   0  0  0  0  0  0  0  0  0  0  0  0
  1  2  1  0  0  0  0
  1  3  2  0  0  0  0
  1  4  1  0  0  0  0
  4  5  1  0  0  0  0
  5  6  1  0  0  0  0
  6  7  1  0  0  0  0
M  END
> <ID>
6322

> <Formula>
C4H8O3

> <FW>
104.1045

> <DSSTox_CID>
11294

> <DSSTox_RID>
78870

> <DSSTox_GSID>
31294

> <DSSTox_FileID_Sort>
3552

> <TS_ChemName>
Ethoxyacetic acid

> <TS_ChemName_Synonyms>


> <TS_CASRN>
627-03-2

> <CASRN_ChemName_Relationship>
primary

> <TS_Description>
single chemical compound

> <ChemNote>


> <STRUCTURE_Shown>
tested chemical

> <STRUCTURE_Formula>
C4H8O3

> <STRUCTURE_MW>
104.1045

> <STRUCTURE_ChemType>
defined organic

> <STRUCTURE_DefinedOrganicForm>
parent

> <STRUCTURE_IUPAC>
ethoxyacetic acid

> <STRUCTURE_SMILES>
O=C(O)COCC

> <STRUCTURE_SMILES_Desalt>
O=C(O)COCC

> <Substance_modify_yyyymmdd>
20080429

$$$$
