627-93-0
ChemmineR-0915142007XD

 12 11  0  0  0  0  0  0  0  0  1 V2000
    5.7573   -2.6609    0.0000 C   0  0  0  0  0  0  0  0  0  0  0  0
    4.6042   -1.9997    0.0000 C   0  0  0  0  0  0  0  0  0  0  0  0
    3.4592   -2.6609    0.0000 C   0  0  0  0  0  0  0  0  0  0  0  0
    2.3061   -1.9997    0.0000 C   0  0  0  0  0  0  0  0  0  0  0  0
    2.3061   -0.6693    0.0000 C   0  0  0  0  0  0  0  0  0  0  0  0
    3.4592    0.0000    0.0000 O   0  0  0  0  0  0  0  0  0  0  0  0
    1.1531    0.0000    0.0000 O   0  0  0  0  0  0  0  0  0  0  0  0
    0.0000   -0.6693    0.0000 C   0  0  0  0  0  0  0  0  0  0  0  0
    6.9103   -1.9997    0.0000 C   0  0  0  0  0  0  0  0  0  0  0  0
    6.9103   -0.6693    0.0000 O   0  0  0  0  0  0  0  0  0  0  0  0
    8.0634   -2.6609    0.0000 O   0  0  0  0  0  0  0  0  0  0  0  0
    8.0634   -3.9914    0.0000 C   0  0  0  0  0  0  0  0  0  0  0  0
  1  2  1  0  0  0  0
  1  9  1  0  0  0  0
  2  3  1  0  0  0  0
  3  4  1  0  0  0  0
  4  5  1  0  0  0  0
  5  6  2  0  0  0  0
  5  7  1  0  0  0  0
  7  8  1  0  0  0  0
  9 10  2  0  0  0  0
  9 11  1  0  0  0  0
 11 12  1  0  0  0  0
M  END
> <ID>
4015

> <Formula>
C8H14O4

> <FW>
174.1944

> <DSSTox_CID>
5096

> <DSSTox_RID>
77664

> <DSSTox_GSID>
25096

> <DSSTox_FileID_Sort>
2347

> <TS_ChemName>
Dimethyl adipate

> <TS_ChemName_Synonyms>
Dimethyl adipate (1,6-Dimethyl hexanedioate)

> <TS_CASRN>
627-93-0

> <CASRN_ChemName_Relationship>
primary

> <TS_Description>
single chemical compound

> <ChemNote>


> <STRUCTURE_Shown>
tested chemical

> <STRUCTURE_Formula>
C8H14O4

> <STRUCTURE_MW>
174.1944

> <STRUCTURE_ChemType>
defined organic

> <STRUCTURE_DefinedOrganicForm>
parent

> <STRUCTURE_IUPAC>
dimethyl hexanedioate

> <STRUCTURE_SMILES>
O=C(CCCCC(=O)OC)OC

> <STRUCTURE_SMILES_Desalt>
O=C(CCCCC(=O)OC)OC

> <Substance_modify_yyyymmdd>
20080429

$$$$
