628-97-7
ChemmineR-0915142007XD

 20 19  0  0  0  0  0  0  0  0  1 V2000
   17.2818   -1.3278    0.0000 C   0  0  0  0  0  0  0  0  0  0  0  0
   17.2818    0.0000    0.0000 O   0  0  0  0  0  0  0  0  0  0  0  0
   18.4436   -1.9917    0.0000 O   0  0  0  0  0  0  0  0  0  0  0  0
   16.1200   -1.9917    0.0000 C   0  0  0  0  0  0  0  0  0  0  0  0
   14.9997   -1.3278    0.0000 C   0  0  0  0  0  0  0  0  0  0  0  0
    1.1618   -1.3278    0.0000 C   0  0  0  0  0  0  0  0  0  0  0  0
    2.3029   -1.9917    0.0000 C   0  0  0  0  0  0  0  0  0  0  0  0
   11.5350   -1.9917    0.0000 C   0  0  0  0  0  0  0  0  0  0  0  0
   10.3732   -1.3278    0.0000 C   0  0  0  0  0  0  0  0  0  0  0  0
    9.2114   -1.9917    0.0000 C   0  0  0  0  0  0  0  0  0  0  0  0
    8.0704   -1.3278    0.0000 C   0  0  0  0  0  0  0  0  0  0  0  0
    6.9086   -1.9917    0.0000 C   0  0  0  0  0  0  0  0  0  0  0  0
    5.7468   -1.3278    0.0000 C   0  0  0  0  0  0  0  0  0  0  0  0
    4.6264   -1.9917    0.0000 C   0  0  0  0  0  0  0  0  0  0  0  0
    3.4646   -1.3278    0.0000 C   0  0  0  0  0  0  0  0  0  0  0  0
   13.8379   -1.9917    0.0000 C   0  0  0  0  0  0  0  0  0  0  0  0
   12.6761   -1.3278    0.0000 C   0  0  0  0  0  0  0  0  0  0  0  0
    0.0000   -1.9917    0.0000 C   0  0  0  0  0  0  0  0  0  0  0  0
   19.5846   -1.3278    0.0000 C   0  0  0  0  0  0  0  0  0  0  0  0
   20.7464   -1.9917    0.0000 C   0  0  0  0  0  0  0  0  0  0  0  0
  1  2  2  0  0  0  0
  1  3  1  0  0  0  0
  1  4  1  0  0  0  0
  3 19  1  0  0  0  0
  4  5  1  0  0  0  0
  5 16  1  0  0  0  0
  6  7  1  0  0  0  0
  6 18  1  0  0  0  0
  7 15  1  0  0  0  0
  8 17  1  0  0  0  0
  8  9  1  0  0  0  0
  9 10  1  0  0  0  0
 10 11  1  0  0  0  0
 11 12  1  0  0  0  0
 12 13  1  0  0  0  0
 13 14  1  0  0  0  0
 14 15  1  0  0  0  0
 16 17  1  0  0  0  0
 19 20  1  0  0  0  0
M  END
> <ID>
12638

> <Formula>
C18H36O2

> <FW>
284.4772

> <DSSTox_CID>
27511

> <DSSTox_RID>
82388

> <DSSTox_GSID>
47511

> <DSSTox_FileID_Sort>
7069

> <TS_ChemName>
Ethyl hexadecanoate

> <TS_ChemName_Synonyms>


> <TS_CASRN>
628-97-7

> <CASRN_ChemName_Relationship>
primary

> <TS_Description>
single chemical compound

> <ChemNote>


> <STRUCTURE_Shown>
tested chemical

> <STRUCTURE_Formula>
C18H36O2

> <STRUCTURE_MW>
284.4772

> <STRUCTURE_ChemType>
defined organic

> <STRUCTURE_DefinedOrganicForm>
parent

> <STRUCTURE_IUPAC>
ethyl hexadecanoate

> <STRUCTURE_SMILES>
O=C(CCCCCCCCCCCCCCC)OCC

> <STRUCTURE_SMILES_Desalt>
O=C(CCCCCCCCCCCCCCC)OCC

> <Substance_modify_yyyymmdd>
20100704

$$$$
