628-87-5
ChemmineR-0915142007XD

  7  6  0  0  0  0  0  0  0  0  1 V2000
    5.7589   -0.6552    0.0000 C   0  0  0  0  0  0  0  0  0  0  0  0
    6.8968    0.0000    0.0000 N   0  0  0  0  0  0  0  0  0  0  0  0
    4.6002   -1.3311    0.0000 C   0  0  0  0  0  0  0  0  0  0  0  0
    1.1518   -0.6552    0.0000 C   0  0  0  0  0  0  0  0  0  0  0  0
    0.0000    0.0000    0.0000 N   0  0  0  0  0  0  0  0  0  0  0  0
    2.3104   -1.3311    0.0000 C   0  0  0  0  0  0  0  0  0  0  0  0
    3.4484   -0.6552    0.0000 N   0  0  0  0  0  0  0  0  0  0  0  0
  1  2  3  0  0  0  0
  1  3  1  0  0  0  0
  3  7  1  0  0  0  0
  4  5  3  0  0  0  0
  4  6  1  0  0  0  0
  6  7  1  0  0  0  0
M  END
> <ID>
8544

> <Formula>
C4H5N3

> <FW>
95.1026

> <DSSTox_CID>
21580

> <DSSTox_RID>
79780

> <DSSTox_GSID>
41580

> <DSSTox_FileID_Sort>
4462

> <TS_ChemName>
Iminodiacetonitrile

> <TS_ChemName_Synonyms>


> <TS_CASRN>
628-87-5

> <CASRN_ChemName_Relationship>
primary

> <TS_Description>
single chemical compound

> <ChemNote>


> <STRUCTURE_Shown>
tested chemical

> <STRUCTURE_Formula>
C4H5N3

> <STRUCTURE_MW>
95.1026

> <STRUCTURE_ChemType>
defined organic

> <STRUCTURE_DefinedOrganicForm>
parent

> <STRUCTURE_IUPAC>
2,2'-iminodiacetonitrile

> <STRUCTURE_SMILES>
N#CCNCC#N

> <STRUCTURE_SMILES_Desalt>
N#CCNCC#N

> <Substance_modify_yyyymmdd>
20080825

$$$$
