6281-42-1
ChemmineR-0915142007XD

  9  9  0  0  0  0  0  0  0  0  1 V2000
    2.1494   -2.1154    0.0000 N   0  0  0  0  0  0  0  0  0  0  0  0
    0.0000   -2.1154    0.0000 N   0  0  0  0  0  0  0  0  0  0  0  0
    1.0747   -1.3292    0.0000 C   0  0  0  0  0  0  0  0  0  0  0  0
    1.7308   -3.3824    0.0000 C   0  0  0  0  0  0  0  0  0  0  0  0
    0.4016   -3.3824    0.0000 C   0  0  0  0  0  0  0  0  0  0  0  0
    1.0747    0.0000    0.0000 O   0  0  0  0  0  0  0  0  0  0  0  0
    3.4107   -1.7025    0.0000 C   0  0  0  0  0  0  0  0  0  0  0  0
    4.3892   -2.5962    0.0000 C   0  0  0  0  0  0  0  0  0  0  0  0
    5.6562   -2.1833    0.0000 N   0  0  0  0  0  0  0  0  0  0  0  0
  1  3  1  0  0  0  0
  1  4  1  0  0  0  0
  1  7  1  0  0  0  0
  2  3  1  0  0  0  0
  2  5  1  0  0  0  0
  3  6  2  0  0  0  0
  4  5  1  0  0  0  0
  7  8  1  0  0  0  0
  8  9  1  0  0  0  0
M  END
> <ID>
10358

> <Formula>
C5H11N3O

> <FW>
129.1603

> <DSSTox_CID>
24706

> <DSSTox_RID>
80410

> <DSSTox_GSID>
44706

> <DSSTox_FileID_Sort>
5092

> <TS_ChemName>
1-(2-Aminoethyl)imidazolidin-2-one

> <TS_ChemName_Synonyms>
1-(2-Aminoethyl)imidazolidin-2-one (2-Imidazolidinone, 1-(2-aminoethyl)-)

> <TS_CASRN>
6281-42-1

> <CASRN_ChemName_Relationship>
primary

> <TS_Description>
single chemical compound

> <ChemNote>


> <STRUCTURE_Shown>
tested chemical

> <STRUCTURE_Formula>
C5H11N3O

> <STRUCTURE_MW>
129.1603

> <STRUCTURE_ChemType>
defined organic

> <STRUCTURE_DefinedOrganicForm>
parent

> <STRUCTURE_IUPAC>
1-(2-aminoethyl)imidazolidin-2-one

> <STRUCTURE_SMILES>
O=C1NCCN1CCN

> <STRUCTURE_SMILES_Desalt>
O=C1NCCN1CCN

> <Substance_modify_yyyymmdd>
20091116

$$$$
