6285-05-8
ChemmineR-0915142007XD

 11 11  0  0  0  0  0  0  0  0  1 V2000
    2.3030   -1.3209    0.0000 C    0  0  0  0  0  0  0  0  0  0  0  0
    2.3030    0.0000    0.0000 O    0  0  0  0  0  0  0  0  0  0  0  0
    1.1549   -1.9779    0.0000 C    0  0  0  0  0  0  0  0  0  0  0  0
    0.0000   -1.3002    0.0000 C    0  0  0  0  0  0  0  0  0  0  0  0
    4.5990   -3.9904    0.0000 C    0  0  0  0  0  0  0  0  0  0  0  0
    5.7609   -3.3265    0.0000 C    0  0  0  0  0  0  0  0  0  0  0  0
    5.7609   -1.9917    0.0000 C    0  0  0  0  0  0  0  0  0  0  0  0
    4.5990   -1.3347    0.0000 C    0  0  0  0  0  0  0  0  0  0  0  0
    3.4579   -1.9917    0.0000 C    0  0  0  0  0  0  0  0  0  0  0  0
    3.4579   -3.3127    0.0000 C    0  0  0  0  0  0  0  0  0  0  0  0
    6.9158   -4.0042    0.0000 Cl   0  0  0  0  0  0  0  0  0  0  0  0
  1  2  2  0  0  0  0
  1  3  1  0  0  0  0
  1  9  1  0  0  0  0
  3  4  1  0  0  0  0
  5 10  2  0  0  0  0
  5  6  1  0  0  0  0
  6  7  2  0  0  0  0
  6 11  1  0  0  0  0
  7  8  1  0  0  0  0
  8  9  2  0  0  0  0
  9 10  1  0  0  0  0
M  END
> <ID>
13265

> <Formula>
C9H9ClO

> <FW>
168.6202

> <DSSTox_CID>
28178

> <DSSTox_RID>
82738

> <DSSTox_GSID>
48203

> <DSSTox_FileID_Sort>
7415

> <TS_ChemName>
Ethyl 4-chlorophenyl ketone

> <TS_ChemName_Synonyms>
Ethyl 4-chlorophenyl ketone (4'-Chloropropiophenone)

> <TS_CASRN>
6285-05-8

> <CASRN_ChemName_Relationship>
primary

> <TS_Description>
single chemical compound

> <ChemNote>


> <STRUCTURE_Shown>
tested chemical

> <STRUCTURE_Formula>
C9H9ClO

> <STRUCTURE_MW>
168.6202

> <STRUCTURE_ChemType>
defined organic

> <STRUCTURE_DefinedOrganicForm>
parent

> <STRUCTURE_IUPAC>
1-(4-chlorophenyl)propan-1-one

> <STRUCTURE_SMILES>
O=C(CC)c1ccc(Cl)cc1

> <STRUCTURE_SMILES_Desalt>
O=C(CC)c1ccc(Cl)cc1

> <Substance_modify_yyyymmdd>
20110901

$$$$
