6285-57-0
ChemmineR-0915142007XD

 13 14  0  0  0  0  0  0  0  0  2 V2000
    6.5750   -2.2545    0.0000 N   0  3  0  0  0  0  0  0  0  0  0  0
    7.2491   -1.1019    0.0000 O   0  0  0  0  0  0  0  0  0  0  0  0
    7.2491   -3.4071    0.0000 O   0  5  0  0  0  0  0  0  0  0  0  0
    5.2484   -2.2545    0.0000 C   0  0  0  0  0  0  0  0  0  0  0  0
    4.5959   -3.4071    0.0000 C   0  0  0  0  0  0  0  0  0  0  0  0
    3.2621   -3.4071    0.0000 C   0  0  0  0  0  0  0  0  0  0  0  0
    2.5952   -2.2545    0.0000 C   0  0  0  0  0  0  0  0  0  0  0  0
    1.2976   -1.9863    0.0000 N   0  0  0  0  0  0  0  0  0  0  0  0
    1.1526   -0.6524    0.0000 C   0  0  0  0  0  0  0  0  0  0  0  0
    0.0000    0.0000    0.0000 N   0  0  0  0  0  0  0  0  0  0  0  0
    2.3705   -0.1232    0.0000 S   0  0  0  0  0  0  0  0  0  0  0  0
    3.2621   -1.1019    0.0000 C   0  0  0  0  0  0  0  0  0  0  0  0
    4.5959   -1.1019    0.0000 C   0  0  0  0  0  0  0  0  0  0  0  0
  1  2  2  0  0  0  0
  1  3  1  0  0  0  0
  1  4  1  0  0  0  0
  4  5  2  0  0  0  0
  4 13  1  0  0  0  0
  5  6  1  0  0  0  0
  6  7  2  0  0  0  0
  7  8  1  0  0  0  0
  7 12  1  0  0  0  0
  8  9  2  0  0  0  0
  9 10  1  0  0  0  0
  9 11  1  0  0  0  0
 11 12  1  0  0  0  0
 12 13  2  0  0  0  0
M  END
> <ID>
3711

> <Formula>
C7H5N3O2S

> <FW>
195.1985

> <DSSTox_CID>
4491

> <DSSTox_RID>
77426

> <DSSTox_GSID>
24491

> <DSSTox_FileID_Sort>
2109

> <TS_ChemName>
2-Amino-6-nitrobenzothiazole

> <TS_ChemName_Synonyms>


> <TS_CASRN>
6285-57-0

> <CASRN_ChemName_Relationship>
primary

> <TS_Description>
single chemical compound

> <ChemNote>


> <STRUCTURE_Shown>
tested chemical

> <STRUCTURE_Formula>
C7H5N3O2S

> <STRUCTURE_MW>
195.1985

> <STRUCTURE_ChemType>
defined organic

> <STRUCTURE_DefinedOrganicForm>
parent

> <STRUCTURE_IUPAC>
6-nitro-1,3-benzothiazol-2-amine

> <STRUCTURE_SMILES>
[O-][N+](=O)c1ccc2nc(N)sc2c1

> <STRUCTURE_SMILES_Desalt>
[O-][N+](=O)c1ccc2nc(N)sc2c1

> <Substance_modify_yyyymmdd>
20080429

$$$$
