62893-20-3
ChemmineR-0915142007XD

 47 50  0  0  1  0  0  0  0  0  2 V2000
   10.6838   -8.2533    0.0000 N    0  0  0  0  0  0  0  0  0  0  0  0
    3.3398   -3.4622    0.0000 N    0  0  0  0  0  0  0  0  0  0  0  0
    9.3199   -8.2533    0.0000 C    0  0  0  0  0  0  0  0  0  0  0  0
    9.3199   -6.9243    0.0000 C    0  0  0  0  0  0  0  0  0  0  0  0
   10.6838   -6.9243    0.0000 C    0  0  0  0  0  0  0  0  0  0  0  0
    1.9934   -3.4622    0.0000 C    0  0  0  0  0  0  0  0  0  0  0  0
    4.0042   -4.6162    0.0000 C    0  0  0  0  0  0  0  0  0  0  0  0
   15.3700  -10.8936    0.0000 C    0  0  0  0  0  0  0  0  0  0  0  0
   11.8204   -8.9177    0.0000 C    0  0  0  0  0  0  0  0  0  0  0  0
   16.4191  -10.1592    0.0000 N    0  0  0  0  0  0  0  0  0  0  0  0
   15.7721  -12.1526    0.0000 N    0  0  0  0  0  0  0  0  0  0  0  0
    1.3464   -2.2906    0.0000 C    0  0  0  0  0  0  0  0  0  0  0  0
   17.0661  -12.1526    0.0000 N    0  0  0  0  0  0  0  0  0  0  0  0
   17.4857  -10.8936    0.0000 N    0  0  0  0  0  0  0  0  0  0  0  0
    7.9735   -6.9243    0.0000 N    0  0  0  0  0  0  0  0  0  0  0  0
   11.8204   -6.2424    0.0000 S    0  0  0  0  0  0  0  0  0  0  0  0
   12.9569   -8.2533    0.0000 C    0  0  0  0  0  0  0  0  0  0  0  0
    5.3506   -4.6162    0.0000 N    0  0  0  0  0  0  0  0  0  0  0  0
    7.3265   -5.7703    0.0000 C    0  0  0  0  0  0  0  0  0  0  0  0
    1.9934   -1.1366    0.0000 N    0  0  0  0  0  0  0  0  0  0  0  0
    5.9976   -5.7703    0.0000 C    0  0  0  0  0  0  0  0  0  0  0  0
   11.8204  -10.2641    0.0000 C    0  0  0  0  0  0  0  0  0  0  0  0
    4.0042   -2.2906    0.0000 C    0  0  0  0  0  0  0  0  0  0  0  0
   14.1285  -10.2816    0.0000 S    0  0  0  0  0  0  0  0  0  0  0  0
   12.9569   -6.9243    0.0000 C    0  0  0  0  0  0  0  0  0  0  0  0
    8.3931   -9.1800    0.0000 O    0  0  0  0  0  0  0  0  0  0  0  0
   14.1285   -8.9177    0.0000 C    0  0  0  0  0  0  0  0  0  0  0  0
    1.3289   -4.5987    0.0000 O    0  0  0  0  0  0  0  0  0  0  0  0
    3.3223   -5.7703    0.0000 O    0  0  0  0  0  0  0  0  0  0  0  0
    3.3398   -1.1366    0.0000 C    0  0  0  0  0  0  0  0  0  0  0  0
    0.0000   -2.2906    0.0000 O    0  0  0  0  0  0  0  0  0  0  0  0
    5.3506   -6.9243    0.0000 C    0  0  0  0  0  0  0  0  0  0  0  0
    7.9735   -4.6162    0.0000 O    0  0  0  0  0  0  0  0  0  0  0  0
   12.9569  -10.9111    0.0000 O    0  0  0  0  0  0  0  0  0  0  0  0
    4.0042   -6.9243    0.0000 C    0  0  0  0  0  0  0  0  0  0  0  0
    5.9976   -8.0784    0.0000 C    0  0  0  0  0  0  0  0  0  0  0  0
   16.4191   -8.8478    0.0000 C    0  0  0  0  0  0  0  0  0  0  0  0
   10.6838  -10.9111    0.0000 O    0  5  0  0  0  0  0  0  0  0  0  0
    4.0042   -9.2150    0.0000 C    0  0  0  0  0  0  0  0  0  0  0  0
    3.3747   -8.0784    0.0000 C    0  0  0  0  0  0  0  0  0  0  0  0
    5.3506   -9.2150    0.0000 C    0  0  0  0  0  0  0  0  0  0  0  0
    1.3464    0.0000    0.0000 C    0  0  0  0  0  0  0  0  0  0  0  0
    3.3223  -10.3865    0.0000 O    0  0  0  0  0  0  0  0  0  0  0  0
    0.0000    0.0000    0.0000 C    0  0  0  0  0  0  0  0  0  0  0  0
   10.6838   -5.5779    0.0000 H    0  0  0  0  0  0  0  0  0  0  0  0
    9.3199   -5.5954    0.0000 H    0  0  0  0  0  0  0  0  0  0  0  0
   11.7854  -12.4324    0.0000 Na   0  3  0  0  0  0  0  0  0  0  0  0
  1  3  1  0  0  0  0
  1  5  1  0  0  0  0
  1  9  1  0  0  0  0
  2  7  1  0  0  0  0
  2  6  1  0  0  0  0
  2 23  1  0  0  0  0
  3 26  2  0  0  0  0
  3  4  1  0  0  0  0
  4  5  1  0  0  0  0
  4 15  1  1  0  0  0
  4 46  1  6  0  0  0
  5 16  1  0  0  0  0
  5 45  1  6  0  0  0
  6 12  1  0  0  0  0
  6 28  2  0  0  0  0
  7 18  1  0  0  0  0
  7 29  2  0  0  0  0
  8 24  1  0  0  0  0
  8 10  1  0  0  0  0
  8 11  2  0  0  0  0
  9 17  2  0  0  0  0
  9 22  1  0  0  0  0
 10 14  1  0  0  0  0
 10 37  1  0  0  0  0
 11 13  1  0  0  0  0
 12 31  2  0  0  0  0
 12 20  1  0  0  0  0
 13 14  2  0  0  0  0
 15 19  1  0  0  0  0
 16 25  1  0  0  0  0
 17 25  1  0  0  0  0
 17 27  1  0  0  0  0
 18 21  1  0  0  0  0
 19 21  1  0  0  0  0
 19 33  2  0  0  0  0
 20 30  1  0  0  0  0
 20 42  1  0  0  0  0
 21 32  1  1  0  0  0
 22 34  2  0  0  0  0
 22 38  1  0  0  0  0
 23 30  1  0  0  0  0
 24 27  1  0  0  0  0
 32 35  2  0  0  0  0
 32 36  1  0  0  0  0
 35 40  1  0  0  0  0
 36 41  2  0  0  0  0
 39 41  1  0  0  0  0
 39 43  1  0  0  0  0
 39 40  2  0  0  0  0
 42 44  1  0  0  0  0
M  END
> <ID>
11260

> <Formula>
C25H26N9NaO8S2

> <FW>
667.6492 (644.6600+22.9892)

> <DSSTox_CID>
25874

> <DSSTox_RID>
81192

> <DSSTox_GSID>
45874

> <DSSTox_FileID_Sort>
5873

> <TS_ChemName>
Cefoperazone sodium

> <TS_ChemName_Synonyms>


> <TS_CASRN>
62893-20-3

> <CASRN_ChemName_Relationship>
primary

> <TS_Description>
single chemical compound

> <ChemNote>
stereochem; parent [62893-19-0]

> <STRUCTURE_Shown>
tested chemical

> <STRUCTURE_Formula>
C25H26N9NaO8S2

> <STRUCTURE_MW>
667.6492

> <STRUCTURE_ChemType>
defined organic

> <STRUCTURE_DefinedOrganicForm>
salt

> <STRUCTURE_IUPAC>
sodium (6R,7R)-7-{[(2R)-2-{[(4-ethyl-2,3-dioxopiperazin-1-yl)carbonyl]amino}-2-(4-hydroxyphenyl)acetyl]amino}-3-{[(1-methyl-1H-tetrazol-5-yl)sulfanyl]methyl}-8-oxo-5-thia-1-azabicyclo[4.2.0]oct-2-ene-2-carboxylate

> <STRUCTURE_SMILES>
[Na+].O=C1C(=O)N(CC)CCN1C(=O)N[C@H](c2ccc(O)cc2)C(=O)N[C@@H]5C(=O)N4C(=C(CSc3nnnn3C)CS[C@@H]45)C([O-])=O

> <STRUCTURE_SMILES_Desalt>
O=C1C(=O)N(CC)CCN1C(=O)N[C@H](c2ccc(O)cc2)C(=O)N[C@@H]5C(=O)N4C(=C(CSc3nnnn3C)CS[C@@H]45)C(=O)O

> <Substance_modify_yyyymmdd>
20110922

$$$$
