6289-46-9
ChemmineR-0915142007XD

 16 16  0  0  0  0  0  0  0  0  1 V2000
    5.9894   -2.2950    0.0000 C   0  0  0  0  0  0  0  0  0  0  0  0
    5.3270   -3.4518    0.0000 C   0  0  0  0  0  0  0  0  0  0  0  0
    4.0023   -3.4518    0.0000 C   0  0  0  0  0  0  0  0  0  0  0  0
    3.3212   -2.2950    0.0000 C   0  0  0  0  0  0  0  0  0  0  0  0
    4.0023   -1.1568    0.0000 C   0  0  0  0  0  0  0  0  0  0  0  0
    5.3270   -1.1568    0.0000 C   0  0  0  0  0  0  0  0  0  0  0  0
    7.3235   -2.2950    0.0000 C   0  0  0  0  0  0  0  0  0  0  0  0
    7.9952   -3.4518    0.0000 O   0  0  0  0  0  0  0  0  0  0  0  0
    7.9952   -1.1568    0.0000 O   0  0  0  0  0  0  0  0  0  0  0  0
    1.9871   -2.2950    0.0000 C   0  0  0  0  0  0  0  0  0  0  0  0
    1.3341   -1.1568    0.0000 O   0  0  0  0  0  0  0  0  0  0  0  0
    1.3341   -3.4518    0.0000 O   0  0  0  0  0  0  0  0  0  0  0  0
    5.9894   -4.6087    0.0000 O   0  0  0  0  0  0  0  0  0  0  0  0
    3.3212    0.0000    0.0000 O   0  0  0  0  0  0  0  0  0  0  0  0
    9.3293   -1.1568    0.0000 C   0  0  0  0  0  0  0  0  0  0  0  0
    0.0000   -3.4518    0.0000 C   0  0  0  0  0  0  0  0  0  0  0  0
  1  2  1  0  0  0  0
  1  6  1  0  0  0  0
  1  7  1  0  0  0  0
  2  3  1  0  0  0  0
  2 13  2  0  0  0  0
  3  4  1  0  0  0  0
  4  5  1  0  0  0  0
  4 10  1  0  0  0  0
  5  6  1  0  0  0  0
  5 14  2  0  0  0  0
  7  8  2  0  0  0  0
  7  9  1  0  0  0  0
  9 15  1  0  0  0  0
 10 11  2  0  0  0  0
 10 12  1  0  0  0  0
 12 16  1  0  0  0  0
M  END
> <ID>
5296

> <Formula>
C10H12O6

> <FW>
228.1987

> <DSSTox_CID>
7617

> <DSSTox_RID>
78530

> <DSSTox_GSID>
27617

> <DSSTox_FileID_Sort>
3213

> <TS_ChemName>
1,4-Cyclohexanedicarboxylic acid, 2,5-dioxo-, dimethyl ester

> <TS_ChemName_Synonyms>


> <TS_CASRN>
6289-46-9

> <CASRN_ChemName_Relationship>
primary

> <TS_Description>
single chemical compound

> <ChemNote>
tautomers

> <STRUCTURE_Shown>
tested chemical

> <STRUCTURE_Formula>
C10H12O6

> <STRUCTURE_MW>
228.1987

> <STRUCTURE_ChemType>
defined organic

> <STRUCTURE_DefinedOrganicForm>
parent

> <STRUCTURE_IUPAC>
dimethyl 2,5-dioxocyclohexane-1,4-dicarboxylate

> <STRUCTURE_SMILES>
COC(=O)C1CC(=O)C(CC1=O)C(=O)OC

> <STRUCTURE_SMILES_Desalt>
COC(=O)C1CC(=O)C(CC1=O)C(=O)OC

> <Substance_modify_yyyymmdd>
20080429

$$$$
