629-76-5
ChemmineR-0915142007XD

 16 15  0  0  0  0  0  0  0  0  1 V2000
    1.1365    0.0000    0.0000 C   0  0  0  0  0  0  0  0  0  0  0  0
    2.3074   -0.6716    0.0000 C   0  0  0  0  0  0  0  0  0  0  0  0
    3.4439    0.0000    0.0000 C   0  0  0  0  0  0  0  0  0  0  0  0
    4.5976   -0.6716    0.0000 C   0  0  0  0  0  0  0  0  0  0  0  0
    5.7341    0.0000    0.0000 C   0  0  0  0  0  0  0  0  0  0  0  0
    6.8879   -0.6716    0.0000 C   0  0  0  0  0  0  0  0  0  0  0  0
    8.0244    0.0000    0.0000 C   0  0  0  0  0  0  0  0  0  0  0  0
    9.1953   -0.6716    0.0000 C   0  0  0  0  0  0  0  0  0  0  0  0
   10.3318    0.0000    0.0000 C   0  0  0  0  0  0  0  0  0  0  0  0
   11.4855   -0.6716    0.0000 C   0  0  0  0  0  0  0  0  0  0  0  0
   12.6220    0.0000    0.0000 C   0  0  0  0  0  0  0  0  0  0  0  0
   13.7757   -0.6716    0.0000 C   0  0  0  0  0  0  0  0  0  0  0  0
   14.9122    0.0000    0.0000 C   0  0  0  0  0  0  0  0  0  0  0  0
   16.0832   -0.6716    0.0000 C   0  0  0  0  0  0  0  0  0  0  0  0
   17.2197    0.0000    0.0000 C   0  0  0  0  0  0  0  0  0  0  0  0
    0.0000   -0.6716    0.0000 O   0  0  0  0  0  0  0  0  0  0  0  0
  1  2  1  0  0  0  0
  1 16  1  0  0  0  0
  2  3  1  0  0  0  0
  3  4  1  0  0  0  0
  4  5  1  0  0  0  0
  5  6  1  0  0  0  0
  6  7  1  0  0  0  0
  7  8  1  0  0  0  0
  8  9  1  0  0  0  0
  9 10  1  0  0  0  0
 10 11  1  0  0  0  0
 11 12  1  0  0  0  0
 12 13  1  0  0  0  0
 13 14  1  0  0  0  0
 14 15  1  0  0  0  0
M  END
> <ID>
5037

> <Formula>
C15H32O

> <FW>
228.414

> <DSSTox_CID>
7270

> <DSSTox_RID>
78381

> <DSSTox_GSID>
27270

> <DSSTox_FileID_Sort>
3064

> <TS_ChemName>
1-Pentadecanol

> <TS_ChemName_Synonyms>


> <TS_CASRN>
629-76-5

> <CASRN_ChemName_Relationship>
primary

> <TS_Description>
single chemical compound

> <ChemNote>


> <STRUCTURE_Shown>
tested chemical

> <STRUCTURE_Formula>
C15H32O

> <STRUCTURE_MW>
228.414

> <STRUCTURE_ChemType>
defined organic

> <STRUCTURE_DefinedOrganicForm>
parent

> <STRUCTURE_IUPAC>
pentadecan-1-ol

> <STRUCTURE_SMILES>
CCCCCCCCCCCCCCCO

> <STRUCTURE_SMILES_Desalt>
CCCCCCCCCCCCCCCO

> <Substance_modify_yyyymmdd>
20080429

$$$$
