629-03-8
ChemmineR-0915142007XD

  8  7  0  0  0  0  0  0  0  0  1 V2000
    1.1732    0.0000    0.0000 C    0  0  0  0  0  0  0  0  0  0  0  0
    2.3382   -0.6436    0.0000 C    0  0  0  0  0  0  0  0  0  0  0  0
    3.4788    0.0000    0.0000 C    0  0  0  0  0  0  0  0  0  0  0  0
    4.6357   -0.6436    0.0000 C    0  0  0  0  0  0  0  0  0  0  0  0
    5.8089    0.0000    0.0000 C    0  0  0  0  0  0  0  0  0  0  0  0
    6.9740   -0.6436    0.0000 C    0  0  0  0  0  0  0  0  0  0  0  0
    0.0000   -0.6436    0.0000 Br   0  0  0  0  0  0  0  0  0  0  0  0
    8.1472    0.0000    0.0000 Br   0  0  0  0  0  0  0  0  0  0  0  0
  1  2  1  0  0  0  0
  1  7  1  0  0  0  0
  2  3  1  0  0  0  0
  3  4  1  0  0  0  0
  4  5  1  0  0  0  0
  5  6  1  0  0  0  0
  6  8  1  0  0  0  0
M  END
> <ID>
10109

> <Formula>
C6H12Br2

> <FW>
243.9675

> <DSSTox_CID>
24452

> <DSSTox_RID>
80239

> <DSSTox_GSID>
44452

> <DSSTox_FileID_Sort>
4921

> <TS_ChemName>
1,6-Dibromohexane

> <TS_ChemName_Synonyms>


> <TS_CASRN>
629-03-8

> <CASRN_ChemName_Relationship>
primary

> <TS_Description>
single chemical compound

> <ChemNote>


> <STRUCTURE_Shown>
tested chemical

> <STRUCTURE_Formula>
C6H12Br2

> <STRUCTURE_MW>
243.9675

> <STRUCTURE_ChemType>
defined organic

> <STRUCTURE_DefinedOrganicForm>
parent

> <STRUCTURE_IUPAC>
1,6-dibromohexane

> <STRUCTURE_SMILES>
BrCCCCCCBr

> <STRUCTURE_SMILES_Desalt>
BrCCCCCCBr

> <Substance_modify_yyyymmdd>
20091116

$$$$
