629-19-6
ChemmineR-0915142007XD

  8  7  0  0  0  0  0  0  0  0  1 V2000
    8.0744    0.0000    0.0000 C   0  0  0  0  0  0  0  0  0  0  0  0
    6.9197   -0.6621    0.0000 C   0  0  0  0  0  0  0  0  0  0  0  0
    5.7651    0.0000    0.0000 C   0  0  0  0  0  0  0  0  0  0  0  0
    4.6105   -0.6621    0.0000 S   0  0  0  0  0  0  0  0  0  0  0  0
    3.4639    0.0000    0.0000 S   0  0  0  0  0  0  0  0  0  0  0  0
    2.3093   -0.6621    0.0000 C   0  0  0  0  0  0  0  0  0  0  0  0
    1.1546    0.0000    0.0000 C   0  0  0  0  0  0  0  0  0  0  0  0
    0.0000   -0.6621    0.0000 C   0  0  0  0  0  0  0  0  0  0  0  0
  1  2  1  0  0  0  0
  2  3  1  0  0  0  0
  3  4  1  0  0  0  0
  4  5  1  0  0  0  0
  5  6  1  0  0  0  0
  6  7  1  0  0  0  0
  7  8  1  0  0  0  0
M  END
> <ID>
1939

> <Formula>
C6H14S2

> <FW>
150.3054

> <DSSTox_CID>
2096

> <DSSTox_RID>
76487

> <DSSTox_GSID>
22096

> <DSSTox_FileID_Sort>
1171

> <TS_ChemName>
Dipropyl disulfide

> <TS_ChemName_Synonyms>
Dipropyl disulfide (Propyl disulfide)

> <TS_CASRN>
629-19-6

> <CASRN_ChemName_Relationship>
primary

> <TS_Description>
single chemical compound

> <ChemNote>


> <STRUCTURE_Shown>
tested chemical

> <STRUCTURE_Formula>
C6H14S2

> <STRUCTURE_MW>
150.3054

> <STRUCTURE_ChemType>
defined organic

> <STRUCTURE_DefinedOrganicForm>
parent

> <STRUCTURE_IUPAC>
dipropyl disulfide

> <STRUCTURE_SMILES>
CCCSSCCC

> <STRUCTURE_SMILES_Desalt>
CCCSSCCC

> <Substance_modify_yyyymmdd>
20080429

$$$$
