629-78-7
ChemmineR-0915142007XD

 17 16  0  0  0  0  0  0  0  0  1 V2000
    0.0000    0.0000    0.0000 C   0  0  0  0  0  0  0  0  0  0  0  0
    1.2043   -0.6210    0.0000 C   0  0  0  0  0  0  0  0  0  0  0  0
    2.3898    0.0000    0.0000 C   0  0  0  0  0  0  0  0  0  0  0  0
    3.5752   -0.6210    0.0000 C   0  0  0  0  0  0  0  0  0  0  0  0
    4.7043    0.0000    0.0000 C   0  0  0  0  0  0  0  0  0  0  0  0
    5.9086   -0.6210    0.0000 C   0  0  0  0  0  0  0  0  0  0  0  0
    7.0940    0.0000    0.0000 C   0  0  0  0  0  0  0  0  0  0  0  0
    8.2230   -0.6210    0.0000 C   0  0  0  0  0  0  0  0  0  0  0  0
    9.4085    0.0000    0.0000 C   0  0  0  0  0  0  0  0  0  0  0  0
   10.5940   -0.6210    0.0000 C   0  0  0  0  0  0  0  0  0  0  0  0
   11.7983    0.0000    0.0000 C   0  0  0  0  0  0  0  0  0  0  0  0
   12.9838   -0.6210    0.0000 C   0  0  0  0  0  0  0  0  0  0  0  0
   14.1128    0.0000    0.0000 C   0  0  0  0  0  0  0  0  0  0  0  0
   15.2983   -0.6210    0.0000 C   0  0  0  0  0  0  0  0  0  0  0  0
   16.5025    0.0000    0.0000 C   0  0  0  0  0  0  0  0  0  0  0  0
   17.6880   -0.6210    0.0000 C   0  0  0  0  0  0  0  0  0  0  0  0
   18.8170    0.0000    0.0000 C   0  0  0  0  0  0  0  0  0  0  0  0
  1  2  1  0  0  0  0
  2  3  1  0  0  0  0
  3  4  1  0  0  0  0
  4  5  1  0  0  0  0
  5  6  1  0  0  0  0
  6  7  1  0  0  0  0
  7  8  1  0  0  0  0
  8  9  1  0  0  0  0
  9 10  1  0  0  0  0
 10 11  1  0  0  0  0
 11 12  1  0  0  0  0
 12 13  1  0  0  0  0
 13 14  1  0  0  0  0
 14 15  1  0  0  0  0
 15 16  1  0  0  0  0
 16 17  1  0  0  0  0
M  END
> <ID>
12215

> <Formula>
C17H36

> <FW>
240.4677

> <DSSTox_CID>
27061

> <DSSTox_RID>
82078

> <DSSTox_GSID>
47061

> <DSSTox_FileID_Sort>
6759

> <TS_ChemName>
Heptadecane

> <TS_ChemName_Synonyms>


> <TS_CASRN>
629-78-7

> <CASRN_ChemName_Relationship>
primary

> <TS_Description>
single chemical compound

> <ChemNote>


> <STRUCTURE_Shown>
tested chemical

> <STRUCTURE_Formula>
C17H36

> <STRUCTURE_MW>
240.4677

> <STRUCTURE_ChemType>
defined organic

> <STRUCTURE_DefinedOrganicForm>
parent

> <STRUCTURE_IUPAC>
heptadecane

> <STRUCTURE_SMILES>
CCCCCCCCCCCCCCCCC

> <STRUCTURE_SMILES_Desalt>
CCCCCCCCCCCCCCCCC

> <Substance_modify_yyyymmdd>
20100429

$$$$
