6290-37-5
ChemmineR-0915142007XD

 16 16  0  0  0  0  0  0  0  0  1 V2000
    2.3079   -0.6721    0.0000 C   0  0  0  0  0  0  0  0  0  0  0  0
    2.3079   -2.0035    0.0000 C   0  0  0  0  0  0  0  0  0  0  0  0
    1.1539    0.0000    0.0000 C   0  0  0  0  0  0  0  0  0  0  0  0
    1.1539   -2.6629    0.0000 C   0  0  0  0  0  0  0  0  0  0  0  0
    0.0000   -0.6721    0.0000 C   0  0  0  0  0  0  0  0  0  0  0  0
    0.0000   -2.0035    0.0000 C   0  0  0  0  0  0  0  0  0  0  0  0
    3.4618    0.0000    0.0000 C   0  0  0  0  0  0  0  0  0  0  0  0
    4.6157   -0.6594    0.0000 C   0  0  0  0  0  0  0  0  0  0  0  0
    5.7697    0.0000    0.0000 O   0  0  0  0  0  0  0  0  0  0  0  0
    6.9109   -0.6594    0.0000 C   0  0  0  0  0  0  0  0  0  0  0  0
    8.0649    0.0000    0.0000 C   0  0  0  0  0  0  0  0  0  0  0  0
    6.9109   -1.9909    0.0000 O   0  0  0  0  0  0  0  0  0  0  0  0
    9.2188   -0.6594    0.0000 C   0  0  0  0  0  0  0  0  0  0  0  0
   10.3727    0.0000    0.0000 C   0  0  0  0  0  0  0  0  0  0  0  0
   11.5267   -0.6594    0.0000 C   0  0  0  0  0  0  0  0  0  0  0  0
   12.6806    0.0000    0.0000 C   0  0  0  0  0  0  0  0  0  0  0  0
  1  2  1  0  0  0  0
  1  3  2  0  0  0  0
  1  7  1  0  0  0  0
  2  4  2  0  0  0  0
  3  5  1  0  0  0  0
  4  6  1  0  0  0  0
  5  6  2  0  0  0  0
  7  8  1  0  0  0  0
  8  9  1  0  0  0  0
  9 10  1  0  0  0  0
 10 11  1  0  0  0  0
 10 12  2  0  0  0  0
 11 13  1  0  0  0  0
 13 14  1  0  0  0  0
 14 15  1  0  0  0  0
 15 16  1  0  0  0  0
M  END
> <ID>
12706

> <Formula>
C14H20O2

> <FW>
220.3074

> <DSSTox_CID>
27584

> <DSSTox_RID>
82433

> <DSSTox_GSID>
47584

> <DSSTox_FileID_Sort>
7114

> <TS_ChemName>
2-Phenylethyl hexanoate

> <TS_ChemName_Synonyms>


> <TS_CASRN>
6290-37-5

> <CASRN_ChemName_Relationship>
primary

> <TS_Description>
single chemical compound

> <ChemNote>


> <STRUCTURE_Shown>
tested chemical

> <STRUCTURE_Formula>
C14H20O2

> <STRUCTURE_MW>
220.3074

> <STRUCTURE_ChemType>
defined organic

> <STRUCTURE_DefinedOrganicForm>
parent

> <STRUCTURE_IUPAC>
2-phenylethyl hexanoate

> <STRUCTURE_SMILES>
CCCCCC(=O)OCCc1ccccc1

> <STRUCTURE_SMILES_Desalt>
CCCCCC(=O)OCCc1ccccc1

> <Substance_modify_yyyymmdd>
20100930

$$$$
