6292-91-7
ChemmineR-0915142007XD

 14 14  0  0  0  0  0  0  0  0  1 V2000
    2.0507   -2.0041    0.0000 C    0  0  0  0  0  0  0  0  0  0  0  0
    2.0507   -0.6725    0.0000 C    0  0  0  0  0  0  0  0  0  0  0  0
    3.2025   -2.6632    0.0000 C    0  0  0  0  0  0  0  0  0  0  0  0
    0.7857   -2.4036    0.0000 O    0  0  0  0  0  0  0  0  0  0  0  0
    3.2025    0.0000    0.0000 C    0  0  0  0  0  0  0  0  0  0  0  0
    0.7857   -0.2597    0.0000 O    0  0  0  0  0  0  0  0  0  0  0  0
    4.3544   -2.0041    0.0000 C    0  0  0  0  0  0  0  0  0  0  0  0
    0.0000   -1.3316    0.0000 C    0  0  0  0  0  0  0  0  0  0  0  0
    4.3544   -0.6725    0.0000 C    0  0  0  0  0  0  0  0  0  0  0  0
    5.5062   -2.6632    0.0000 C    0  0  0  0  0  0  0  0  0  0  0  0
    5.5062   -3.9882    0.0000 C    0  0  0  0  0  0  0  0  0  0  0  0
    4.3544   -4.6607    0.0000 C    0  0  0  0  0  0  0  0  0  0  0  0
    6.6581   -4.6607    0.0000 N    0  0  0  0  0  0  0  0  0  0  0  0
    6.5649   -1.2051    0.0000 Cl   0  0  0  0  0  0  0  0  0  0  0  0
  1  2  2  0  0  0  0
  1  3  1  0  0  0  0
  1  4  1  0  0  0  0
  2  5  1  0  0  0  0
  2  6  1  0  0  0  0
  3  7  2  0  0  0  0
  4  8  1  0  0  0  0
  5  9  2  0  0  0  0
  6  8  1  0  0  0  0
  7 10  1  0  0  0  0
  7  9  1  0  0  0  0
 10 11  1  0  0  0  0
 11 12  1  0  0  0  0
 11 13  1  0  0  0  0
M  END
> <ID>
14001

> <Formula>
C10H14ClNO2

> <FW>
215.6767 (179.2157+36.4609)

> <DSSTox_CID>
28943

> <DSSTox_RID>
83208

> <DSSTox_GSID>
49017

> <DSSTox_FileID_Sort>
7884

> <TS_ChemName>
1,3-Benzodioxole-5-ethanamine, alpha-methyl-, hydrochloride (1:1)

> <TS_ChemName_Synonyms>
(+/-)-3,4-Methylenedioxyamphetamine hydrochloride

> <TS_CASRN>
6292-91-7

> <CASRN_ChemName_Relationship>
primary

> <TS_Description>
single chemical compound

> <ChemNote>
stereochem

> <STRUCTURE_Shown>
tested chemical

> <STRUCTURE_Formula>
C10H14ClNO2

> <STRUCTURE_MW>
215.6767

> <STRUCTURE_ChemType>
defined organic

> <STRUCTURE_DefinedOrganicForm>
complex

> <STRUCTURE_IUPAC>
1-(1,3-benzodioxol-5-yl)propan-2-amine hydrochloride (1:1)

> <STRUCTURE_SMILES>
Cl.CC(N)Cc1ccc2OCOc2c1

> <STRUCTURE_SMILES_Desalt>
CC(N)Cc1ccc2OCOc2c1

> <Substance_modify_yyyymmdd>
20111204

$$$$
