62924-70-3
ChemmineR-0915142007XD

 28 29  0  0  0  0  0  0  0  0  2 V2000
    2.6400   -4.6143    0.0000 C    0  0  0  0  0  0  0  0  0  0  0  0
    1.9856   -5.7763    0.0000 C    0  0  0  0  0  0  0  0  0  0  0  0
    0.6543   -5.7763    0.0000 C    0  0  0  0  0  0  0  0  0  0  0  0
    0.0000   -4.6143    0.0000 C    0  0  0  0  0  0  0  0  0  0  0  0
    0.6543   -3.4635    0.0000 C    0  0  0  0  0  0  0  0  0  0  0  0
    1.9856   -3.4635    0.0000 C    0  0  0  0  0  0  0  0  0  0  0  0
    3.9712   -4.6143    0.0000 C    0  0  0  0  0  0  0  0  0  0  0  0
    4.6481   -3.4635    0.0000 N    0  0  0  0  0  0  0  0  0  0  0  0
    2.6400   -2.3128    0.0000 Cl   0  0  0  0  0  0  0  0  0  0  0  0
    5.9568   -3.4635    0.0000 C    0  0  0  0  0  0  0  0  0  0  0  0
    6.6337   -2.3128    0.0000 C    0  0  0  0  0  0  0  0  0  0  0  0
    6.6337   -4.6143    0.0000 C    0  0  0  0  0  0  0  0  0  0  0  0
    7.9650   -2.3128    0.0000 C    0  0  0  0  0  0  0  0  0  0  0  0
    7.9650   -4.6143    0.0000 C    0  0  0  0  0  0  0  0  0  0  0  0
    8.6419   -3.4635    0.0000 C    0  0  0  0  0  0  0  0  0  0  0  0
    5.9568   -1.1620    0.0000 N    0  3  0  0  0  0  0  0  0  0  0  0
    6.6337    0.0000    0.0000 O    0  5  0  0  0  0  0  0  0  0  0  0
    4.6481   -0.6882    0.0000 O    0  0  0  0  0  0  0  0  0  0  0  0
    5.9568   -5.7763    0.0000 N    0  3  0  0  0  0  0  0  0  0  0  0
    4.6481   -5.7763    0.0000 O    0  5  0  0  0  0  0  0  0  0  0  0
    6.6337   -6.9270    0.0000 O    0  0  0  0  0  0  0  0  0  0  0  0
    9.9506   -3.4635    0.0000 C    0  0  0  0  0  0  0  0  0  0  0  0
   11.2818   -3.4635    0.0000 F    0  0  0  0  0  0  0  0  0  0  0  0
    9.9506   -2.1323    0.0000 F    0  0  0  0  0  0  0  0  0  0  0  0
    9.9506   -4.7948    0.0000 F    0  0  0  0  0  0  0  0  0  0  0  0
    3.7230   -2.5723    0.0000 C    0  0  0  0  0  0  0  0  0  0  0  0
    3.7230   -1.2523    0.0000 C    0  0  0  0  0  0  0  0  0  0  0  0
    2.6400   -6.9270    0.0000 F    0  0  0  0  0  0  0  0  0  0  0  0
  1  2  1  0  0  0  0
  1  6  2  0  0  0  0
  1  7  1  0  0  0  0
  2  3  2  0  0  0  0
  2 28  1  0  0  0  0
  3  4  1  0  0  0  0
  4  5  2  0  0  0  0
  5  6  1  0  0  0  0
  6  9  1  0  0  0  0
  7  8  1  0  0  0  0
  8 10  1  0  0  0  0
  8 26  1  0  0  0  0
 10 11  2  0  0  0  0
 10 12  1  0  0  0  0
 11 13  1  0  0  0  0
 11 16  1  0  0  0  0
 12 14  2  0  0  0  0
 12 19  1  0  0  0  0
 13 15  2  0  0  0  0
 14 15  1  0  0  0  0
 15 22  1  0  0  0  0
 16 17  1  0  0  0  0
 16 18  2  0  0  0  0
 19 20  1  0  0  0  0
 19 21  2  0  0  0  0
 22 23  1  0  0  0  0
 22 24  1  0  0  0  0
 22 25  1  0  0  0  0
 26 27  1  0  0  0  0
M  END
> <ID>
6515

> <Formula>
C16H12ClF4N3O4

> <FW>
421.7308

> <DSSTox_CID>
12553

> <DSSTox_RID>
78982

> <DSSTox_GSID>
32553

> <DSSTox_FileID_Sort>
3664

> <TS_ChemName>
Flumetralin

> <TS_ChemName_Synonyms>


> <TS_CASRN>
62924-70-3

> <CASRN_ChemName_Relationship>
primary

> <TS_Description>
single chemical compound

> <ChemNote>


> <STRUCTURE_Shown>
tested chemical

> <STRUCTURE_Formula>
C16H12ClF4N3O4

> <STRUCTURE_MW>
421.7308

> <STRUCTURE_ChemType>
defined organic

> <STRUCTURE_DefinedOrganicForm>
parent

> <STRUCTURE_IUPAC>
N-(2-chloro-6-fluorobenzyl)-N-ethyl-2,6-dinitro-4-(trifluoromethyl)aniline

> <STRUCTURE_SMILES>
Clc2cccc(F)c2CN(CC)c1c(cc(cc1[N+]([O-])=O)C(F)(F)F)[N+]([O-])=O

> <STRUCTURE_SMILES_Desalt>
Clc2cccc(F)c2CN(CC)c1c(cc(cc1[N+]([O-])=O)C(F)(F)F)[N+]([O-])=O

> <Substance_modify_yyyymmdd>
20080429

$$$$
