63-05-8
ChemmineR-0915142007XD

 24 27  0  0  1  0  0  0  0  0  1 V2000
    3.4403   -2.3322    0.0000 C   0  0  0  0  0  0  0  0  0  0  0  0
    3.4403   -3.6547    0.0000 C   0  0  0  0  0  0  0  0  0  0  0  0
    2.2876   -3.0024    0.0000 C   0  0  0  0  0  0  0  0  0  0  0  0
    1.1527   -3.6547    0.0000 C   0  0  0  0  0  0  0  0  0  0  0  0
    1.1527   -4.9862    0.0000 C   0  0  0  0  0  0  0  0  0  0  0  0
    0.0000   -5.6564    0.0000 O   0  0  0  0  0  0  0  0  0  0  0  0
    2.2876   -5.6564    0.0000 C   0  0  0  0  0  0  0  0  0  0  0  0
    3.4403   -4.9862    0.0000 C   0  0  0  0  0  0  0  0  0  0  0  0
    4.5841   -5.6564    0.0000 C   0  0  0  0  0  0  0  0  0  0  0  0
    5.7368   -4.9862    0.0000 C   0  0  0  0  0  0  0  0  0  0  0  0
    5.7368   -3.6547    0.0000 C   0  0  0  0  0  0  0  0  0  0  0  0
    4.5841   -3.0024    0.0000 C   0  0  0  0  0  0  0  0  0  0  0  0
    4.5841   -1.6799    0.0000 C   0  0  0  0  0  0  0  0  0  0  0  0
    5.7368   -1.0008    0.0000 C   0  0  0  0  0  0  0  0  0  0  0  0
    6.8895   -1.6799    0.0000 C   0  0  0  0  0  0  0  0  0  0  0  0
    6.8538   -0.3664    0.0000 C   0  0  0  0  0  0  0  0  0  0  0  0
    8.1495   -1.2599    0.0000 C   0  0  0  0  0  0  0  0  0  0  0  0
    8.5694    0.0000    0.0000 O   0  0  0  0  0  0  0  0  0  0  0  0
    8.9358   -2.3322    0.0000 C   0  0  0  0  0  0  0  0  0  0  0  0
    8.1495   -3.4224    0.0000 C   0  0  0  0  0  0  0  0  0  0  0  0
    6.8895   -3.0024    0.0000 C   0  0  0  0  0  0  0  0  0  0  0  0
    4.5841   -4.2802    0.0000 H   0  0  0  0  0  0  0  0  0  0  0  0
    5.7100   -2.2340    0.0000 H   0  0  0  0  0  0  0  0  0  0  0  0
    6.8716   -4.3607    0.0000 H   0  0  0  0  0  0  0  0  0  0  0  0
  2  1  1  1  0  0  0
  2  3  1  0  0  0  0
  2  8  1  0  0  0  0
  2 12  1  0  0  0  0
  3  4  1  0  0  0  0
  4  5  1  0  0  0  0
  5  6  2  0  0  0  0
  5  7  1  0  0  0  0
  7  8  2  0  0  0  0
  8  9  1  0  0  0  0
  9 10  1  0  0  0  0
 10 11  1  0  0  0  0
 11 12  1  0  0  0  0
 11 21  1  0  0  0  0
 11 23  1  1  0  0  0
 12 13  1  0  0  0  0
 12 22  1  6  0  0  0
 13 14  1  0  0  0  0
 14 15  1  0  0  0  0
 15 16  1  1  0  0  0
 15 17  1  0  0  0  0
 15 21  1  0  0  0  0
 17 18  2  0  0  0  0
 17 19  1  0  0  0  0
 19 20  1  0  0  0  0
 20 21  1  0  0  0  0
 21 24  1  6  0  0  0
M  END
> <ID>
3731

> <Formula>
C19H26O2

> <FW>
286.4085

> <DSSTox_CID>
4523

> <DSSTox_RID>
77443

> <DSSTox_GSID>
24523

> <DSSTox_FileID_Sort>
2126

> <TS_ChemName>
4-Androstene-3,17-dione

> <TS_ChemName_Synonyms>
4-Androstene-3,17-dione (Androstenedione)

> <TS_CASRN>
63-05-8

> <CASRN_ChemName_Relationship>
primary

> <TS_Description>
single chemical compound

> <ChemNote>
stereochem

> <STRUCTURE_Shown>
tested chemical

> <STRUCTURE_Formula>
C19H26O2

> <STRUCTURE_MW>
286.4085

> <STRUCTURE_ChemType>
defined organic

> <STRUCTURE_DefinedOrganicForm>
parent

> <STRUCTURE_IUPAC>
androst-4-ene-3,17-dione

> <STRUCTURE_SMILES>
O=C2CC[C@H]3[C@@H]4CCC1=CC(=O)CC[C@]1(C)[C@H]4CC[C@]23C

> <STRUCTURE_SMILES_Desalt>
O=C2CC[C@H]3[C@@H]4CCC1=CC(=O)CC[C@]1(C)[C@H]4CC[C@]23C

> <Substance_modify_yyyymmdd>
20080429

$$$$
