63-12-7
ChemmineR-0915142007XD

 29 31  0  0  0  0  0  0  0  0  1 V2000
    9.9722   -3.4631    0.0000 C   0  0  0  0  0  0  0  0  0  0  0  0
   10.6421   -2.3003    0.0000 O   0  0  0  0  0  0  0  0  0  0  0  0
   11.9692   -2.3003    0.0000 C   0  0  0  0  0  0  0  0  0  0  0  0
   10.6421   -4.6133    0.0000 C   0  0  0  0  0  0  0  0  0  0  0  0
   11.9692   -4.6133    0.0000 O   0  0  0  0  0  0  0  0  0  0  0  0
   12.6391   -5.7634    0.0000 C   0  0  0  0  0  0  0  0  0  0  0  0
    9.9722   -5.7634    0.0000 C   0  0  0  0  0  0  0  0  0  0  0  0
    8.6451   -5.7634    0.0000 C   0  0  0  0  0  0  0  0  0  0  0  0
    7.9879   -4.6133    0.0000 C   0  0  0  0  0  0  0  0  0  0  0  0
    8.6451   -3.4631    0.0000 C   0  0  0  0  0  0  0  0  0  0  0  0
    6.6481   -4.6133    0.0000 C   0  0  0  0  0  0  0  0  0  0  0  0
    5.9909   -5.7634    0.0000 N   0  0  0  0  0  0  0  0  0  0  0  0
    6.6481   -6.9136    0.0000 C   0  0  0  0  0  0  0  0  0  0  0  0
    7.9879   -6.9136    0.0000 C   0  0  0  0  0  0  0  0  0  0  0  0
    4.6512   -5.7634    0.0000 C   0  0  0  0  0  0  0  0  0  0  0  0
    3.9939   -4.6133    0.0000 C   0  0  0  0  0  0  0  0  0  0  0  0
    2.6668   -4.6133    0.0000 C   0  0  0  0  0  0  0  0  0  0  0  0
    1.9970   -3.4631    0.0000 O   0  0  0  0  0  0  0  0  0  0  0  0
    1.9970   -5.7634    0.0000 N   0  0  0  0  0  0  0  0  0  0  0  0
    2.6668   -6.9136    0.0000 C   0  0  0  0  0  0  0  0  0  0  0  0
    3.9939   -6.9136    0.0000 C   0  0  0  0  0  0  0  0  0  0  0  0
    0.6699   -5.7634    0.0000 C   0  0  0  0  0  0  0  0  0  0  0  0
    0.0000   -6.9136    0.0000 C   0  0  0  0  0  0  0  0  0  0  0  0
    4.6512   -3.4631    0.0000 C   0  0  0  0  0  0  0  0  0  0  0  0
    3.9939   -2.3003    0.0000 O   0  0  0  0  0  0  0  0  0  0  0  0
    4.6512   -1.1502    0.0000 C   0  0  0  0  0  0  0  0  0  0  0  0
    3.9939    0.0000    0.0000 C   0  0  0  0  0  0  0  0  0  0  0  0
    5.9909   -1.1502    0.0000 O   0  0  0  0  0  0  0  0  0  0  0  0
    5.9909   -3.4631    0.0000 C   0  0  0  0  0  0  0  0  0  0  0  0
  1  2  1  0  0  0  0
  1  4  2  0  0  0  0
  1 10  1  0  0  0  0
  2  3  1  0  0  0  0
  4  5  1  0  0  0  0
  4  7  1  0  0  0  0
  5  6  1  0  0  0  0
  7  8  2  0  0  0  0
  8  9  1  0  0  0  0
  8 14  1  0  0  0  0
  9 10  2  0  0  0  0
  9 11  1  0  0  0  0
 11 12  1  0  0  0  0
 11 29  1  0  0  0  0
 12 13  1  0  0  0  0
 12 15  1  0  0  0  0
 13 14  1  0  0  0  0
 15 16  1  0  0  0  0
 16 17  1  0  0  0  0
 16 24  1  0  0  0  0
 17 18  2  0  0  0  0
 17 19  1  0  0  0  0
 19 20  1  0  0  0  0
 19 22  1  0  0  0  0
 20 21  1  0  0  0  0
 22 23  1  0  0  0  0
 24 25  1  0  0  0  0
 24 29  1  0  0  0  0
 25 26  1  0  0  0  0
 26 27  1  0  0  0  0
 26 28  2  0  0  0  0
M  END
> <ID>
2405

> <Formula>
C22H32N2O5

> <FW>
404.4999

> <DSSTox_CID>
2657

> <DSSTox_RID>
97537

> <DSSTox_GSID>
22657

> <DSSTox_FileID_Sort>
8311

> <TS_ChemName>
Benzquinamide

> <TS_ChemName_Synonyms>


> <TS_CASRN>
63-12-7

> <CASRN_ChemName_Relationship>
primary

> <TS_Description>
single chemical compound

> <ChemNote>


> <STRUCTURE_Shown>
tested chemical

> <STRUCTURE_Formula>
C22H32N2O5

> <STRUCTURE_MW>
404.4999

> <STRUCTURE_ChemType>
defined organic

> <STRUCTURE_DefinedOrganicForm>
parent

> <STRUCTURE_IUPAC>
3-(diethylcarbamoyl)-9,10-dimethoxy-1,3,4,6,7,11b-hexahydro-2H-pyrido[2,1-a]isoquinolin-2-yl acetate

> <STRUCTURE_SMILES>
CCN(CC)C(=O)C2CN3CCc1cc(OC)c(OC)cc1C3CC2OC(C)=O

> <STRUCTURE_SMILES_Desalt>
CCN(CC)C(=O)C2CN3CCc1cc(OC)c(OC)cc1C3CC2OC(C)=O

> <Substance_modify_yyyymmdd>
20080429

$$$$
