63-45-6
ChemmineR-0915142007XD

 29 28  0  0  0  0  0  0  0  0  1 V2000
    1.3281   -1.9752    0.0000 P   0  0  0  0  0  0  0  0  0  0  0  0
    0.0000   -1.9752    0.0000 O   0  0  0  0  0  0  0  0  0  0  0  0
    1.3281   -3.3033    0.0000 O   0  0  0  0  0  0  0  0  0  0  0  0
    1.3281   -0.6470    0.0000 O   0  0  0  0  0  0  0  0  0  0  0  0
    2.6563   -1.9752    0.0000 O   0  0  0  0  0  0  0  0  0  0  0  0
   10.4207   -3.9163    0.0000 C   0  0  0  0  0  0  0  0  0  0  0  0
   11.5446   -4.5633    0.0000 C   0  0  0  0  0  0  0  0  0  0  0  0
   10.4207   -2.5882    0.0000 N   0  0  0  0  0  0  0  0  0  0  0  0
    9.2629   -4.5633    0.0000 C   0  0  0  0  0  0  0  0  0  0  0  0
   11.5446   -5.9085    0.0000 C   0  0  0  0  0  0  0  0  0  0  0  0
   12.7024   -3.9163    0.0000 N   0  0  0  0  0  0  0  0  0  0  0  0
    9.2629   -5.9085    0.0000 C   0  0  0  0  0  0  0  0  0  0  0  0
   10.4207   -6.5726    0.0000 C   0  0  0  0  0  0  0  0  0  0  0  0
    4.6825   -1.8900    0.0000 N   0  0  0  0  0  0  0  0  0  0  0  0
    8.1050   -6.5896    0.0000 O   0  0  0  0  0  0  0  0  0  0  0  0
    9.2799   -1.9241    0.0000 C   0  0  0  0  0  0  0  0  0  0  0  0
   12.7024   -6.5726    0.0000 C   0  0  0  0  0  0  0  0  0  0  0  0
   13.8603   -4.5633    0.0000 C   0  0  0  0  0  0  0  0  0  0  0  0
    5.8404   -2.5711    0.0000 C   0  0  0  0  0  0  0  0  0  0  0  0
    6.9642   -5.9085    0.0000 C   0  0  0  0  0  0  0  0  0  0  0  0
    8.1221   -2.5882    0.0000 C   0  0  0  0  0  0  0  0  0  0  0  0
    9.2799   -0.5960    0.0000 C   0  0  0  0  0  0  0  0  0  0  0  0
    6.9982   -1.8900    0.0000 C   0  0  0  0  0  0  0  0  0  0  0  0
   13.8603   -5.9085    0.0000 C   0  0  0  0  0  0  0  0  0  0  0  0
   15.6822   -1.3111    0.0000 P   0  0  0  0  0  0  0  0  0  0  0  0
   14.3541   -1.2771    0.0000 O   0  0  0  0  0  0  0  0  0  0  0  0
   15.6652   -2.6392    0.0000 O   0  0  0  0  0  0  0  0  0  0  0  0
   17.0274   -1.3281    0.0000 O   0  0  0  0  0  0  0  0  0  0  0  0
   15.7163    0.0000    0.0000 O   0  0  0  0  0  0  0  0  0  0  0  0
  1  2  2  0  0  0  0
  1  3  1  0  0  0  0
  1  4  1  0  0  0  0
  1  5  1  0  0  0  0
  6  7  1  0  0  0  0
  6  8  1  0  0  0  0
  6  9  2  0  0  0  0
  7 10  1  0  0  0  0
  7 11  2  0  0  0  0
  8 16  1  0  0  0  0
  9 12  1  0  0  0  0
 10 17  2  0  0  0  0
 10 13  1  0  0  0  0
 11 18  1  0  0  0  0
 12 13  2  0  0  0  0
 12 15  1  0  0  0  0
 14 19  1  0  0  0  0
 15 20  1  0  0  0  0
 16 21  1  0  0  0  0
 16 22  1  0  0  0  0
 17 24  1  0  0  0  0
 18 24  2  0  0  0  0
 19 23  1  0  0  0  0
 21 23  1  0  0  0  0
 25 26  2  0  0  0  0
 25 27  1  0  0  0  0
 25 28  1  0  0  0  0
 25 29  1  0  0  0  0
M  END
> <ID>
10843

> <Formula>
C15H27N3O9P2

> <FW>
455.3371 (97.9952+259.3467+97.9952)

> <DSSTox_CID>
25248

> <DSSTox_RID>
80773

> <DSSTox_GSID>
45248

> <DSSTox_FileID_Sort>
5454

> <TS_ChemName>
Primaquine diphosphate

> <TS_ChemName_Synonyms>


> <TS_CASRN>
63-45-6

> <CASRN_ChemName_Relationship>
primary

> <TS_Description>
single chemical compound

> <ChemNote>
parent [90-34-6]

> <STRUCTURE_Shown>
tested chemical

> <STRUCTURE_Formula>
C15H27N3O9P2

> <STRUCTURE_MW>
455.3371

> <STRUCTURE_ChemType>
defined organic

> <STRUCTURE_DefinedOrganicForm>
complex

> <STRUCTURE_IUPAC>
N~4~-(6-methoxyquinolin-8-yl)pentane-1,4-diamine phosphate (1:2)

> <STRUCTURE_SMILES>
O=P(O)(O)O.O=P(O)(O)O.CC(CCCN)Nc1cc(cc2cccnc12)OC

> <STRUCTURE_SMILES_Desalt>
CC(CCCN)Nc1cc(cc2cccnc12)OC

> <Substance_modify_yyyymmdd>
20100107

$$$$
