63-42-3
ChemmineR-0915142007XD

 23 24  0  0  1  0  0  0  0  0  1 V2000
    5.9827   -4.6057    0.0000 C   0  0  0  0  0  0  0  0  0  0  0  0
    7.3133   -4.6057    0.0000 C   0  0  0  0  0  0  0  0  0  0  0  0
    7.9739   -5.7594    0.0000 C   0  0  0  0  0  0  0  0  0  0  0  0
    7.3133   -6.9132    0.0000 C   0  0  0  0  0  0  0  0  0  0  0  0
    5.9827   -6.9132    0.0000 C   0  0  0  0  0  0  0  0  0  0  0  0
    5.3128   -5.7594    0.0000 O   0  0  0  0  0  0  0  0  0  0  0  0
    5.3128   -8.0576    0.0000 C   0  0  0  0  0  0  0  0  0  0  0  0
    5.9827   -9.2114    0.0000 O   0  0  0  0  0  0  0  0  0  0  0  0
    7.9739   -8.0576    0.0000 O   0  0  0  0  0  0  0  0  0  0  0  0
    9.3044   -5.7594    0.0000 O   0  0  0  0  0  0  0  0  0  0  0  0
    7.9739   -3.4519    0.0000 O   0  0  0  0  0  0  0  0  0  0  0  0
    5.3128   -3.4519    0.0000 O   0  0  0  0  0  0  0  0  0  0  0  0
    3.9916   -3.4519    0.0000 C   0  0  0  0  0  0  0  0  0  0  0  0
    3.3217   -4.6057    0.0000 C   0  0  0  0  0  0  0  0  0  0  0  0
    1.9911   -4.6057    0.0000 C   0  0  0  0  0  0  0  0  0  0  0  0
    1.3305   -3.4519    0.0000 C   0  0  0  0  0  0  0  0  0  0  0  0
    1.9911   -2.3075    0.0000 O   0  0  0  0  0  0  0  0  0  0  0  0
    3.3217   -2.3075    0.0000 C   0  0  0  0  0  0  0  0  0  0  0  0
    3.9916   -1.1537    0.0000 C   0  0  0  0  0  0  0  0  0  0  0  0
    3.3217    0.0000    0.0000 O   0  0  0  0  0  0  0  0  0  0  0  0
    0.0000   -3.4519    0.0000 O   0  0  0  0  0  0  0  0  0  0  0  0
    1.3305   -5.7594    0.0000 O   0  0  0  0  0  0  0  0  0  0  0  0
    3.9916   -5.7594    0.0000 O   0  0  0  0  0  0  0  0  0  0  0  0
  1  2  1  0  0  0  0
  1  6  1  0  0  0  0
  1 12  1  1  0  0  0
  2  3  1  0  0  0  0
  2 11  1  6  0  0  0
  3  4  1  0  0  0  0
  3 10  1  1  0  0  0
  4  5  1  0  0  0  0
  4  9  1  1  0  0  0
  5  6  1  0  0  0  0
  5  7  1  1  0  0  0
  7  8  1  0  0  0  0
 13 12  1  1  0  0  0
 13 14  1  0  0  0  0
 13 18  1  0  0  0  0
 14 15  1  0  0  0  0
 14 23  1  6  0  0  0
 15 16  1  0  0  0  0
 15 22  1  1  0  0  0
 16 17  1  0  0  0  0
 16 21  1  6  0  0  0
 17 18  1  0  0  0  0
 18 19  1  6  0  0  0
 19 20  1  0  0  0  0
M  END
> <ID>
2869

> <Formula>
C12H22O11

> <FW>
342.2965

> <DSSTox_CID>
3193

> <DSSTox_RID>
76916

> <DSSTox_GSID>
23193

> <DSSTox_FileID_Sort>
1600

> <TS_ChemName>
Lactose

> <TS_ChemName_Synonyms>


> <TS_CASRN>
63-42-3

> <CASRN_ChemName_Relationship>
primary

> <TS_Description>
single chemical compound

> <ChemNote>
stereochem

> <STRUCTURE_Shown>
tested chemical

> <STRUCTURE_Formula>
C12H22O11

> <STRUCTURE_MW>
342.2965

> <STRUCTURE_ChemType>
defined organic

> <STRUCTURE_DefinedOrganicForm>
parent

> <STRUCTURE_IUPAC>
4-O-beta-D-galactopyranosyl-beta-D-glucopyranose

> <STRUCTURE_SMILES>
O[C@H]2[C@H](O[C@@H]1O[C@H](CO)[C@H](O)[C@H](O)[C@H]1O)[C@@H](CO)O[C@@H](O)[C@@H]2O

> <STRUCTURE_SMILES_Desalt>
O[C@H]2[C@H](O[C@@H]1O[C@H](CO)[C@H](O)[C@H](O)[C@H]1O)[C@@H](CO)O[C@@H](O)[C@@H]2O

> <Substance_modify_yyyymmdd>
20080429

$$$$
