63-74-1
ChemmineR-0915142007XD

 11 11  0  0  0  0  0  0  0  0  1 V2000
    1.3304   -1.3304    0.0000 S   0  0  0  0  0  0  0  0  0  0  0  0
    2.6609   -1.3304    0.0000 C   0  0  0  0  0  0  0  0  0  0  0  0
    1.3304   -2.6609    0.0000 O   0  0  0  0  0  0  0  0  0  0  0  0
    1.3304    0.0000    0.0000 O   0  0  0  0  0  0  0  0  0  0  0  0
    0.0000   -1.3304    0.0000 N   0  0  0  0  0  0  0  0  0  0  0  0
    3.3327   -0.1796    0.0000 C   0  0  0  0  0  0  0  0  0  0  0  0
    3.3327   -2.4812    0.0000 C   0  0  0  0  0  0  0  0  0  0  0  0
    5.3217   -1.3304    0.0000 C   0  0  0  0  0  0  0  0  0  0  0  0
    6.6521   -1.3304    0.0000 N   0  0  0  0  0  0  0  0  0  0  0  0
    4.6631   -0.1796    0.0000 C   0  0  0  0  0  0  0  0  0  0  0  0
    4.6631   -2.4812    0.0000 C   0  0  0  0  0  0  0  0  0  0  0  0
  1  2  1  0  0  0  0
  1  3  2  0  0  0  0
  1  4  2  0  0  0  0
  1  5  1  0  0  0  0
  2  6  2  0  0  0  0
  2  7  1  0  0  0  0
  6 10  1  0  0  0  0
  7 11  2  0  0  0  0
  8 11  1  0  0  0  0
  8  9  1  0  0  0  0
  8 10  2  0  0  0  0
M  END
> <ID>
3239

> <Formula>
C6H8N2O2S

> <FW>
172.2049

> <DSSTox_CID>
3622

> <DSSTox_RID>
77115

> <DSSTox_GSID>
23622

> <DSSTox_FileID_Sort>
1798

> <TS_ChemName>
Sulfanilamide

> <TS_ChemName_Synonyms>


> <TS_CASRN>
63-74-1

> <CASRN_ChemName_Relationship>
primary

> <TS_Description>
single chemical compound

> <ChemNote>


> <STRUCTURE_Shown>
tested chemical

> <STRUCTURE_Formula>
C6H8N2O2S

> <STRUCTURE_MW>
172.2049

> <STRUCTURE_ChemType>
defined organic

> <STRUCTURE_DefinedOrganicForm>
parent

> <STRUCTURE_IUPAC>
4-aminobenzenesulfonamide

> <STRUCTURE_SMILES>
Nc1ccc(cc1)S(=O)(N)=O

> <STRUCTURE_SMILES_Desalt>
Nc1ccc(cc1)S(=O)(N)=O

> <Substance_modify_yyyymmdd>
20080429

$$$$
