63-89-8
ChemmineR-0915142007XD

 50 49  0  0  1  0  0  0  0  0  2 V2000
    0.0000    0.0000    0.0000 C   0  0  0  0  0  0  0  0  0  0  0  0
    1.3360    0.0000    0.0000 C   0  0  0  0  0  0  0  0  0  0  0  0
    2.0040   -1.1381    0.0000 C   0  0  0  0  0  0  0  0  0  0  0  0
    3.3152   -1.1381    0.0000 C   0  0  0  0  0  0  0  0  0  0  0  0
    3.9832   -2.3009    0.0000 C   0  0  0  0  0  0  0  0  0  0  0  0
    5.3192   -2.3009    0.0000 C   0  0  0  0  0  0  0  0  0  0  0  0
    5.9872   -3.4389    0.0000 C   0  0  0  0  0  0  0  0  0  0  0  0
    7.3232   -3.4389    0.0000 C   0  0  0  0  0  0  0  0  0  0  0  0
    7.9912   -4.6017    0.0000 C   0  0  0  0  0  0  0  0  0  0  0  0
    9.3024   -4.6017    0.0000 C   0  0  0  0  0  0  0  0  0  0  0  0
    9.9704   -5.7645    0.0000 C   0  0  0  0  0  0  0  0  0  0  0  0
   11.3064   -5.7645    0.0000 C   0  0  0  0  0  0  0  0  0  0  0  0
   11.9744   -6.9026    0.0000 C   0  0  0  0  0  0  0  0  0  0  0  0
   13.3104   -6.9026    0.0000 C   0  0  0  0  0  0  0  0  0  0  0  0
   13.9784   -8.0654    0.0000 C   0  0  0  0  0  0  0  0  0  0  0  0
   15.2896   -8.0654    0.0000 C   0  0  0  0  0  0  0  0  0  0  0  0
   15.9576   -6.9026    0.0000 O   0  0  0  0  0  0  0  0  0  0  0  0
   15.9576   -9.2034    0.0000 O   0  0  0  0  0  0  0  0  0  0  0  0
   17.2936   -9.2034    0.0000 C   0  0  0  0  0  0  0  0  0  0  0  0
   17.9616  -10.3662    0.0000 C   0  0  0  0  0  0  0  0  0  0  0  0
   19.2976  -10.3662    0.0000 C   0  0  0  0  0  0  0  0  0  0  0  0
   19.9655   -9.2034    0.0000 O   0  0  0  0  0  0  0  0  0  0  0  0
   21.2768   -9.2034    0.0000 P   0  0  0  0  0  0  0  0  0  0  0  0
   22.6128   -9.2034    0.0000 O   0  5  0  0  0  0  0  0  0  0  0  0
   21.2768  -10.5394    0.0000 O   0  0  0  0  0  0  0  0  0  0  0  0
   21.2768   -7.8922    0.0000 O   0  0  0  0  0  0  0  0  0  0  0  0
   22.4396   -7.2242    0.0000 C   0  0  0  0  0  0  0  0  0  0  0  0
   22.4396   -5.8882    0.0000 C   0  0  0  0  0  0  0  0  0  0  0  0
   23.5776   -5.2202    0.0000 N   0  3  0  0  0  0  0  0  0  0  0  0
   22.9344   -4.0574    0.0000 C   0  0  0  0  0  0  0  0  0  0  0  0
   24.7404   -4.5522    0.0000 C   0  0  0  0  0  0  0  0  0  0  0  0
   24.2456   -6.3830    0.0000 C   0  0  0  0  0  0  0  0  0  0  0  0
   17.2936  -11.5043    0.0000 O   0  0  0  0  0  0  0  0  0  0  0  0
   15.9576  -11.5043    0.0000 C   0  0  0  0  0  0  0  0  0  0  0  0
   15.2896  -10.3662    0.0000 O   0  0  0  0  0  0  0  0  0  0  0  0
   15.2896  -12.6671    0.0000 C   0  0  0  0  0  0  0  0  0  0  0  0
   13.9784  -12.6671    0.0000 C   0  0  0  0  0  0  0  0  0  0  0  0
   13.3104  -11.5043    0.0000 C   0  0  0  0  0  0  0  0  0  0  0  0
   11.9744  -11.5043    0.0000 C   0  0  0  0  0  0  0  0  0  0  0  0
   11.3064  -10.3662    0.0000 C   0  0  0  0  0  0  0  0  0  0  0  0
    9.9704  -10.3662    0.0000 C   0  0  0  0  0  0  0  0  0  0  0  0
    9.3024   -9.2034    0.0000 C   0  0  0  0  0  0  0  0  0  0  0  0
    7.9912   -9.2034    0.0000 C   0  0  0  0  0  0  0  0  0  0  0  0
    7.3232   -8.0654    0.0000 C   0  0  0  0  0  0  0  0  0  0  0  0
    5.9872   -8.0654    0.0000 C   0  0  0  0  0  0  0  0  0  0  0  0
    5.3192   -6.9026    0.0000 C   0  0  0  0  0  0  0  0  0  0  0  0
    3.9832   -6.9026    0.0000 C   0  0  0  0  0  0  0  0  0  0  0  0
    3.3152   -5.7645    0.0000 C   0  0  0  0  0  0  0  0  0  0  0  0
    2.0040   -5.7645    0.0000 C   0  0  0  0  0  0  0  0  0  0  0  0
    1.3360   -4.6017    0.0000 C   0  0  0  0  0  0  0  0  0  0  0  0
  1  2  1  0  0  0  0
  2  3  1  0  0  0  0
  3  4  1  0  0  0  0
  4  5  1  0  0  0  0
  5  6  1  0  0  0  0
  6  7  1  0  0  0  0
  7  8  1  0  0  0  0
  8  9  1  0  0  0  0
  9 10  1  0  0  0  0
 10 11  1  0  0  0  0
 11 12  1  0  0  0  0
 12 13  1  0  0  0  0
 13 14  1  0  0  0  0
 14 15  1  0  0  0  0
 15 16  1  0  0  0  0
 16 17  2  0  0  0  0
 16 18  1  0  0  0  0
 18 19  1  0  0  0  0
 20 19  1  6  0  0  0
 20 21  1  0  0  0  0
 20 33  1  0  0  0  0
 21 22  1  0  0  0  0
 22 23  1  0  0  0  0
 23 24  1  0  0  0  0
 23 25  2  0  0  0  0
 23 26  1  0  0  0  0
 26 27  1  0  0  0  0
 27 28  1  0  0  0  0
 28 29  1  0  0  0  0
 29 30  1  0  0  0  0
 29 31  1  0  0  0  0
 29 32  1  0  0  0  0
 33 34  1  0  0  0  0
 34 35  2  0  0  0  0
 34 36  1  0  0  0  0
 36 37  1  0  0  0  0
 37 38  1  0  0  0  0
 38 39  1  0  0  0  0
 39 40  1  0  0  0  0
 40 41  1  0  0  0  0
 41 42  1  0  0  0  0
 42 43  1  0  0  0  0
 43 44  1  0  0  0  0
 44 45  1  0  0  0  0
 45 46  1  0  0  0  0
 46 47  1  0  0  0  0
 47 48  1  0  0  0  0
 48 49  1  0  0  0  0
 49 50  1  0  0  0  0
M  END
> <ID>
11914

> <Formula>
C40H80NO8P

> <FW>
734.0389

> <DSSTox_CID>
26720

> <DSSTox_RID>
81850

> <DSSTox_GSID>
46720

> <DSSTox_FileID_Sort>
6531

> <TS_ChemName>
Colfosceril palmitate

> <TS_ChemName_Synonyms>


> <TS_CASRN>
63-89-8

> <CASRN_ChemName_Relationship>
primary

> <TS_Description>
single chemical compound

> <ChemNote>
absolute stereochem; rotation (+); ammonium

> <STRUCTURE_Shown>
tested chemical

> <STRUCTURE_Formula>
C40H80NO8P

> <STRUCTURE_MW>
734.0389

> <STRUCTURE_ChemType>
defined organic

> <STRUCTURE_DefinedOrganicForm>
parent

> <STRUCTURE_IUPAC>
(2R)-2,3-bis(hexadecanoyloxy)propyl 2-(trimethylammonio)ethyl phosphate

> <STRUCTURE_SMILES>
C[N+](C)(C)CCOP([O-])(=O)OC[C@@H](COC(=O)CCCCCCCCCCCCCCC)OC(=O)CCCCCCCCCCCCCCC

> <STRUCTURE_SMILES_Desalt>
C[N+](C)(C)CCOP(O)(=O)OC[C@@H](COC(=O)CCCCCCCCCCCCCCC)OC(=O)CCCCCCCCCCCCCCC

> <Substance_modify_yyyymmdd>
20110804

$$$$
