630-60-4
ChemmineR-0915142007XD

 43 48  0  0  1  0  0  0  0  0  1 V2000
   11.3889   -4.9741    0.0000 C   0  0  0  0  0  0  0  0  0  0  0  0
   11.3889   -6.2652    0.0000 C   0  0  0  0  0  0  0  0  0  0  0  0
    9.1057   -6.2652    0.0000 C   0  0  0  0  0  0  0  0  0  0  0  0
   10.2609   -6.9040    0.0000 C   0  0  0  0  0  0  0  0  0  0  0  0
    7.9777   -6.9040    0.0000 C   0  0  0  0  0  0  0  0  0  0  0  0
   10.2609   -4.3218    0.0000 C   0  0  0  0  0  0  0  0  0  0  0  0
    9.1057   -4.9741    0.0000 C   0  0  0  0  0  0  0  0  0  0  0  0
   10.2609   -8.2087    0.0000 C   0  0  0  0  0  0  0  0  0  0  0  0
    7.9777   -8.2087    0.0000 C   0  0  0  0  0  0  0  0  0  0  0  0
    9.1057   -8.9018    0.0000 C   0  0  0  0  0  0  0  0  0  0  0  0
   11.3889   -3.6287    0.0000 C   0  0  0  0  0  0  0  0  0  0  0  0
    7.9777   -5.6129    0.0000 C   0  0  0  0  0  0  0  0  0  0  0  0
    6.8632   -6.2652    0.0000 C   0  0  0  0  0  0  0  0  0  0  0  0
    6.8632   -8.9018    0.0000 C   0  0  0  0  0  0  0  0  0  0  0  0
    5.7216   -6.9040    0.0000 C   0  0  0  0  0  0  0  0  0  0  0  0
    5.7216   -8.2087    0.0000 C   0  0  0  0  0  0  0  0  0  0  0  0
   11.3889   -7.5971    0.0000 O   0  0  0  0  0  0  0  0  0  0  0  0
   10.2880   -5.5721    0.0000 H   0  0  0  0  0  0  0  0  0  0  0  0
    9.1057   -7.5971    0.0000 H   0  0  0  0  0  0  0  0  0  0  0  0
   13.5905   -6.2652    0.0000 C   0  0  0  0  0  0  0  0  0  0  0  0
   12.4897   -4.3218    0.0000 C   0  0  0  0  0  0  0  0  0  0  0  0
   13.5905   -4.9741    0.0000 C   0  0  0  0  0  0  0  0  0  0  0  0
   12.4897   -3.0307    0.0000 C   0  0  0  0  0  0  0  0  0  0  0  0
   11.4297   -2.2696    0.0000 C   0  0  0  0  0  0  0  0  0  0  0  0
   13.5498   -2.2696    0.0000 C   0  0  0  0  0  0  0  0  0  0  0  0
   11.8510   -1.0329    0.0000 C   0  0  0  0  0  0  0  0  0  0  0  0
   13.1285   -1.0329    0.0000 O   0  0  0  0  0  0  0  0  0  0  0  0
   11.0627    0.0000    0.0000 O   0  0  0  0  0  0  0  0  0  0  0  0
    7.9641   -4.3218    0.0000 O   0  0  0  0  0  0  0  0  0  0  0  0
    6.8632   -4.9606    0.0000 O   0  0  0  0  0  0  0  0  0  0  0  0
    5.7352   -5.6129    0.0000 O   0  0  0  0  0  0  0  0  0  0  0  0
    4.5664   -8.9426    0.0000 O   0  0  0  0  0  0  0  0  0  0  0  0
    3.4248   -8.2766    0.0000 C   0  0  0  0  0  0  0  0  0  0  0  0
    2.2832   -8.9290    0.0000 C   0  0  0  0  0  0  0  0  0  0  0  0
    3.4248   -6.9448    0.0000 O   0  0  0  0  0  0  0  0  0  0  0  0
    1.1416   -8.2495    0.0000 C   0  0  0  0  0  0  0  0  0  0  0  0
    2.2968   -6.2652    0.0000 C   0  0  0  0  0  0  0  0  0  0  0  0
    1.1416   -6.9312    0.0000 C   0  0  0  0  0  0  0  0  0  0  0  0
    2.2968   -4.9606    0.0000 C   0  0  0  0  0  0  0  0  0  0  0  0
    0.0000   -6.2652    0.0000 O   0  0  0  0  0  0  0  0  0  0  0  0
    0.0000   -8.9154    0.0000 O   0  0  0  0  0  0  0  0  0  0  0  0
    2.2832  -10.2337    0.0000 O   0  0  0  0  0  0  0  0  0  0  0  0
    7.9777   -9.5270    0.0000 O   0  0  0  0  0  0  0  0  0  0  0  0
  1  6  1  0  0  0  0
  1 11  1  1  0  0  0
  1  2  1  0  0  0  0
  1 21  1  0  0  0  0
  2  4  1  0  0  0  0
  2 17  1  1  0  0  0
  2 20  1  0  0  0  0
  3  7  1  0  0  0  0
  3  5  1  0  0  0  0
  3  4  1  0  0  0  0
  3 19  1  6  0  0  0
  4  8  1  0  0  0  0
  4 18  1  1  0  0  0
  5  9  1  0  0  0  0
  5 12  1  1  0  0  0
  5 13  1  0  0  0  0
  6  7  1  0  0  0  0
  7 29  1  6  0  0  0
  8 10  1  0  0  0  0
  9 14  1  0  0  0  0
  9 10  1  0  0  0  0
  9 43  1  1  0  0  0
 12 30  1  0  0  0  0
 13 15  1  0  0  0  0
 13 31  1  1  0  0  0
 14 16  1  0  0  0  0
 15 16  1  0  0  0  0
 16 32  1  1  0  0  0
 20 22  1  0  0  0  0
 21 22  1  0  0  0  0
 21 23  1  1  0  0  0
 23 24  2  0  0  0  0
 23 25  1  0  0  0  0
 24 26  1  0  0  0  0
 25 27  1  0  0  0  0
 26 27  1  0  0  0  0
 26 28  2  0  0  0  0
 33 32  1  1  0  0  0
 33 34  1  0  0  0  0
 33 35  1  0  0  0  0
 34 36  1  0  0  0  0
 34 42  1  6  0  0  0
 35 37  1  0  0  0  0
 36 38  1  0  0  0  0
 36 41  1  6  0  0  0
 37 38  1  0  0  0  0
 37 39  1  6  0  0  0
 38 40  1  1  0  0  0
M  END
> <ID>
9601

> <Formula>
C29H44O12

> <FW>
584.6525

> <DSSTox_CID>
23765

> <DSSTox_RID>
80072

> <DSSTox_GSID>
43765

> <DSSTox_FileID_Sort>
4754

> <TS_ChemName>
Ouabain

> <TS_ChemName_Synonyms>


> <TS_CASRN>
630-60-4

> <CASRN_ChemName_Relationship>
primary

> <TS_Description>
single chemical compound

> <ChemNote>
stereochem

> <STRUCTURE_Shown>
tested chemical

> <STRUCTURE_Formula>
C29H44O12

> <STRUCTURE_MW>
584.6525

> <STRUCTURE_ChemType>
defined organic

> <STRUCTURE_DefinedOrganicForm>
parent

> <STRUCTURE_IUPAC>
(1beta,3beta,5beta,11alpha)-3-[(6-deoxy-alpha-L-mannopyranosyl)oxy]-1,5,11,14,19-pentahydroxycard-20(22)-enolide

> <STRUCTURE_SMILES>
O=C1C=C(CO1)[C@H]2CC[C@]3(O)[C@@H]4CC[C@]5(O)C[C@H](C[C@@H](O)[C@]5(CO)[C@H]4[C@H](O)C[C@]23C)O[C@@H]6O[C@@H](C)[C@H](O)[C@@H](O)[C@H]6O

> <STRUCTURE_SMILES_Desalt>
O=C1C=C(CO1)[C@H]2CC[C@]3(O)[C@@H]4CC[C@]5(O)C[C@H](C[C@@H](O)[C@]5(CO)[C@H]4[C@H](O)C[C@]23C)O[C@@H]6O[C@@H](C)[C@H](O)[C@@H](O)[C@H]6O

> <Substance_modify_yyyymmdd>
20081229

$$$$
