630-10-4
ChemmineR-0915142007XD

  4  3  0  0  0  0  0  0  0  0  1 V2000
    1.1584    0.0000    0.0000 N    0  0  0  0  0  0  0  0  0  0  0  0
    2.3077   -1.9915    0.0000 N    0  0  0  0  0  0  0  0  0  0  0  0
    1.1584   -1.3292    0.0000 C    0  0  0  0  0  0  0  0  0  0  0  0
    0.0000   -1.9915    0.0000 Se   0  0  0  0  0  0  0  0  0  0  0  0
  1  3  1  0  0  0  0
  2  3  1  0  0  0  0
  3  4  2  0  0  0  0
M  END
> <ID>
3610

> <Formula>
CH4N2Se

> <FW>
123.0159

> <DSSTox_CID>
4303

> <DSSTox_RID>
77361

> <DSSTox_GSID>
24303

> <DSSTox_FileID_Sort>
2044

> <TS_ChemName>
Selenourea

> <TS_ChemName_Synonyms>


> <TS_CASRN>
630-10-4

> <CASRN_ChemName_Relationship>
primary

> <TS_Description>
single chemical compound

> <ChemNote>
tautomers

> <STRUCTURE_Shown>
tested chemical

> <STRUCTURE_Formula>
CH4N2Se

> <STRUCTURE_MW>
123.0159

> <STRUCTURE_ChemType>
organometallic

> <STRUCTURE_DefinedOrganicForm>


> <STRUCTURE_IUPAC>
selenourea

> <STRUCTURE_SMILES>
NC(N)=[Se]

> <STRUCTURE_SMILES_Desalt>
NC(N)=[Se]

> <Substance_modify_yyyymmdd>
20080429

$$$$
