630-16-0
ChemmineR-0915142007XD

  6  5  0  0  0  0  0  0  0  0  1 V2000
    0.4870    0.0000    0.0000 Br   0  0  0  0  0  0  0  0  0  0  0  0
    1.1503   -1.1537    0.0000 C    0  0  0  0  0  0  0  0  0  0  0  0
    1.8169   -2.3040    0.0000 Br   0  0  0  0  0  0  0  0  0  0  0  0
    0.0000   -1.8169    0.0000 Br   0  0  0  0  0  0  0  0  0  0  0  0
    2.3040   -0.4870    0.0000 C    0  0  0  0  0  0  0  0  0  0  0  0
    3.4542   -1.1537    0.0000 Br   0  0  0  0  0  0  0  0  0  0  0  0
  1  2  1  0  0  0  0
  2  3  1  0  0  0  0
  2  4  1  0  0  0  0
  2  5  1  0  0  0  0
  5  6  1  0  0  0  0
M  END
> <ID>
4532

> <Formula>
C2H2Br4

> <FW>
345.6533

> <DSSTox_CID>
6082

> <DSSTox_RID>
78009

> <DSSTox_GSID>
26082

> <DSSTox_FileID_Sort>
2692

> <TS_ChemName>
1,1,1,2-Tetrabromoethane

> <TS_ChemName_Synonyms>


> <TS_CASRN>
630-16-0

> <CASRN_ChemName_Relationship>
primary

> <TS_Description>
single chemical compound

> <ChemNote>


> <STRUCTURE_Shown>
tested chemical

> <STRUCTURE_Formula>
C2H2Br4

> <STRUCTURE_MW>
345.6533

> <STRUCTURE_ChemType>
defined organic

> <STRUCTURE_DefinedOrganicForm>
parent

> <STRUCTURE_IUPAC>
1,1,1,2-tetrabromoethane

> <STRUCTURE_SMILES>
BrC(Br)(Br)CBr

> <STRUCTURE_SMILES_Desalt>
BrC(Br)(Br)CBr

> <Substance_modify_yyyymmdd>
20080429

$$$$
