630-93-3
ChemmineR-0915142007XD

 20 21  0  0  0  0  0  0  0  0  2 V2000
    2.3418   -3.8598    0.0000 C    0  0  0  0  0  0  0  0  0  0  0  0
    2.7366   -5.0783    0.0000 N    0  5  0  0  0  0  0  0  0  0  0  0
    3.3901   -3.0838    0.0000 C    0  0  0  0  0  0  0  0  0  0  0  0
    4.0368   -5.0783    0.0000 C    0  0  0  0  0  0  0  0  0  0  0  0
    4.4453   -3.8598    0.0000 N    0  0  0  0  0  0  0  0  0  0  0  0
    1.0892   -3.4514    0.0000 O    0  0  0  0  0  0  0  0  0  0  0  0
    4.8129   -6.1403    0.0000 O    0  0  0  0  0  0  0  0  0  0  0  0
    4.5610   -1.9265    0.0000 C    0  0  0  0  0  0  0  0  0  0  0  0
    2.2465   -1.9742    0.0000 C    0  0  0  0  0  0  0  0  0  0  0  0
    6.8074   -0.6331    0.0000 C    0  0  0  0  0  0  0  0  0  0  0  0
    6.8074   -1.9265    0.0000 C    0  0  0  0  0  0  0  0  0  0  0  0
    5.6842    0.0000    0.0000 C    0  0  0  0  0  0  0  0  0  0  0  0
    5.6842   -2.5936    0.0000 C    0  0  0  0  0  0  0  0  0  0  0  0
    4.5610   -0.6331    0.0000 C    0  0  0  0  0  0  0  0  0  0  0  0
    1.1368   -2.6277    0.0000 C    0  0  0  0  0  0  0  0  0  0  0  0
    2.2465   -0.6807    0.0000 C    0  0  0  0  0  0  0  0  0  0  0  0
    0.0000   -1.9742    0.0000 C    0  0  0  0  0  0  0  0  0  0  0  0
    1.1368   -0.0136    0.0000 C    0  0  0  0  0  0  0  0  0  0  0  0
    0.0000   -0.6807    0.0000 C    0  0  0  0  0  0  0  0  0  0  0  0
    1.5044   -5.7455    0.0000 Na   0  3  0  0  0  0  0  0  0  0  0  0
  1  2  1  0  0  0  0
  1  3  1  0  0  0  0
  1  6  2  0  0  0  0
  2  4  1  0  0  0  0
  3  5  1  0  0  0  0
  3  8  1  0  0  0  0
  3  9  1  0  0  0  0
  4  7  2  0  0  0  0
  4  5  1  0  0  0  0
  8 13  1  0  0  0  0
  8 14  2  0  0  0  0
  9 15  1  0  0  0  0
  9 16  2  0  0  0  0
 10 11  1  0  0  0  0
 10 12  2  0  0  0  0
 11 13  2  0  0  0  0
 12 14  1  0  0  0  0
 15 17  2  0  0  0  0
 16 18  1  0  0  0  0
 17 19  1  0  0  0  0
 18 19  2  0  0  0  0
M  END
> <ID>
3360

> <Formula>
C15H11N2NaO2

> <FW>
274.2498 (251.2606+22.9892)

> <DSSTox_CID>
3775

> <DSSTox_RID>
77190

> <DSSTox_GSID>
23775

> <DSSTox_FileID_Sort>
1873

> <TS_ChemName>
Diphenylhydantoin sodium

> <TS_ChemName_Synonyms>


> <TS_CASRN>
630-93-3

> <CASRN_ChemName_Relationship>
primary

> <TS_Description>
single chemical compound

> <ChemNote>
parent [57-41-0]

> <STRUCTURE_Shown>
tested chemical

> <STRUCTURE_Formula>
C15H11N2NaO2

> <STRUCTURE_MW>
274.2498

> <STRUCTURE_ChemType>
defined organic

> <STRUCTURE_DefinedOrganicForm>
salt

> <STRUCTURE_IUPAC>
sodium 2,5-dioxo-4,4-diphenylimidazolidin-1-ide

> <STRUCTURE_SMILES>
[Na+].O=C1[N-]C(=O)C(N1)(c2ccccc2)c3ccccc3

> <STRUCTURE_SMILES_Desalt>
O=C1NC(=O)C(N1)(c2ccccc2)c3ccccc3

> <Substance_modify_yyyymmdd>
20080429

$$$$
