630-56-8
ChemmineR-0915142007XD

 34 37  0  0  1  0  0  0  0  0  1 V2000
    7.0541   -2.2250    0.0000 C   0  0  0  0  0  0  0  0  0  0  0  0
    8.3562   -1.7965    0.0000 C   0  0  0  0  0  0  0  0  0  0  0  0
    3.5600   -4.2358    0.0000 C   0  0  0  0  0  0  0  0  0  0  0  0
    7.0541   -3.5765    0.0000 C   0  0  0  0  0  0  0  0  0  0  0  0
    3.5600   -5.6037    0.0000 C   0  0  0  0  0  0  0  0  0  0  0  0
    4.7137   -3.5765    0.0000 C   0  0  0  0  0  0  0  0  0  0  0  0
    5.9004   -4.2358    0.0000 C   0  0  0  0  0  0  0  0  0  0  0  0
    2.3898   -6.2630    0.0000 C   0  0  0  0  0  0  0  0  0  0  0  0
    5.9004   -1.5328    0.0000 C   0  0  0  0  0  0  0  0  0  0  0  0
    9.1473   -2.9008    0.0000 C   0  0  0  0  0  0  0  0  0  0  0  0
    9.5758   -1.7965    0.0000 O   0  0  0  0  0  0  0  0  0  0  0  0
    8.3397   -3.9886    0.0000 C   0  0  0  0  0  0  0  0  0  0  0  0
    4.7137   -2.2250    0.0000 C   0  0  0  0  0  0  0  0  0  0  0  0
    2.3898   -3.5765    0.0000 C   0  0  0  0  0  0  0  0  0  0  0  0
    8.3562   -0.5933    0.0000 C   0  0  0  0  0  0  0  0  0  0  0  0
    5.9004   -5.6037    0.0000 C   0  0  0  0  0  0  0  0  0  0  0  0
   10.7625   -2.4722    0.0000 C   0  0  0  0  0  0  0  0  0  0  0  0
    4.7137   -6.2630    0.0000 C   0  0  0  0  0  0  0  0  0  0  0  0
    1.2032   -5.6037    0.0000 C   0  0  0  0  0  0  0  0  0  0  0  0
   10.7625   -3.7908    0.0000 O   0  0  0  0  0  0  0  0  0  0  0  0
    9.3945    0.0000    0.0000 O   0  0  0  0  0  0  0  0  0  0  0  0
    0.0000   -6.2630    0.0000 O   0  0  0  0  0  0  0  0  0  0  0  0
    1.2032   -4.2358    0.0000 C   0  0  0  0  0  0  0  0  0  0  0  0
    7.0541   -0.8570    0.0000 C   0  0  0  0  0  0  0  0  0  0  0  0
    3.5600   -2.9008    0.0000 C   0  0  0  0  0  0  0  0  0  0  0  0
   11.9162   -1.8130    0.0000 C   0  0  0  0  0  0  0  0  0  0  0  0
    7.3178    0.0000    0.0000 C   0  0  0  0  0  0  0  0  0  0  0  0
   13.0370   -2.4887    0.0000 C   0  0  0  0  0  0  0  0  0  0  0  0
   15.3444   -2.5052    0.0000 C   0  0  0  0  0  0  0  0  0  0  0  0
   14.2072   -1.8295    0.0000 C   0  0  0  0  0  0  0  0  0  0  0  0
   16.4816   -1.8459    0.0000 C   0  0  0  0  0  0  0  0  0  0  0  0
    5.9004   -2.9172    0.0000 H   0  0  0  0  0  0  0  0  0  0  0  0
    4.7137   -4.8950    0.0000 H   0  0  0  0  0  0  0  0  0  0  0  0
    7.0541   -4.8950    0.0000 H   0  0  0  0  0  0  0  0  0  0  0  0
  1  2  1  0  0  0  0
  1  4  1  0  0  0  0
  1  9  1  0  0  0  0
  1 24  1  1  0  0  0
  2 10  1  0  0  0  0
  2 11  1  6  0  0  0
  2 15  1  0  0  0  0
  3  6  1  0  0  0  0
  3  5  1  0  0  0  0
  3 14  1  0  0  0  0
  3 25  1  1  0  0  0
  4  7  1  0  0  0  0
  4 12  1  0  0  0  0
  4 34  1  6  0  0  0
  5  8  2  0  0  0  0
  5 18  1  0  0  0  0
  6 13  1  0  0  0  0
  6  7  1  0  0  0  0
  6 33  1  6  0  0  0
  7 16  1  0  0  0  0
  7 32  1  1  0  0  0
  8 19  1  0  0  0  0
  9 13  1  0  0  0  0
 10 12  1  0  0  0  0
 11 17  1  0  0  0  0
 14 23  1  0  0  0  0
 15 21  2  0  0  0  0
 15 27  1  0  0  0  0
 16 18  1  0  0  0  0
 17 20  2  0  0  0  0
 17 26  1  0  0  0  0
 19 23  1  0  0  0  0
 19 22  2  0  0  0  0
 26 28  1  0  0  0  0
 28 30  1  0  0  0  0
 29 30  1  0  0  0  0
 29 31  1  0  0  0  0
M  END
> <ID>
9741

> <Formula>
C27H40O4

> <FW>
428.6041

> <DSSTox_CID>
23915

> <DSSTox_RID>
80089

> <DSSTox_GSID>
43915

> <DSSTox_FileID_Sort>
4771

> <TS_ChemName>
Hydroxyprogesterone caproate

> <TS_ChemName_Synonyms>
Hydroxyprogesterone caproate (17alpha-Hydroxyprogesterone hexanoate)

> <TS_CASRN>
630-56-8

> <CASRN_ChemName_Relationship>
primary

> <TS_Description>
single chemical compound

> <ChemNote>
stereochem

> <STRUCTURE_Shown>
tested chemical

> <STRUCTURE_Formula>
C27H40O4

> <STRUCTURE_MW>
428.6041

> <STRUCTURE_ChemType>
defined organic

> <STRUCTURE_DefinedOrganicForm>
parent

> <STRUCTURE_IUPAC>
3,20-dioxopregn-4-en-17-yl hexanoate

> <STRUCTURE_SMILES>
CC(=O)[C@@]3(OC(=O)CCCCC)CC[C@H]2[C@@H]4CCC1=CC(=O)CC[C@]1(C)[C@H]4CC[C@@]23C

> <STRUCTURE_SMILES_Desalt>
CC(=O)[C@@]3(OC(=O)CCCCC)CC[C@H]2[C@@H]4CCC1=CC(=O)CC[C@]1(C)[C@H]4CC[C@@]23C

> <Substance_modify_yyyymmdd>


$$$$
