63041-77-0
ChemmineR-0915142007XD

 21 25  0  0  0  0  0  0  0  0  1 V2000
    6.9095   -5.9823    0.0000 C   0  0  0  0  0  0  0  0  0  0  0  0
    8.0624   -2.6606    0.0000 C   0  0  0  0  0  0  0  0  0  0  0  0
    0.0000   -0.6611    0.0000 C   0  0  0  0  0  0  0  0  0  0  0  0
    8.0624   -3.9909    0.0000 C   0  0  0  0  0  0  0  0  0  0  0  0
    0.0000   -1.9914    0.0000 C   0  0  0  0  0  0  0  0  0  0  0  0
    1.1529    0.0000    0.0000 C   0  0  0  0  0  0  0  0  0  0  0  0
    6.9095   -1.9914    0.0000 C   0  0  0  0  0  0  0  0  0  0  0  0
    1.1529   -3.9909    0.0000 C   0  0  0  0  0  0  0  0  0  0  0  0
    2.3058   -4.6520    0.0000 C   0  0  0  0  0  0  0  0  0  0  0  0
    3.4588    0.0000    0.0000 C   0  0  0  0  0  0  0  0  0  0  0  0
    4.6117   -0.6611    0.0000 C   0  0  0  0  0  0  0  0  0  0  0  0
    4.6117   -4.6520    0.0000 C   0  0  0  0  0  0  0  0  0  0  0  0
    6.9095   -4.6520    0.0000 C   0  0  0  0  0  0  0  0  0  0  0  0
    1.1529   -2.6606    0.0000 C   0  0  0  0  0  0  0  0  0  0  0  0
    2.3058   -0.6611    0.0000 C   0  0  0  0  0  0  0  0  0  0  0  0
    3.4588   -3.9909    0.0000 C   0  0  0  0  0  0  0  0  0  0  0  0
    5.7565   -2.6606    0.0000 C   0  0  0  0  0  0  0  0  0  0  0  0
    4.6117   -1.9914    0.0000 C   0  0  0  0  0  0  0  0  0  0  0  0
    5.7565   -3.9909    0.0000 C   0  0  0  0  0  0  0  0  0  0  0  0
    2.3058   -1.9914    0.0000 C   0  0  0  0  0  0  0  0  0  0  0  0
    3.4588   -2.6606    0.0000 C   0  0  0  0  0  0  0  0  0  0  0  0
  1 13  1  0  0  0  0
  2  4  2  0  0  0  0
  2  7  1  0  0  0  0
  3  5  2  0  0  0  0
  3  6  1  0  0  0  0
  4 13  1  0  0  0  0
  5 14  1  0  0  0  0
  6 15  2  0  0  0  0
  7 17  2  0  0  0  0
  8  9  2  0  0  0  0
  8 14  1  0  0  0  0
  9 16  1  0  0  0  0
 10 11  2  0  0  0  0
 10 15  1  0  0  0  0
 11 18  1  0  0  0  0
 12 16  2  0  0  0  0
 12 19  1  0  0  0  0
 13 19  2  0  0  0  0
 14 20  2  0  0  0  0
 15 20  1  0  0  0  0
 16 21  1  0  0  0  0
 17 18  1  0  0  0  0
 17 19  1  0  0  0  0
 18 21  2  0  0  0  0
 20 21  1  0  0  0  0
M  END
> <ID>
14204

> <Formula>
C21H14

> <FW>
266.3359

> <DSSTox_CID>
29297

> <DSSTox_RID>
83415

> <DSSTox_GSID>
49340

> <DSSTox_FileID_Sort>
8090

> <TS_ChemName>
7-Methylbenzo(a)pyrene

> <TS_ChemName_Synonyms>


> <TS_CASRN>
63041-77-0

> <CASRN_ChemName_Relationship>
primary

> <TS_Description>
single chemical compound

> <ChemNote>


> <STRUCTURE_Shown>
tested chemical

> <STRUCTURE_Formula>
C21H14

> <STRUCTURE_MW>
266.3359

> <STRUCTURE_ChemType>
defined organic

> <STRUCTURE_DefinedOrganicForm>
parent

> <STRUCTURE_IUPAC>
7-methylbenzo[pqr]tetraphene

> <STRUCTURE_SMILES>
Cc5cccc1c5cc2ccc4cccc3ccc1c2c34

> <STRUCTURE_SMILES_Desalt>
Cc5cccc1c5cc2ccc4cccc3ccc1c2c34

> <Substance_modify_yyyymmdd>
20111204

$$$$
