6306-60-1
ChemmineR-0915142007XD

 11 11  0  0  0  0  0  0  0  0  1 V2000
    5.9930   -2.2932    0.0000 C    0  0  0  0  0  0  0  0  0  0  0  0
    7.3264   -2.2932    0.0000 N    0  0  0  0  0  0  0  0  0  0  0  0
    5.3190   -1.1576    0.0000 C    0  0  0  0  0  0  0  0  0  0  0  0
    2.0074   -2.3078    0.0000 C    0  0  0  0  0  0  0  0  0  0  0  0
    1.3334   -1.1576    0.0000 C    0  0  0  0  0  0  0  0  0  0  0  0
    2.0074    0.0000    0.0000 C    0  0  0  0  0  0  0  0  0  0  0  0
    3.3335    0.0000    0.0000 C    0  0  0  0  0  0  0  0  0  0  0  0
    3.9929   -1.1576    0.0000 C    0  0  0  0  0  0  0  0  0  0  0  0
    3.3335   -2.3078    0.0000 C    0  0  0  0  0  0  0  0  0  0  0  0
    3.9416   -3.4947    0.0000 Cl   0  0  0  0  0  0  0  0  0  0  0  0
    0.0000   -1.1576    0.0000 Cl   0  0  0  0  0  0  0  0  0  0  0  0
  1  2  3  0  0  0  0
  1  3  1  0  0  0  0
  3  8  1  0  0  0  0
  4  9  2  0  0  0  0
  4  5  1  0  0  0  0
  5  6  2  0  0  0  0
  5 11  1  0  0  0  0
  6  7  1  0  0  0  0
  7  8  2  0  0  0  0
  8  9  1  0  0  0  0
  9 10  1  0  0  0  0
M  END
> <ID>
8158

> <Formula>
C8H5Cl2N

> <FW>
186.038

> <DSSTox_CID>
21185

> <DSSTox_RID>
79641

> <DSSTox_GSID>
41185

> <DSSTox_FileID_Sort>
4323

> <TS_ChemName>
(2,4-Dichlorophenyl)acetonitrile

> <TS_ChemName_Synonyms>


> <TS_CASRN>
6306-60-1

> <CASRN_ChemName_Relationship>
primary

> <TS_Description>
single chemical compound

> <ChemNote>


> <STRUCTURE_Shown>
tested chemical

> <STRUCTURE_Formula>
C8H5Cl2N

> <STRUCTURE_MW>
186.038

> <STRUCTURE_ChemType>
defined organic

> <STRUCTURE_DefinedOrganicForm>
parent

> <STRUCTURE_IUPAC>
(2,4-dichlorophenyl)acetonitrile

> <STRUCTURE_SMILES>
Clc1cc(Cl)ccc1CC#N

> <STRUCTURE_SMILES_Desalt>
Clc1cc(Cl)ccc1CC#N

> <Substance_modify_yyyymmdd>
20080825

$$$$
