63074-08-8
ChemmineR-0915142007XD

 29 31  0  0  0  0  0  0  0  0  1 V2000
    6.9002   -3.9871    0.0000 C    0  0  0  0  0  0  0  0  0  0  0  0
    6.9002   -5.3112    0.0000 N    0  0  0  0  0  0  0  0  0  0  0  0
    4.6050   -5.3112    0.0000 C    0  0  0  0  0  0  0  0  0  0  0  0
    5.7673   -5.9880    0.0000 C    0  0  0  0  0  0  0  0  0  0  0  0
    5.7673   -3.3250    0.0000 N    0  0  0  0  0  0  0  0  0  0  0  0
    4.6050   -3.9871    0.0000 C    0  0  0  0  0  0  0  0  0  0  0  0
    8.0625   -3.3250    0.0000 N    0  0  0  0  0  0  0  0  0  0  0  0
   11.5052   -1.3241    0.0000 C    0  0  0  0  0  0  0  0  0  0  0  0
   10.3723   -2.0009    0.0000 N    0  0  0  0  0  0  0  0  0  0  0  0
    3.4574   -5.9880    0.0000 C    0  0  0  0  0  0  0  0  0  0  0  0
    3.4574   -3.3250    0.0000 C    0  0  0  0  0  0  0  0  0  0  0  0
    2.2952   -5.3112    0.0000 C    0  0  0  0  0  0  0  0  0  0  0  0
    2.2952   -3.9871    0.0000 C    0  0  0  0  0  0  0  0  0  0  0  0
   12.6675   -2.0009    0.0000 C    0  0  0  0  0  0  0  0  0  0  0  0
    8.0625   -2.0009    0.0000 C    0  0  0  0  0  0  0  0  0  0  0  0
    9.2100   -3.9871    0.0000 C    0  0  0  0  0  0  0  0  0  0  0  0
   10.3723   -3.3250    0.0000 C    0  0  0  0  0  0  0  0  0  0  0  0
    9.2100   -1.3241    0.0000 C    0  0  0  0  0  0  0  0  0  0  0  0
   11.5052    0.0000    0.0000 O    0  0  0  0  0  0  0  0  0  0  0  0
   13.9475   -1.5890    0.0000 O    0  0  0  0  0  0  0  0  0  0  0  0
    5.7673   -7.3121    0.0000 N    0  0  0  0  0  0  0  0  0  0  0  0
    1.1623   -5.9880    0.0000 O    0  0  0  0  0  0  0  0  0  0  0  0
    1.1623   -3.3250    0.0000 O    0  0  0  0  0  0  0  0  0  0  0  0
   14.7125   -2.6483    0.0000 C    0  0  0  0  0  0  0  0  0  0  0  0
   12.6675   -3.3250    0.0000 C    0  0  0  0  0  0  0  0  0  0  0  0
    0.0000   -5.3112    0.0000 C    0  0  0  0  0  0  0  0  0  0  0  0
    0.0000   -3.9871    0.0000 C    0  0  0  0  0  0  0  0  0  0  0  0
   13.9475   -3.7370    0.0000 C    0  0  0  0  0  0  0  0  0  0  0  0
    9.6367   -5.6937    0.0000 Cl   0  0  0  0  0  0  0  0  0  0  0  0
  1  2  2  0  0  0  0
  1  5  1  0  0  0  0
  1  7  1  0  0  0  0
  2  4  1  0  0  0  0
  3  6  1  0  0  0  0
  3 10  1  0  0  0  0
  3  4  2  0  0  0  0
  4 21  1  0  0  0  0
  5  6  2  0  0  0  0
  6 11  1  0  0  0  0
  7 15  1  0  0  0  0
  7 16  1  0  0  0  0
  8  9  1  0  0  0  0
  8 14  1  0  0  0  0
  8 19  2  0  0  0  0
  9 17  1  0  0  0  0
  9 18  1  0  0  0  0
 10 12  2  0  0  0  0
 11 13  2  0  0  0  0
 12 13  1  0  0  0  0
 12 22  1  0  0  0  0
 13 23  1  0  0  0  0
 14 20  1  0  0  0  0
 14 25  1  0  0  0  0
 15 18  1  0  0  0  0
 16 17  1  0  0  0  0
 20 24  1  0  0  0  0
 22 26  1  0  0  0  0
 23 27  1  0  0  0  0
 24 28  1  0  0  0  0
 25 28  1  0  0  0  0
M  END
> <ID>
10981

> <Formula>
C19H26ClN5O4

> <FW>
423.8938 (387.4329+36.4609)

> <DSSTox_CID>
25493

> <DSSTox_RID>
80913

> <DSSTox_GSID>
45493

> <DSSTox_FileID_Sort>
5594

> <TS_ChemName>
Terazosin hydrochloride

> <TS_ChemName_Synonyms>


> <TS_CASRN>
63074-08-8

> <CASRN_ChemName_Relationship>
primary

> <TS_Description>
single chemical compound

> <ChemNote>
parent [63590-64-7]

> <STRUCTURE_Shown>
tested chemical

> <STRUCTURE_Formula>
C19H26ClN5O4

> <STRUCTURE_MW>
423.8938

> <STRUCTURE_ChemType>
defined organic

> <STRUCTURE_DefinedOrganicForm>
complex

> <STRUCTURE_IUPAC>
[4-(4-amino-6,7-dimethoxyquinazolin-2-yl)piperazin-1-yl](tetrahydrofuran-2-yl)methanone hydrochloride (1:1)

> <STRUCTURE_SMILES>
Cl.O=C(N1CCN(CC1)c3nc2cc(OC)c(OC)cc2c(N)n3)C4CCCO4

> <STRUCTURE_SMILES_Desalt>
O=C(N1CCN(CC1)c3nc2cc(OC)c(OC)cc2c(N)n3)C4CCCO4

> <Substance_modify_yyyymmdd>
20100107

$$$$
