631-64-1
ChemmineR-0915142007XD

  6  5  0  0  0  0  0  0  0  0  1 V2000
    0.0000   -2.3036    0.0000 Br   0  0  0  0  0  0  0  0  0  0  0  0
    0.0000    0.0000    0.0000 Br   0  0  0  0  0  0  0  0  0  0  0  0
    1.9950   -1.1518    0.0000 C    0  0  0  0  0  0  0  0  0  0  0  0
    2.6600    0.0000    0.0000 O    0  0  0  0  0  0  0  0  0  0  0  0
    2.6600   -2.3036    0.0000 O    0  0  0  0  0  0  0  0  0  0  0  0
    0.6650   -1.1518    0.0000 C    0  0  0  0  0  0  0  0  0  0  0  0
  1  6  1  0  0  0  0
  2  6  1  0  0  0  0
  3  4  2  0  0  0  0
  3  5  1  0  0  0  0
  3  6  1  0  0  0  0
M  END
> <ID>
3374

> <Formula>
C2H2Br2O2

> <FW>
217.8441

> <DSSTox_CID>
3815

> <DSSTox_RID>
77196

> <DSSTox_GSID>
23815

> <DSSTox_FileID_Sort>
1879

> <TS_ChemName>
Dibromoacetic acid

> <TS_ChemName_Synonyms>


> <TS_CASRN>
631-64-1

> <CASRN_ChemName_Relationship>
primary

> <TS_Description>
single chemical compound

> <ChemNote>


> <STRUCTURE_Shown>
tested chemical

> <STRUCTURE_Formula>
C2H2Br2O2

> <STRUCTURE_MW>
217.8441

> <STRUCTURE_ChemType>
defined organic

> <STRUCTURE_DefinedOrganicForm>
parent

> <STRUCTURE_IUPAC>
dibromoacetic acid

> <STRUCTURE_SMILES>
BrC(Br)C(=O)O

> <STRUCTURE_SMILES_Desalt>
BrC(Br)C(=O)O

> <Substance_modify_yyyymmdd>
20080429

$$$$
