63133-74-4
ChemmineR-0915142007XD

 13 13  0  0  0  0  0  0  0  0  1 V2000
    3.9835   -5.7609    0.0000 C   0  0  0  0  0  0  0  0  0  0  0  0
    4.6405   -6.9158    0.0000 N   0  0  0  0  0  0  0  0  0  0  0  0
    3.3127   -4.6129    0.0000 C   0  0  0  0  0  0  0  0  0  0  0  0
    3.9835   -3.4579    0.0000 N   0  0  0  0  0  0  0  0  0  0  0  0
    5.3183   -3.4579    0.0000 C   0  0  0  0  0  0  0  0  0  0  0  0
    5.9684   -2.3030    0.0000 C   0  0  0  0  0  0  0  0  0  0  0  0
    3.3127   -2.3030    0.0000 C   0  0  0  0  0  0  0  0  0  0  0  0
    1.9848   -2.3030    0.0000 C   0  0  0  0  0  0  0  0  0  0  0  0
    3.9835   -1.1549    0.0000 C   0  0  0  0  0  0  0  0  0  0  0  0
    1.3278   -1.1549    0.0000 C   0  0  0  0  0  0  0  0  0  0  0  0
    3.3127    0.0000    0.0000 C   0  0  0  0  0  0  0  0  0  0  0  0
    1.9848    0.0000    0.0000 C   0  0  0  0  0  0  0  0  0  0  0  0
    0.0000   -1.1549    0.0000 C   0  0  0  0  0  0  0  0  0  0  0  0
  1  2  3  0  0  0  0
  1  3  1  0  0  0  0
  3  4  1  0  0  0  0
  4  5  1  0  0  0  0
  4  7  1  0  0  0  0
  5  6  1  0  0  0  0
  7  8  2  0  0  0  0
  7  9  1  0  0  0  0
  8 10  1  0  0  0  0
  9 11  2  0  0  0  0
 10 12  2  0  0  0  0
 10 13  1  0  0  0  0
 11 12  1  0  0  0  0
M  END
> <ID>
5626

> <Formula>
C11H14N2

> <FW>
174.2423

> <DSSTox_CID>
8114

> <DSSTox_RID>
78648

> <DSSTox_GSID>
28114

> <DSSTox_FileID_Sort>
3330

> <TS_ChemName>
Acetonitrile, [ethyl(3-methylphenyl)amino]-

> <TS_ChemName_Synonyms>


> <TS_CASRN>
63133-74-4

> <CASRN_ChemName_Relationship>
primary

> <TS_Description>
single chemical compound

> <ChemNote>


> <STRUCTURE_Shown>
tested chemical

> <STRUCTURE_Formula>
C11H14N2

> <STRUCTURE_MW>
174.2423

> <STRUCTURE_ChemType>
defined organic

> <STRUCTURE_DefinedOrganicForm>
parent

> <STRUCTURE_IUPAC>
[ethyl(3-methylphenyl)amino]acetonitrile

> <STRUCTURE_SMILES>
CCN(CC#N)c1cc(C)ccc1

> <STRUCTURE_SMILES_Desalt>
CCN(CC#N)c1cc(C)ccc1

> <Substance_modify_yyyymmdd>
20080429

$$$$
