6319-84-2
ChemmineR-0915142007XD

 17 18  0  0  1  0  0  0  0  0  1 V2000
    2.3043   -4.6551    0.0000 C   0  0  0  0  0  0  0  0  0  0  0  0
    2.3043   -5.9832    0.0000 C   0  0  0  0  0  0  0  0  0  0  0  0
    1.1488   -3.9844    0.0000 C   0  0  0  0  0  0  0  0  0  0  0  0
    1.1488   -6.6406    0.0000 C   0  0  0  0  0  0  0  0  0  0  0  0
    0.0000   -4.6551    0.0000 C   0  0  0  0  0  0  0  0  0  0  0  0
    0.0000   -5.9832    0.0000 C   0  0  0  0  0  0  0  0  0  0  0  0
    1.1488   -2.6562    0.0000 C   0  0  0  0  0  0  0  0  0  0  0  0
    2.3043   -1.9855    0.0000 C   0  0  0  0  0  0  0  0  0  0  0  0
    2.3043   -0.6574    0.0000 N   0  0  0  0  0  0  0  0  0  0  0  0
    1.1488    0.0000    0.0000 C   0  0  0  0  0  0  0  0  0  0  0  0
    3.4531    0.0000    0.0000 C   0  0  0  0  0  0  0  0  0  0  0  0
    3.4531   -2.6562    0.0000 C   0  0  0  0  0  0  0  0  0  0  0  0
    4.6086   -1.9855    0.0000 C   0  0  0  0  0  0  0  0  0  0  0  0
    3.4531   -3.9844    0.0000 C   0  0  0  0  0  0  0  0  0  0  0  0
    5.7574   -2.6562    0.0000 C   0  0  0  0  0  0  0  0  0  0  0  0
    4.6086   -4.6551    0.0000 C   0  0  0  0  0  0  0  0  0  0  0  0
    5.7574   -3.9844    0.0000 C   0  0  0  0  0  0  0  0  0  0  0  0
  1  2  1  0  0  0  0
  1  3  2  0  0  0  0
  2  4  2  0  0  0  0
  3  5  1  0  0  0  0
  3  7  1  0  0  0  0
  4  6  1  0  0  0  0
  5  6  2  0  0  0  0
  7  8  1  0  0  0  0
  8  9  1  1  0  0  0
  8 12  1  0  0  0  0
  9 10  1  0  0  0  0
  9 11  1  0  0  0  0
 12 13  1  0  0  0  0
 12 14  2  0  0  0  0
 13 15  2  0  0  0  0
 14 16  1  0  0  0  0
 15 17  1  0  0  0  0
 16 17  2  0  0  0  0
M  END
> <ID>
12008

> <Formula>
C16H19N

> <FW>
225.3288

> <DSSTox_CID>
26833

> <DSSTox_RID>
81945

> <DSSTox_GSID>
46833

> <DSSTox_FileID_Sort>
6626

> <TS_ChemName>
N,N-Dimethyl-1,2-diphenylethanamine

> <TS_ChemName_Synonyms>


> <TS_CASRN>
6319-84-2

> <CASRN_ChemName_Relationship>
primary

> <TS_Description>
single chemical compound

> <ChemNote>


> <STRUCTURE_Shown>
tested chemical

> <STRUCTURE_Formula>
C16H19N

> <STRUCTURE_MW>
225.3288

> <STRUCTURE_ChemType>
defined organic

> <STRUCTURE_DefinedOrganicForm>
parent

> <STRUCTURE_IUPAC>
(1R)-N,N-dimethyl-1,2-diphenylethanamine

> <STRUCTURE_SMILES>
CN(C)[C@H](Cc1ccccc1)c2ccccc2

> <STRUCTURE_SMILES_Desalt>
CN(C)[C@H](Cc1ccccc1)c2ccccc2

> <Substance_modify_yyyymmdd>
20110731

$$$$
