632-99-5
ChemmineR-0915142007XD

 24 25  0  0  0  0  0  0  0  0  1 V2000
    8.0607   -5.9880    0.0000 C    0  0  0  0  0  0  0  0  0  0  0  0
    8.0607   -7.3145    0.0000 C    0  0  0  0  0  0  0  0  0  0  0  0
    6.9092   -7.9870    0.0000 C    0  0  0  0  0  0  0  0  0  0  0  0
    5.7577   -7.3145    0.0000 C    0  0  0  0  0  0  0  0  0  0  0  0
    5.7577   -5.9880    0.0000 C    0  0  0  0  0  0  0  0  0  0  0  0
    6.9092   -5.3247    0.0000 C    0  0  0  0  0  0  0  0  0  0  0  0
    4.6061   -5.3247    0.0000 C    0  0  0  0  0  0  0  0  0  0  0  0
    4.6061   -3.9981    0.0000 C    0  0  0  0  0  0  0  0  0  0  0  0
    3.4546   -3.3256    0.0000 C    0  0  0  0  0  0  0  0  0  0  0  0
    3.4546   -1.9991    0.0000 C    0  0  0  0  0  0  0  0  0  0  0  0
    4.6061   -1.3358    0.0000 C    0  0  0  0  0  0  0  0  0  0  0  0
    4.6061    0.0000    0.0000 N    0  0  0  0  0  0  0  0  0  0  0  0
    5.7577   -1.9991    0.0000 C    0  0  0  0  0  0  0  0  0  0  0  0
    5.7577   -3.3256    0.0000 C    0  0  0  0  0  0  0  0  0  0  0  0
    6.9092   -1.3358    0.0000 C    0  0  0  0  0  0  0  0  0  0  0  0
    3.4546   -5.9880    0.0000 C    0  0  0  0  0  0  0  0  0  0  0  0
    3.4546   -7.3145    0.0000 C    0  0  0  0  0  0  0  0  0  0  0  0
    2.3031   -7.9870    0.0000 C    0  0  0  0  0  0  0  0  0  0  0  0
    1.1515   -7.3145    0.0000 C    0  0  0  0  0  0  0  0  0  0  0  0
    0.0000   -7.9870    0.0000 N    0  0  0  0  0  0  0  0  0  0  0  0
    1.1515   -5.9880    0.0000 C    0  0  0  0  0  0  0  0  0  0  0  0
    2.3031   -5.3247    0.0000 C    0  0  0  0  0  0  0  0  0  0  0  0
    9.2123   -7.9870    0.0000 N    0  0  0  0  0  0  0  0  0  0  0  0
    4.7720   -8.1897    0.0000 Cl   0  0  0  0  0  0  0  0  0  0  0  0
  1  2  2  0  0  0  0
  1  6  1  0  0  0  0
  2  3  1  0  0  0  0
  2 23  1  0  0  0  0
  3  4  2  0  0  0  0
  4  5  1  0  0  0  0
  5  6  2  0  0  0  0
  5  7  1  0  0  0  0
  7  8  1  0  0  0  0
  7 16  2  0  0  0  0
  8  9  2  0  0  0  0
  8 14  1  0  0  0  0
  9 10  1  0  0  0  0
 10 11  2  0  0  0  0
 11 12  1  0  0  0  0
 11 13  1  0  0  0  0
 13 14  2  0  0  0  0
 13 15  1  0  0  0  0
 16 17  1  0  0  0  0
 16 22  1  0  0  0  0
 17 18  2  0  0  0  0
 18 19  1  0  0  0  0
 19 20  2  0  0  0  0
 19 21  1  0  0  0  0
 21 22  2  0  0  0  0
M  END
> <ID>
1199

> <Formula>
C20H20ClN3

> <FW>
337.8459 (301.3850+36.4609)

> <DSSTox_CID>
1246

> <DSSTox_RID>
76036

> <DSSTox_GSID>
21246

> <DSSTox_FileID_Sort>
720

> <TS_ChemName>
C.I. Basic violet 14

> <TS_ChemName_Synonyms>
C.I. Basic violet 14 (Rosaniline.HCl) (Benzenamine, 4-[(4-aminophenyl)(4-imino-2,5-cyclohexadien-1-ylidene)methyl]-2-methyl-, hydrochloride (1:1))

> <TS_CASRN>
632-99-5

> <CASRN_ChemName_Relationship>
primary

> <TS_Description>
single chemical compound

> <ChemNote>
C.I. 42510; parent [3248-93-9]

> <STRUCTURE_Shown>
tested chemical

> <STRUCTURE_Formula>
C20H20ClN3

> <STRUCTURE_MW>
337.8459

> <STRUCTURE_ChemType>
defined organic

> <STRUCTURE_DefinedOrganicForm>
complex

> <STRUCTURE_IUPAC>
4-[(4-aminophenyl)(4-iminocyclohexa-2,5-dien-1-ylidene)methyl]-2-methylaniline hydrochloride (1:1)

> <STRUCTURE_SMILES>
Cl.N=C1C=C/C(C=C1)=C(\c2ccc(N)c(C)c2)c3ccc(N)cc3

> <STRUCTURE_SMILES_Desalt>
N=C1C=C/C(C=C1)=C(\c2ccc(N)c(C)c2)c3ccc(N)cc3

> <Substance_modify_yyyymmdd>
20080429

$$$$
