6320-03-2
ChemmineR-0915142007XD

  8  8  0  0  0  0  0  0  0  0  1 V2000
    2.6604   -3.4550    0.0000 S    0  0  0  0  0  0  0  0  0  0  0  0
    1.9936   -2.3045    0.0000 C    0  0  0  0  0  0  0  0  0  0  0  0
    2.6604   -1.1505    0.0000 C    0  0  0  0  0  0  0  0  0  0  0  0
    1.9936    0.0000    0.0000 C    0  0  0  0  0  0  0  0  0  0  0  0
    0.6634    0.0000    0.0000 C    0  0  0  0  0  0  0  0  0  0  0  0
    0.0000   -1.1505    0.0000 C    0  0  0  0  0  0  0  0  0  0  0  0
    0.6634   -2.3045    0.0000 C    0  0  0  0  0  0  0  0  0  0  0  0
    0.0000   -3.4550    0.0000 Cl   0  0  0  0  0  0  0  0  0  0  0  0
  1  2  1  0  0  0  0
  2  3  2  0  0  0  0
  2  7  1  0  0  0  0
  3  4  1  0  0  0  0
  4  5  2  0  0  0  0
  5  6  1  0  0  0  0
  6  7  2  0  0  0  0
  7  8  1  0  0  0  0
M  END
> <ID>
16187

> <Formula>
C6H5ClS

> <FW>
144.6219

> <DSSTox_CID>
31577

> <DSSTox_RID>
97462

> <DSSTox_GSID>
57788

> <DSSTox_FileID_Sort>
8529

> <TS_ChemName>
o-Chlorothiophenol

> <TS_ChemName_Synonyms>


> <TS_CASRN>
6320-03-2

> <CASRN_ChemName_Relationship>
primary

> <TS_Description>
single chemical compound

> <ChemNote>


> <STRUCTURE_Shown>
tested chemical

> <STRUCTURE_Formula>
C6H5ClS

> <STRUCTURE_MW>
144.6219

> <STRUCTURE_ChemType>
defined organic

> <STRUCTURE_DefinedOrganicForm>
parent

> <STRUCTURE_IUPAC>
2-chlorobenzenethiol

> <STRUCTURE_SMILES>
Sc1ccccc1Cl

> <STRUCTURE_SMILES_Desalt>
Sc1ccccc1Cl

> <Substance_modify_yyyymmdd>
20131121

$$$$
