63245-28-3
ChemmineR-0915142007XD

 23 23  0  0  0  0  0  0  0  0  1 V2000
    2.3135   -2.6638    0.0000 C   0  0  0  0  0  0  0  0  0  0  0  0
    2.3135   -3.9818    0.0000 C   0  0  0  0  0  0  0  0  0  0  0  0
    1.1522   -1.9909    0.0000 C   0  0  0  0  0  0  0  0  0  0  0  0
    1.1522   -4.6547    0.0000 C   0  0  0  0  0  0  0  0  0  0  0  0
    0.0000   -2.6638    0.0000 C   0  0  0  0  0  0  0  0  0  0  0  0
    0.0000   -3.9818    0.0000 C   0  0  0  0  0  0  0  0  0  0  0  0
    3.4657   -1.9909    0.0000 N   0  0  0  0  0  0  0  0  0  0  0  0
    4.6270   -2.6453    0.0000 C   0  0  0  0  0  0  0  0  0  0  0  0
    4.6270   -3.9818    0.0000 O   0  0  0  0  0  0  0  0  0  0  0  0
    5.7608   -1.9909    0.0000 C   0  0  0  0  0  0  0  0  0  0  0  0
    6.9037   -2.6453    0.0000 N   0  0  0  0  0  0  0  0  0  0  0  0
    6.9037   -3.9818    0.0000 C   0  0  0  0  0  0  0  0  0  0  0  0
    8.0651   -1.9909    0.0000 C   0  0  0  0  0  0  0  0  0  0  0  0
    8.0651   -4.6547    0.0000 C   0  0  0  0  0  0  0  0  0  0  0  0
    9.2172   -3.9818    0.0000 O   0  0  0  0  0  0  0  0  0  0  0  0
    8.0651   -5.9728    0.0000 O   0  0  0  0  0  0  0  0  0  0  0  0
    8.0651   -0.6729    0.0000 C   0  0  0  0  0  0  0  0  0  0  0  0
    6.9037    0.0000    0.0000 O   0  0  0  0  0  0  0  0  0  0  0  0
    9.2172    0.0000    0.0000 O   0  0  0  0  0  0  0  0  0  0  0  0
    1.1522   -0.6729    0.0000 C   0  0  0  0  0  0  0  0  0  0  0  0
    2.3135    0.0000    0.0000 C   0  0  0  0  0  0  0  0  0  0  0  0
    3.4657   -4.6547    0.0000 C   0  0  0  0  0  0  0  0  0  0  0  0
    3.4657   -5.9728    0.0000 C   0  0  0  0  0  0  0  0  0  0  0  0
  1  2  1  0  0  0  0
  1  3  2  0  0  0  0
  1  7  1  0  0  0  0
  2  4  2  0  0  0  0
  2 22  1  0  0  0  0
  3  5  1  0  0  0  0
  3 20  1  0  0  0  0
  4  6  1  0  0  0  0
  5  6  2  0  0  0  0
  7  8  1  0  0  0  0
  8  9  2  0  0  0  0
  8 10  1  0  0  0  0
 10 11  1  0  0  0  0
 11 12  1  0  0  0  0
 11 13  1  0  0  0  0
 12 14  1  0  0  0  0
 13 17  1  0  0  0  0
 14 15  2  0  0  0  0
 14 16  1  0  0  0  0
 17 18  2  0  0  0  0
 17 19  1  0  0  0  0
 20 21  1  0  0  0  0
 22 23  1  0  0  0  0
M  END
> <ID>
10980

> <Formula>
C16H22N2O5

> <FW>
322.3563

> <DSSTox_CID>
25492

> <DSSTox_RID>
80912

> <DSSTox_GSID>
45492

> <DSSTox_FileID_Sort>
5593

> <TS_ChemName>
Etifenin

> <TS_ChemName_Synonyms>


> <TS_CASRN>
63245-28-3

> <CASRN_ChemName_Relationship>
primary

> <TS_Description>
single chemical compound

> <ChemNote>


> <STRUCTURE_Shown>
tested chemical

> <STRUCTURE_Formula>
C16H22N2O5

> <STRUCTURE_MW>
322.3563

> <STRUCTURE_ChemType>
defined organic

> <STRUCTURE_DefinedOrganicForm>
parent

> <STRUCTURE_IUPAC>
2,2'-({2-[(2,6-diethylphenyl)amino]-2-oxoethyl}imino)diacetic acid

> <STRUCTURE_SMILES>
O=C(Nc1c(cccc1CC)CC)CN(CC(=O)O)CC(=O)O

> <STRUCTURE_SMILES_Desalt>
O=C(Nc1c(cccc1CC)CC)CN(CC(=O)O)CC(=O)O

> <Substance_modify_yyyymmdd>
20100107

$$$$
