63284-71-9
ChemmineR-0915142007XD

 22 24  0  0  0  0  0  0  0  0  1 V2000
    3.9850   -5.3160    0.0000 C    0  0  0  0  0  0  0  0  0  0  0  0
    3.9850   -3.9850    0.0000 C    0  0  0  0  0  0  0  0  0  0  0  0
    2.8293   -3.3314    0.0000 C    0  0  0  0  0  0  0  0  0  0  0  0
    5.1406   -3.3314    0.0000 C    0  0  0  0  0  0  0  0  0  0  0  0
    2.8293   -2.0005    0.0000 C    0  0  0  0  0  0  0  0  0  0  0  0
    5.1406   -2.0005    0.0000 C    0  0  0  0  0  0  0  0  0  0  0  0
    3.9850   -1.3310    0.0000 C    0  0  0  0  0  0  0  0  0  0  0  0
    2.6540   -5.3160    0.0000 C    0  0  0  0  0  0  0  0  0  0  0  0
    2.0005   -6.4636    0.0000 C    0  0  0  0  0  0  0  0  0  0  0  0
    2.0005   -4.1603    0.0000 C    0  0  0  0  0  0  0  0  0  0  0  0
    0.6695   -6.4636    0.0000 C    0  0  0  0  0  0  0  0  0  0  0  0
    0.6695   -4.1603    0.0000 C    0  0  0  0  0  0  0  0  0  0  0  0
    0.0000   -5.3160    0.0000 C    0  0  0  0  0  0  0  0  0  0  0  0
    5.3160   -5.3160    0.0000 C    0  0  0  0  0  0  0  0  0  0  0  0
    5.9854   -4.1603    0.0000 C    0  0  0  0  0  0  0  0  0  0  0  0
    5.9854   -6.4636    0.0000 C    0  0  0  0  0  0  0  0  0  0  0  0
    7.3164   -4.1603    0.0000 N    0  0  0  0  0  0  0  0  0  0  0  0
    7.3164   -6.4636    0.0000 N    0  0  0  0  0  0  0  0  0  0  0  0
    7.9700   -5.3160    0.0000 C    0  0  0  0  0  0  0  0  0  0  0  0
    3.9850   -6.6470    0.0000 O    0  0  0  0  0  0  0  0  0  0  0  0
    2.6540   -7.6193    0.0000 Cl   0  0  0  0  0  0  0  0  0  0  0  0
    3.9850    0.0000    0.0000 F    0  0  0  0  0  0  0  0  0  0  0  0
  1  2  1  0  0  0  0
  1  8  1  0  0  0  0
  1 14  1  0  0  0  0
  1 20  1  0  0  0  0
  2  3  1  0  0  0  0
  2  4  2  0  0  0  0
  3  5  2  0  0  0  0
  4  6  1  0  0  0  0
  5  7  1  0  0  0  0
  6  7  2  0  0  0  0
  7 22  1  0  0  0  0
  8  9  1  0  0  0  0
  8 10  2  0  0  0  0
  9 11  2  0  0  0  0
  9 21  1  0  0  0  0
 10 12  1  0  0  0  0
 11 13  1  0  0  0  0
 12 13  2  0  0  0  0
 14 15  1  0  0  0  0
 14 16  2  0  0  0  0
 15 17  2  0  0  0  0
 16 18  1  0  0  0  0
 17 19  1  0  0  0  0
 18 19  2  0  0  0  0
M  END
> <ID>
9149

> <Formula>
C17H12ClFN2O

> <FW>
314.7414

> <DSSTox_CID>
22220

> <DSSTox_RID>
79964

> <DSSTox_GSID>
42220

> <DSSTox_FileID_Sort>
4646

> <TS_ChemName>
Nuarimol

> <TS_ChemName_Synonyms>


> <TS_CASRN>
63284-71-9

> <CASRN_ChemName_Relationship>
primary

> <TS_Description>
single chemical compound

> <ChemNote>


> <STRUCTURE_Shown>
tested chemical

> <STRUCTURE_Formula>
C17H12ClFN2O

> <STRUCTURE_MW>
314.7414

> <STRUCTURE_ChemType>
defined organic

> <STRUCTURE_DefinedOrganicForm>
parent

> <STRUCTURE_IUPAC>
(2-chlorophenyl)(4-fluorophenyl)pyrimidin-5-ylmethanol

> <STRUCTURE_SMILES>
OC(c1ccccc1Cl)(c2cncnc2)c3ccc(F)cc3

> <STRUCTURE_SMILES_Desalt>
OC(c1ccccc1Cl)(c2cncnc2)c3ccc(F)cc3

> <Substance_modify_yyyymmdd>
20080825

$$$$
