633-03-4
ChemmineR-0915142007XD

 34 35  0  0  0  0  0  0  0  0  2 V2000
   14.4692   -1.5779    0.0000 S   0  0  0  0  0  0  0  0  0  0  0  0
   13.1754   -1.5779    0.0000 O   0  5  0  0  0  0  0  0  0  0  0  0
   15.7789   -1.5779    0.0000 O   0  0  0  0  0  0  0  0  0  0  0  0
   14.4692   -0.2840    0.0000 O   0  0  0  0  0  0  0  0  0  0  0  0
   14.4692   -2.9033    0.0000 O   0  0  0  0  0  0  0  0  0  0  0  0
    8.0788   -4.0078    0.0000 C   0  0  0  0  0  0  0  0  0  0  0  0
   11.5501   -2.0039    0.0000 N   0  3  0  0  0  0  0  0  0  0  0  0
    6.9269   -4.6548    0.0000 C   0  0  0  0  0  0  0  0  0  0  0  0
   10.3825   -2.6666    0.0000 C   0  0  0  0  0  0  0  0  0  0  0  0
    8.0788   -2.6666    0.0000 C   0  0  0  0  0  0  0  0  0  0  0  0
    9.2464   -4.6548    0.0000 C   0  0  0  0  0  0  0  0  0  0  0  0
   10.3825   -4.0078    0.0000 C   0  0  0  0  0  0  0  0  0  0  0  0
    9.2464   -2.0039    0.0000 C   0  0  0  0  0  0  0  0  0  0  0  0
    5.7593   -4.0078    0.0000 C   0  0  0  0  0  0  0  0  0  0  0  0
    3.4556   -2.6666    0.0000 C   0  0  0  0  0  0  0  0  0  0  0  0
    2.3037   -2.0039    0.0000 N   0  0  0  0  0  0  0  0  0  0  0  0
    6.9269   -5.9960    0.0000 C   0  0  0  0  0  0  0  0  0  0  0  0
    4.6232   -4.6548    0.0000 C   0  0  0  0  0  0  0  0  0  0  0  0
    5.7593   -2.6666    0.0000 C   0  0  0  0  0  0  0  0  0  0  0  0
    4.6232   -2.0039    0.0000 C   0  0  0  0  0  0  0  0  0  0  0  0
    3.4556   -4.0078    0.0000 C   0  0  0  0  0  0  0  0  0  0  0  0
   12.7020   -2.6666    0.0000 C   0  0  0  0  0  0  0  0  0  0  0  0
   11.5501   -0.6627    0.0000 C   0  0  0  0  0  0  0  0  0  0  0  0
    1.1519   -2.6666    0.0000 C   0  0  0  0  0  0  0  0  0  0  0  0
    2.3037   -0.6627    0.0000 C   0  0  0  0  0  0  0  0  0  0  0  0
    8.0788   -6.6587    0.0000 C   0  0  0  0  0  0  0  0  0  0  0  0
    5.7593   -6.6587    0.0000 C   0  0  0  0  0  0  0  0  0  0  0  0
   12.7020   -4.0078    0.0000 C   0  0  0  0  0  0  0  0  0  0  0  0
   12.7020    0.0000    0.0000 C   0  0  0  0  0  0  0  0  0  0  0  0
    0.0000   -2.0039    0.0000 C   0  0  0  0  0  0  0  0  0  0  0  0
    3.4556    0.0000    0.0000 C   0  0  0  0  0  0  0  0  0  0  0  0
    8.0788   -7.9999    0.0000 C   0  0  0  0  0  0  0  0  0  0  0  0
    5.7593   -7.9999    0.0000 C   0  0  0  0  0  0  0  0  0  0  0  0
    6.9269   -8.6626    0.0000 C   0  0  0  0  0  0  0  0  0  0  0  0
  1  2  1  0  0  0  0
  1  3  2  0  0  0  0
  1  4  2  0  0  0  0
  1  5  1  0  0  0  0
  6  8  2  0  0  0  0
  6 10  1  0  0  0  0
  6 11  1  0  0  0  0
  7  9  2  0  0  0  0
  7 22  1  0  0  0  0
  7 23  1  0  0  0  0
  8 14  1  0  0  0  0
  8 17  1  0  0  0  0
  9 12  1  0  0  0  0
  9 13  1  0  0  0  0
 10 13  2  0  0  0  0
 11 12  2  0  0  0  0
 14 18  1  0  0  0  0
 14 19  2  0  0  0  0
 15 20  2  0  0  0  0
 15 16  1  0  0  0  0
 15 21  1  0  0  0  0
 16 24  1  0  0  0  0
 16 25  1  0  0  0  0
 17 26  1  0  0  0  0
 17 27  2  0  0  0  0
 18 21  2  0  0  0  0
 19 20  1  0  0  0  0
 22 28  1  0  0  0  0
 23 29  1  0  0  0  0
 24 30  1  0  0  0  0
 25 31  1  0  0  0  0
 26 32  2  0  0  0  0
 27 33  1  0  0  0  0
 32 34  1  0  0  0  0
 33 34  2  0  0  0  0
M  END
> <ID>
13693

> <Formula>
C27H34N2O4S

> <FW>
482.6349 (97.0711+385.5638)

> <DSSTox_CID>
28626

> <DSSTox_RID>
82896

> <DSSTox_GSID>
48700

> <DSSTox_FileID_Sort>
7573

> <TS_ChemName>
Brilliant Green

> <TS_ChemName_Synonyms>


> <TS_CASRN>
633-03-4

> <CASRN_ChemName_Relationship>
primary

> <TS_Description>
single chemical compound

> <ChemNote>


> <STRUCTURE_Shown>
tested chemical

> <STRUCTURE_Formula>
C27H34N2O4S

> <STRUCTURE_MW>
482.6349

> <STRUCTURE_ChemType>
defined organic

> <STRUCTURE_DefinedOrganicForm>
complex

> <STRUCTURE_IUPAC>
4-{[4-(diethylamino)phenyl](phenyl)methylidene}-N,N-diethylcyclohexa-2,5-dien-1-iminium hydrogen sulfate

> <STRUCTURE_SMILES>
CC/[N+](CC)=C1\C=C/C(C=C1)=C(/c2ccccc2)c3ccc(cc3)N(CC)CC.[O-]S(=O)(=O)O

> <STRUCTURE_SMILES_Desalt>
CC/[N+](CC)=C1\C=C/C(C=C1)=C(/c2ccccc2)c3ccc(cc3)N(CC)CC

> <Substance_modify_yyyymmdd>
20111204

$$$$
