633-65-8
ChemmineR-0915142007XD

 26 29  0  0  0  0  0  0  0  0  2 V2000
   11.4197   -1.1480    0.0000 C    0  0  0  0  0  0  0  0  0  0  0  0
   10.0904   -1.1480    0.0000 O    0  0  0  0  0  0  0  0  0  0  0  0
    9.4258   -2.2960    0.0000 C    0  0  0  0  0  0  0  0  0  0  0  0
    8.0965   -2.2960    0.0000 C    0  0  0  0  0  0  0  0  0  0  0  0
    7.4319   -1.1480    0.0000 C    0  0  0  0  0  0  0  0  0  0  0  0
    6.1026   -1.1480    0.0000 N    0  3  0  0  0  0  0  0  0  0  0  0
    5.4259    0.0000    0.0000 C    0  0  0  0  0  0  0  0  0  0  0  0
    4.0966    0.0000    0.0000 C    0  0  0  0  0  0  0  0  0  0  0  0
    3.4320   -1.1480    0.0000 C    0  0  0  0  0  0  0  0  0  0  0  0
    4.0966   -2.2960    0.0000 C    0  0  0  0  0  0  0  0  0  0  0  0
    3.4320   -3.4561    0.0000 C    0  0  0  0  0  0  0  0  0  0  0  0
    2.1027   -3.4561    0.0000 C    0  0  0  0  0  0  0  0  0  0  0  0
    1.2205   -4.4350    0.0000 O    0  0  0  0  0  0  0  0  0  0  0  0
    0.0000   -3.9032    0.0000 C    0  0  0  0  0  0  0  0  0  0  0  0
    0.1450   -2.5740    0.0000 O    0  0  0  0  0  0  0  0  0  0  0  0
    1.4380   -2.2960    0.0000 C    0  0  0  0  0  0  0  0  0  0  0  0
    2.1027   -1.1480    0.0000 C    0  0  0  0  0  0  0  0  0  0  0  0
    5.4259   -2.2960    0.0000 C    0  0  0  0  0  0  0  0  0  0  0  0
    6.1026   -3.4561    0.0000 C    0  0  0  0  0  0  0  0  0  0  0  0
    7.4319   -3.4561    0.0000 C    0  0  0  0  0  0  0  0  0  0  0  0
    8.0965   -4.6041    0.0000 C    0  0  0  0  0  0  0  0  0  0  0  0
    9.4258   -4.6041    0.0000 C    0  0  0  0  0  0  0  0  0  0  0  0
   10.0904   -3.4561    0.0000 C    0  0  0  0  0  0  0  0  0  0  0  0
   11.4197   -3.4561    0.0000 O    0  0  0  0  0  0  0  0  0  0  0  0
   12.0843   -4.6041    0.0000 C    0  0  0  0  0  0  0  0  0  0  0  0
    5.9817   -5.9334    0.0000 Cl   0  5  0  0  0  0  0  0  0  0  0  0
  1  2  1  0  0  0  0
  2  3  1  0  0  0  0
  3  4  2  0  0  0  0
  3 23  1  0  0  0  0
  4  5  1  0  0  0  0
  4 20  1  0  0  0  0
  5  6  2  0  0  0  0
  6  7  1  0  0  0  0
  6 18  1  0  0  0  0
  7  8  1  0  0  0  0
  8  9  1  0  0  0  0
  9 10  2  0  0  0  0
  9 17  1  0  0  0  0
 10 11  1  0  0  0  0
 10 18  1  0  0  0  0
 11 12  2  0  0  0  0
 12 13  1  0  0  0  0
 12 16  1  0  0  0  0
 13 14  1  0  0  0  0
 14 15  1  0  0  0  0
 15 16  1  0  0  0  0
 16 17  2  0  0  0  0
 18 19  2  0  0  0  0
 19 20  1  0  0  0  0
 20 21  2  0  0  0  0
 21 22  1  0  0  0  0
 22 23  2  0  0  0  0
 23 24  1  0  0  0  0
 24 25  1  0  0  0  0
M  END
> <ID>
3758

> <Formula>
C20H18ClNO4

> <FW>
371.8142 (336.3607+35.4535)

> <DSSTox_CID>
4602

> <DSSTox_RID>
77465

> <DSSTox_GSID>
24602

> <DSSTox_FileID_Sort>
2148

> <TS_ChemName>
Berberine chloride

> <TS_ChemName_Synonyms>


> <TS_CASRN>
633-65-8

> <CASRN_ChemName_Relationship>
primary

> <TS_Description>
single chemical compound

> <ChemNote>
ammonium; parent [2086-83-1]

> <STRUCTURE_Shown>
tested chemical

> <STRUCTURE_Formula>
C20H18ClNO4

> <STRUCTURE_MW>
371.8142

> <STRUCTURE_ChemType>
defined organic

> <STRUCTURE_DefinedOrganicForm>
salt

> <STRUCTURE_IUPAC>
9,10-dimethoxy-5,6-dihydro[1,3]dioxolo[4,5-g]isoquinolino[3,2-a]isoquinolin-7-ium chloride

> <STRUCTURE_SMILES>
[Cl-].COc2ccc1cc3c4cc5OCOc5cc4CC[n+]3cc1c2OC

> <STRUCTURE_SMILES_Desalt>
COc2ccc1cc3c4cc5OCOc5cc4CC[n+]3cc1c2OC

> <Substance_modify_yyyymmdd>
20080429

$$$$
