633-96-5
ChemmineR-0915142007XD

 24 25  0  0  0  0  0  0  0  0  2 V2000
    3.5900   -3.4618    0.0000 S    0  0  0  0  0  0  0  0  0  0  0  0
   11.5821   -3.4618    0.0000 C    0  0  0  0  0  0  0  0  0  0  0  0
   10.2572   -3.4618    0.0000 N    0  0  0  0  0  0  0  0  0  0  0  0
    3.5900   -2.1227    0.0000 O    0  0  0  0  0  0  0  0  0  0  0  0
   12.2516   -2.3079    0.0000 C    0  0  0  0  0  0  0  0  0  0  0  0
    8.9180   -3.4618    0.0000 N    0  0  0  0  0  0  0  0  0  0  0  0
    4.9291   -3.4618    0.0000 C    0  0  0  0  0  0  0  0  0  0  0  0
    3.5900   -4.7867    0.0000 O    0  0  0  0  0  0  0  0  0  0  0  0
    2.2651   -3.4618    0.0000 O    0  5  0  0  0  0  0  0  0  0  0  0
   12.2516   -4.6015    0.0000 C    0  0  0  0  0  0  0  0  0  0  0  0
   13.5908   -2.3079    0.0000 C    0  0  0  0  0  0  0  0  0  0  0  0
   13.5908   -4.6015    0.0000 C    0  0  0  0  0  0  0  0  0  0  0  0
    5.5987   -2.3079    0.0000 C    0  0  0  0  0  0  0  0  0  0  0  0
    5.5987   -4.6015    0.0000 C    0  0  0  0  0  0  0  0  0  0  0  0
   14.2461   -3.4618    0.0000 C    0  0  0  0  0  0  0  0  0  0  0  0
    7.5932   -3.4618    0.0000 C    0  0  0  0  0  0  0  0  0  0  0  0
    6.9236   -4.6015    0.0000 C    0  0  0  0  0  0  0  0  0  0  0  0
    6.9236   -2.3079    0.0000 C    0  0  0  0  0  0  0  0  0  0  0  0
   11.5821   -5.7554    0.0000 O    0  0  0  0  0  0  0  0  0  0  0  0
   11.5821   -1.1539    0.0000 C    0  0  0  0  0  0  0  0  0  0  0  0
   14.2461   -1.1539    0.0000 C    0  0  0  0  0  0  0  0  0  0  0  0
   12.2516    0.0000    0.0000 C    0  0  0  0  0  0  0  0  0  0  0  0
   13.5908    0.0000    0.0000 C    0  0  0  0  0  0  0  0  0  0  0  0
    0.0000   -3.4618    0.0000 Na   0  3  0  0  0  0  0  0  0  0  0  0
  1  4  2  0  0  0  0
  1  7  1  0  0  0  0
  1  8  2  0  0  0  0
  1  9  1  0  0  0  0
  2  3  1  0  0  0  0
  2  5  1  0  0  0  0
  2 10  2  0  0  0  0
  3  6  2  0  0  0  0
  5 11  1  0  0  0  0
  5 20  2  0  0  0  0
  6 16  1  0  0  0  0
  7 13  2  0  0  0  0
  7 14  1  0  0  0  0
 10 12  1  0  0  0  0
 10 19  1  0  0  0  0
 11 21  2  0  0  0  0
 11 15  1  0  0  0  0
 12 15  2  0  0  0  0
 13 18  1  0  0  0  0
 14 17  2  0  0  0  0
 16 17  1  0  0  0  0
 16 18  2  0  0  0  0
 20 22  1  0  0  0  0
 21 23  1  0  0  0  0
 22 23  2  0  0  0  0
M  END
> <ID>
7532

> <Formula>
C16H11N2NaO4S

> <FW>
350.3243 (327.3351+22.9892)

> <DSSTox_CID>
18881

> <DSSTox_RID>
79415

> <DSSTox_GSID>
38881

> <DSSTox_FileID_Sort>
4097

> <TS_ChemName>
C.I. Acid Orange 7

> <TS_ChemName_Synonyms>
Acid Orange II

> <TS_CASRN>
633-96-5

> <CASRN_ChemName_Relationship>
primary

> <TS_Description>
single chemical compound

> <ChemNote>
parent [573-89-7]

> <STRUCTURE_Shown>
tested chemical

> <STRUCTURE_Formula>
C16H11N2NaO4S

> <STRUCTURE_MW>
350.3243

> <STRUCTURE_ChemType>
defined organic

> <STRUCTURE_DefinedOrganicForm>
salt

> <STRUCTURE_IUPAC>
sodium 4-[(2-hydroxynaphthalen-1-yl)diazenyl]benzenesulfonate

> <STRUCTURE_SMILES>
[Na+].O=S([O-])(=O)c3ccc(/N=N/c1c2ccccc2ccc1O)cc3

> <STRUCTURE_SMILES_Desalt>
OS(=O)(=O)c3ccc(/N=N/c1c2ccccc2ccc1O)cc3

> <Substance_modify_yyyymmdd>
20131118

$$$$
