63358-49-6
ChemmineR-0915142007XD

 36 38  0  0  1  0  0  0  0  0  1 V2000
   13.0785   -2.1662    0.0000 C   0  0  0  0  0  0  0  0  0  0  0  0
   13.0785   -3.5180    0.0000 N   0  0  0  0  0  0  0  0  0  0  0  0
   11.7104   -2.1662    0.0000 C   0  0  0  0  0  0  0  0  0  0  0  0
   14.3489   -1.7590    0.0000 S   0  0  0  0  0  0  0  0  0  0  0  0
   14.3489   -3.9252    0.0000 C   0  0  0  0  0  0  0  0  0  0  0  0
   11.7104   -3.5180    0.0000 C   0  0  0  0  0  0  0  0  0  0  0  0
   10.3911   -2.0196    0.0000 N   0  0  0  0  0  0  0  0  0  0  0  0
   15.1144   -2.8502    0.0000 C   0  0  0  0  0  0  0  0  0  0  0  0
   14.7560   -5.1956    0.0000 C   0  0  0  0  0  0  0  0  0  0  0  0
   10.7820   -4.4626    0.0000 O   0  0  0  0  0  0  0  0  0  0  0  0
    9.2347   -1.2867    0.0000 C   0  0  0  0  0  0  0  0  0  0  0  0
   16.2870   -2.1662    0.0000 C   0  0  0  0  0  0  0  0  0  0  0  0
   16.2870   -3.5180    0.0000 C   0  0  0  0  0  0  0  0  0  0  0  0
   13.7788   -6.1728    0.0000 O   0  0  0  0  0  0  0  0  0  0  0  0
   16.0264   -5.5376    0.0000 O   0  0  0  0  0  0  0  0  0  0  0  0
    8.0947   -1.9707    0.0000 C   0  0  0  0  0  0  0  0  0  0  0  0
    9.2347    0.0000    0.0000 O   0  0  0  0  0  0  0  0  0  0  0  0
    8.0947   -3.3063    0.0000 C   0  0  0  0  0  0  0  0  0  0  0  0
    6.8894   -1.2867    0.0000 N   0  0  0  0  0  0  0  0  0  0  0  0
    6.8894   -4.0066    0.0000 C   0  0  0  0  0  0  0  0  0  0  0  0
    9.2347   -4.0066    0.0000 C   0  0  0  0  0  0  0  0  0  0  0  0
    5.7493   -1.9707    0.0000 C   0  0  0  0  0  0  0  0  0  0  0  0
    6.8894   -5.3259    0.0000 C   0  0  0  0  0  0  0  0  0  0  0  0
    9.2347   -5.3259    0.0000 C   0  0  0  0  0  0  0  0  0  0  0  0
    4.5929   -1.2867    0.0000 C   0  0  0  0  0  0  0  0  0  0  0  0
    5.7493   -3.3063    0.0000 O   0  0  0  0  0  0  0  0  0  0  0  0
    8.0947   -5.9773    0.0000 C   0  0  0  0  0  0  0  0  0  0  0  0
    3.4203   -1.9707    0.0000 C   0  0  0  0  0  0  0  0  0  0  0  0
    4.5929    0.0000    0.0000 N   0  0  0  0  0  0  0  0  0  0  0  0
    8.0947   -7.3454    0.0000 O   0  0  0  0  0  0  0  0  0  0  0  0
    2.3128   -1.2867    0.0000 C   0  0  0  0  0  0  0  0  0  0  0  0
    1.1727   -1.9707    0.0000 N   0  0  0  0  0  0  0  0  0  0  0  0
    2.3128    0.0000    0.0000 O   0  0  0  0  0  0  0  0  0  0  0  0
    0.0000   -1.2867    0.0000 C   0  0  0  0  0  0  0  0  0  0  0  0
   13.1599   -0.9772    0.0000 H   0  0  0  0  0  0  0  0  0  0  0  0
   11.7267   -1.0261    0.0000 H   0  0  0  0  0  0  0  0  0  0  0  0
  1  2  1  0  0  0  0
  1  3  1  0  0  0  0
  1  4  1  0  0  0  0
  1 35  1  6  0  0  0
  2  5  1  0  0  0  0
  2  6  1  0  0  0  0
  3  7  1  1  0  0  0
  3  6  1  0  0  0  0
  3 36  1  6  0  0  0
  4  8  1  0  0  0  0
  5  9  1  6  0  0  0
  5  8  1  0  0  0  0
  6 10  2  0  0  0  0
  7 11  1  0  0  0  0
  8 12  1  0  0  0  0
  8 13  1  0  0  0  0
  9 14  1  0  0  0  0
  9 15  2  0  0  0  0
 11 16  1  0  0  0  0
 11 17  2  0  0  0  0
 16 18  1  1  0  0  0
 16 19  1  0  0  0  0
 18 20  1  0  0  0  0
 18 21  2  0  0  0  0
 19 22  1  0  0  0  0
 20 23  2  0  0  0  0
 21 24  1  0  0  0  0
 22 25  1  0  0  0  0
 22 26  2  0  0  0  0
 23 27  1  0  0  0  0
 24 27  2  0  0  0  0
 25 28  1  0  0  0  0
 25 29  1  1  0  0  0
 27 30  1  0  0  0  0
 28 31  1  0  0  0  0
 31 32  1  0  0  0  0
 31 33  2  0  0  0  0
 32 34  1  0  0  0  0
M  END
> <ID>
12080

> <Formula>
C21H27N5O7S

> <FW>
493.5334

> <DSSTox_CID>
26921

> <DSSTox_RID>
82017

> <DSSTox_GSID>
46921

> <DSSTox_FileID_Sort>
6698

> <TS_ChemName>
Aspoxicillin

> <TS_ChemName_Synonyms>


> <TS_CASRN>
63358-49-6

> <CASRN_ChemName_Relationship>
primary

> <TS_Description>
single chemical compound

> <ChemNote>
stereochem

> <STRUCTURE_Shown>
tested chemical

> <STRUCTURE_Formula>
C21H27N5O7S

> <STRUCTURE_MW>
493.5334

> <STRUCTURE_ChemType>
defined organic

> <STRUCTURE_DefinedOrganicForm>
parent

> <STRUCTURE_IUPAC>
(2S,5R,6R)-6-({(2R)-2-(4-hydroxyphenyl)-2-[(N-methyl-D-asparaginyl)amino]acetyl}amino)-3,3-dimethyl-7-oxo-4-thia-1-azabicyclo[3.2.0]heptane-2-carboxylic acid

> <STRUCTURE_SMILES>
OC(=O)[C@@H]2N3C(=O)[C@@H](NC(=O)[C@H](NC(=O)[C@H](N)CC(=O)NC)c1ccc(O)cc1)[C@H]3SC2(C)C

> <STRUCTURE_SMILES_Desalt>
OC(=O)[C@@H]2N3C(=O)[C@@H](NC(=O)[C@H](NC(=O)[C@H](N)CC(=O)NC)c1ccc(O)cc1)[C@H]3SC2(C)C

> <Substance_modify_yyyymmdd>
20110725

$$$$
