6344-67-8
ChemmineR-0915142007XD

 14 16  0  0  0  0  0  0  0  0  1 V2000
    2.1959   -0.7717    0.0000 C   0  0  0  0  0  0  0  0  0  0  0  0
    2.6098   -2.0345    0.0000 C   0  0  0  0  0  0  0  0  0  0  0  0
    0.8980   -0.4981    0.0000 C   0  0  0  0  0  0  0  0  0  0  0  0
    1.7118   -3.0308    0.0000 C   0  0  0  0  0  0  0  0  0  0  0  0
    0.0000   -1.4873    0.0000 C   0  0  0  0  0  0  0  0  0  0  0  0
    0.4139   -2.7571    0.0000 C   0  0  0  0  0  0  0  0  0  0  0  0
    3.2693    0.0000    0.0000 C   0  0  0  0  0  0  0  0  0  0  0  0
    4.3427   -0.7717    0.0000 C   0  0  0  0  0  0  0  0  0  0  0  0
    3.9428   -2.0345    0.0000 C   0  0  0  0  0  0  0  0  0  0  0  0
    5.6546   -0.4981    0.0000 C   0  0  0  0  0  0  0  0  0  0  0  0
    6.5386   -1.4873    0.0000 C   0  0  0  0  0  0  0  0  0  0  0  0
    4.8197   -3.0308    0.0000 C   0  0  0  0  0  0  0  0  0  0  0  0
    6.1317   -2.7571    0.0000 C   0  0  0  0  0  0  0  0  0  0  0  0
    7.0156   -3.7323    0.0000 O   0  0  0  0  0  0  0  0  0  0  0  0
  1  3  2  0  0  0  0
  1  7  1  0  0  0  0
  1  2  1  0  0  0  0
  2  4  2  0  0  0  0
  2  9  1  0  0  0  0
  3  5  1  0  0  0  0
  4  6  1  0  0  0  0
  5  6  2  0  0  0  0
  7  8  1  0  0  0  0
  8 10  1  0  0  0  0
  8  9  2  0  0  0  0
  9 12  1  0  0  0  0
 10 11  2  0  0  0  0
 11 13  1  0  0  0  0
 12 13  2  0  0  0  0
 13 14  1  0  0  0  0
M  END
> <ID>
12664

> <Formula>
C13H10O

> <FW>
182.2179

> <DSSTox_CID>
27540

> <DSSTox_RID>
82406

> <DSSTox_GSID>
47540

> <DSSTox_FileID_Sort>
7087

> <TS_ChemName>
3-Hydroxyfluorene

> <TS_ChemName_Synonyms>


> <TS_CASRN>
6344-67-8

> <CASRN_ChemName_Relationship>
primary

> <TS_Description>
single chemical compound

> <ChemNote>


> <STRUCTURE_Shown>
tested chemical

> <STRUCTURE_Formula>
C13H10O

> <STRUCTURE_MW>
182.2179

> <STRUCTURE_ChemType>
defined organic

> <STRUCTURE_DefinedOrganicForm>
parent

> <STRUCTURE_IUPAC>
9H-fluoren-3-ol

> <STRUCTURE_SMILES>
Oc1cc2c3ccccc3Cc2cc1

> <STRUCTURE_SMILES_Desalt>
Oc1cc2c3ccccc3Cc2cc1

> <Substance_modify_yyyymmdd>
20100921

$$$$
