63449-68-3
ChemmineR-0915142007XD

 20 22  0  0  0  0  0  0  0  0  1 V2000
    3.4671   -1.9619    0.0000 C   0  0  0  0  0  0  0  0  0  0  0  0
    3.4671   -0.6436    0.0000 O   0  0  0  0  0  0  0  0  0  0  0  0
    2.2941   -2.6574    0.0000 C   0  0  0  0  0  0  0  0  0  0  0  0
    4.6089   -2.6574    0.0000 O   0  0  0  0  0  0  0  0  0  0  0  0
    1.1419   -1.9619    0.0000 C   0  0  0  0  0  0  0  0  0  0  0  0
    2.2941   -3.9757    0.0000 C   0  0  0  0  0  0  0  0  0  0  0  0
    0.0000   -2.6574    0.0000 C   0  0  0  0  0  0  0  0  0  0  0  0
    1.1419   -4.6193    0.0000 C   0  0  0  0  0  0  0  0  0  0  0  0
    0.0000   -3.9757    0.0000 C   0  0  0  0  0  0  0  0  0  0  0  0
    1.1419   -0.6436    0.0000 N   0  0  0  0  0  0  0  0  0  0  0  0
    8.0553   -1.9619    0.0000 C   0  0  0  0  0  0  0  0  0  0  0  0
    8.0553   -0.6436    0.0000 C   0  0  0  0  0  0  0  0  0  0  0  0
    9.1971   -2.6574    0.0000 C   0  0  0  0  0  0  0  0  0  0  0  0
    9.1971    0.0000    0.0000 C   0  0  0  0  0  0  0  0  0  0  0  0
    6.9134    0.0000    0.0000 C   0  0  0  0  0  0  0  0  0  0  0  0
    6.9134   -2.6574    0.0000 C   0  0  0  0  0  0  0  0  0  0  0  0
    5.7716   -1.9619    0.0000 C   0  0  0  0  0  0  0  0  0  0  0  0
    5.7716   -0.6436    0.0000 C   0  0  0  0  0  0  0  0  0  0  0  0
   10.3805   -0.6436    0.0000 C   0  0  0  0  0  0  0  0  0  0  0  0
   10.3805   -1.9619    0.0000 C   0  0  0  0  0  0  0  0  0  0  0  0
  1  2  2  0  0  0  0
  1  3  1  0  0  0  0
  1  4  1  0  0  0  0
  3  5  2  0  0  0  0
  3  6  1  0  0  0  0
  4 17  1  0  0  0  0
  5  7  1  0  0  0  0
  5 10  1  0  0  0  0
  6  8  2  0  0  0  0
  7  9  2  0  0  0  0
  8  9  1  0  0  0  0
 11 12  2  0  0  0  0
 11 13  1  0  0  0  0
 11 16  1  0  0  0  0
 12 14  1  0  0  0  0
 12 15  1  0  0  0  0
 13 20  2  0  0  0  0
 14 19  2  0  0  0  0
 15 18  2  0  0  0  0
 16 17  2  0  0  0  0
 17 18  1  0  0  0  0
 19 20  1  0  0  0  0
M  END
> <ID>
12816

> <Formula>
C17H13NO2

> <FW>
263.2906

> <DSSTox_CID>
27695

> <DSSTox_RID>
82506

> <DSSTox_GSID>
47697

> <DSSTox_FileID_Sort>
7187

> <TS_ChemName>
Naphthalen-2-yl 2-aminobenzoate

> <TS_ChemName_Synonyms>


> <TS_CASRN>
63449-68-3

> <CASRN_ChemName_Relationship>
primary

> <TS_Description>
single chemical compound

> <ChemNote>


> <STRUCTURE_Shown>
tested chemical

> <STRUCTURE_Formula>
C17H13NO2

> <STRUCTURE_MW>
263.2906

> <STRUCTURE_ChemType>
defined organic

> <STRUCTURE_DefinedOrganicForm>
parent

> <STRUCTURE_IUPAC>
naphthalen-2-yl 2-aminobenzoate

> <STRUCTURE_SMILES>
Nc1ccccc1C(=O)Oc2ccc3ccccc3c2

> <STRUCTURE_SMILES_Desalt>
Nc1ccccc1C(=O)Oc2ccc3ccccc3c2

> <Substance_modify_yyyymmdd>
20101215

$$$$
