63516-07-4
ChemmineR-0915142007XD

 31 32  0  0  1  0  0  0  0  0  2 V2000
    2.0677   -1.1755    0.0000 N    0  3  0  0  0  0  0  0  0  0  0  0
    6.8328   -3.4426    0.0000 C    0  0  0  0  0  0  0  0  0  0  0  0
    6.8328   -4.6497    0.0000 C    0  0  0  0  0  0  0  0  0  0  0  0
    3.4741    0.0000    0.0000 C    0  0  0  0  0  0  0  0  0  0  0  0
    2.0992   -2.8759    0.0000 C    0  0  0  0  0  0  0  0  0  0  0  0
    5.6888   -2.8129    0.0000 O    0  0  0  0  0  0  0  0  0  0  0  0
    4.5867   -2.3091    0.0000 C    0  0  0  0  0  0  0  0  0  0  0  0
    4.5867   -0.8712    0.0000 C    0  0  0  0  0  0  0  0  0  0  0  0
    3.4846   -3.1802    0.0000 C    0  0  0  0  0  0  0  0  0  0  0  0
    7.8824   -2.8129    0.0000 O    0  0  0  0  0  0  0  0  0  0  0  0
    1.4799   -1.5954    0.0000 C    0  0  0  0  0  0  0  0  0  0  0  0
    2.0992   -0.3149    0.0000 C    0  0  0  0  0  0  0  0  0  0  0  0
    5.5733   -4.6497    0.0000 C    0  0  0  0  0  0  0  0  0  0  0  0
    8.0608   -4.6497    0.0000 C    0  0  0  0  0  0  0  0  0  0  0  0
    3.4846   -1.1755    0.0000 C    0  0  0  0  0  0  0  0  0  0  0  0
    6.8328   -5.8882    0.0000 O    0  0  0  0  0  0  0  0  0  0  0  0
    0.6612   -0.5248    0.0000 C    0  0  0  0  0  0  0  0  0  0  0  0
    5.7097   -0.0525    0.0000 F    0  0  0  0  0  0  0  0  0  0  0  0
    8.6801   -3.6001    0.0000 C    0  0  0  0  0  0  0  0  0  0  0  0
    4.9855   -5.7202    0.0000 C    0  0  0  0  0  0  0  0  0  0  0  0
    8.6801   -5.7202    0.0000 C    0  0  0  0  0  0  0  0  0  0  0  0
    4.9855   -3.6001    0.0000 C    0  0  0  0  0  0  0  0  0  0  0  0
    4.2823   -0.0525    0.0000 C    0  0  0  0  0  0  0  0  0  0  0  0
    3.7365   -5.7202    0.0000 C    0  0  0  0  0  0  0  0  0  0  0  0
    9.8766   -3.6001    0.0000 C    0  0  0  0  0  0  0  0  0  0  0  0
    9.8766   -5.7202    0.0000 C    0  0  0  0  0  0  0  0  0  0  0  0
    3.7365   -3.6001    0.0000 C    0  0  0  0  0  0  0  0  0  0  0  0
   10.4959   -4.6497    0.0000 C    0  0  0  0  0  0  0  0  0  0  0  0
    3.1488   -4.6497    0.0000 C    0  0  0  0  0  0  0  0  0  0  0  0
    0.0000   -2.2986    0.0000 Br   0  5  0  0  0  0  0  0  0  0  0  0
    5.0590   -6.8328    0.0000 Br   0  5  0  0  0  0  0  0  0  0  0  0
  4  1  1  1  0  0  0
  5  1  1  1  0  0  0
  1 15  1  0  0  0  0
  1 17  1  0  0  0  0
  2  6  1  0  0  0  0
  2  3  1  0  0  0  0
  2 10  2  0  0  0  0
  3 13  1  0  0  0  0
  3 14  1  0  0  0  0
  3 16  1  0  0  0  0
  4  8  1  0  0  0  0
  4 12  1  0  0  0  0
  5  9  1  0  0  0  0
  5 11  1  0  0  0  0
  7  6  1  6  0  0  0
  7  9  1  0  0  0  0
  7  8  1  0  0  0  0
 11 12  1  0  0  0  0
 13 20  2  0  0  0  0
 13 22  1  0  0  0  0
 14 19  1  0  0  0  0
 14 21  2  0  0  0  0
 15 23  1  0  0  0  0
 18 23  1  0  0  0  0
 19 25  2  0  0  0  0
 20 24  1  0  0  0  0
 21 26  1  0  0  0  0
 22 27  2  0  0  0  0
 24 29  2  0  0  0  0
 25 28  1  0  0  0  0
 26 28  2  0  0  0  0
 27 29  1  0  0  0  0
M  END
> <ID>
13650

> <Formula>
C24H29Br2FNO3

> <FW>
558.2989 (398.4898+79.9045+79.9045)

> <DSSTox_CID>
28581

> <DSSTox_RID>
82852

> <DSSTox_GSID>
48655

> <DSSTox_FileID_Sort>
7529

> <TS_ChemName>
Flutropium bromide

> <TS_ChemName_Synonyms>
Flutropium

> <TS_CASRN>
63516-07-4

> <CASRN_ChemName_Relationship>
primary

> <TS_Description>
single chemical compound

> <ChemNote>


> <STRUCTURE_Shown>
tested chemical

> <STRUCTURE_Formula>
C24H29Br2FNO3

> <STRUCTURE_MW>
558.2989

> <STRUCTURE_ChemType>
defined organic

> <STRUCTURE_DefinedOrganicForm>
salt

> <STRUCTURE_IUPAC>
[(1R,5S)-8-(2-fluoroethyl)-8-methyl-8-azoniabicyclo[3.2.1]octan-3-yl] 2-hydroxy-2,2-diphenyl-acetate bromide

> <STRUCTURE_SMILES>
[Br-].[Br-].C[N+]2(CCF)[C@H]1C[C@@H](C[C@@H]2CC1)OC(=O)C(O)(c3ccccc3)c4ccccc4

> <STRUCTURE_SMILES_Desalt>
C[N+]2(CCF)[C@H]1C[C@@H](C[C@@H]2CC1)OC(=O)C(O)(c3ccccc3)c4ccccc4

> <Substance_modify_yyyymmdd>
20111204

$$$$
