63547-13-7
ChemmineR-0915142007XD

 20 21  0  0  0  0  0  0  0  0  1 V2000
    4.6017   -1.9787    0.0000 S   0  0  0  0  0  0  0  0  0  0  0  0
    3.4697   -2.6690    0.0000 C   0  0  0  0  0  0  0  0  0  0  0  0
    2.3009   -1.9787    0.0000 C   0  0  0  0  0  0  0  0  0  0  0  0
    5.7338   -2.6690    0.0000 C   0  0  0  0  0  0  0  0  0  0  0  0
    4.6017   -0.6534    0.0000 O   0  0  0  0  0  0  0  0  0  0  0  0
    2.3009   -0.6534    0.0000 O   0  0  0  0  0  0  0  0  0  0  0  0
    1.1504   -2.6322    0.0000 N   0  0  0  0  0  0  0  0  0  0  0  0
    6.9026   -1.9787    0.0000 C   0  0  0  0  0  0  0  0  0  0  0  0
    5.7338   -3.9943    0.0000 C   0  0  0  0  0  0  0  0  0  0  0  0
    0.0000   -1.9787    0.0000 O   0  0  0  0  0  0  0  0  0  0  0  0
    6.9026   -4.6478    0.0000 C   0  0  0  0  0  0  0  0  0  0  0  0
    6.9026   -0.6534    0.0000 C   0  0  0  0  0  0  0  0  0  0  0  0
    4.6017   -4.6478    0.0000 C   0  0  0  0  0  0  0  0  0  0  0  0
    8.0530   -2.6690    0.0000 C   0  0  0  0  0  0  0  0  0  0  0  0
    4.6017   -5.9731    0.0000 C   0  0  0  0  0  0  0  0  0  0  0  0
    9.2035   -1.9787    0.0000 C   0  0  0  0  0  0  0  0  0  0  0  0
    8.0530    0.0000    0.0000 C   0  0  0  0  0  0  0  0  0  0  0  0
    6.9026   -5.9731    0.0000 C   0  0  0  0  0  0  0  0  0  0  0  0
    9.2035   -0.6534    0.0000 C   0  0  0  0  0  0  0  0  0  0  0  0
    5.7338   -6.6449    0.0000 C   0  0  0  0  0  0  0  0  0  0  0  0
  1  2  1  0  0  0  0
  1  4  1  0  0  0  0
  1  5  2  0  0  0  0
  2  3  1  0  0  0  0
  3  6  2  0  0  0  0
  3  7  1  0  0  0  0
  4  8  1  0  0  0  0
  4  9  1  0  0  0  0
  7 10  1  0  0  0  0
  8 12  1  0  0  0  0
  8 14  2  0  0  0  0
  9 11  1  0  0  0  0
  9 13  2  0  0  0  0
 11 18  2  0  0  0  0
 12 17  2  0  0  0  0
 13 15  1  0  0  0  0
 14 16  1  0  0  0  0
 15 20  2  0  0  0  0
 16 19  2  0  0  0  0
 17 19  1  0  0  0  0
 18 20  1  0  0  0  0
M  END
> <ID>
11733

> <Formula>
C15H15NO3S

> <FW>
289.3495

> <DSSTox_CID>
26498

> <DSSTox_RID>
81667

> <DSSTox_GSID>
46498

> <DSSTox_FileID_Sort>
6348

> <TS_ChemName>
Adrafinil

> <TS_ChemName_Synonyms>


> <TS_CASRN>
63547-13-7

> <CASRN_ChemName_Relationship>
primary

> <TS_Description>
single chemical compound

> <ChemNote>


> <STRUCTURE_Shown>
tested chemical

> <STRUCTURE_Formula>
C15H15NO3S

> <STRUCTURE_MW>
289.3495

> <STRUCTURE_ChemType>
defined organic

> <STRUCTURE_DefinedOrganicForm>
parent

> <STRUCTURE_IUPAC>
2-[(diphenylmethyl)sulfinyl]-N-hydroxyacetamide

> <STRUCTURE_SMILES>
O=S(CC(=O)NO)C(c1ccccc1)c2ccccc2

> <STRUCTURE_SMILES_Desalt>
O=S(CC(=O)NO)C(c1ccccc1)c2ccccc2

> <Substance_modify_yyyymmdd>
20110812

$$$$
