6359-90-6
ChemmineR-0915142007XD

 27 28  0  0  0  0  0  0  0  0  2 V2000
   11.1564   -2.3124    0.0000 C    0  0  0  0  0  0  0  0  0  0  0  0
   11.8321   -3.4686    0.0000 C    0  0  0  0  0  0  0  0  0  0  0  0
   11.1564   -4.6097    0.0000 C    0  0  0  0  0  0  0  0  0  0  0  0
    9.8351   -4.6097    0.0000 C    0  0  0  0  0  0  0  0  0  0  0  0
    9.1744   -3.4686    0.0000 C    0  0  0  0  0  0  0  0  0  0  0  0
    9.8351   -2.3124    0.0000 C    0  0  0  0  0  0  0  0  0  0  0  0
   11.8321   -1.1562    0.0000 S    0  0  0  0  0  0  0  0  0  0  0  0
   10.6759   -0.4955    0.0000 O    0  0  0  0  0  0  0  0  0  0  0  0
   12.9733   -1.8319    0.0000 O    0  5  0  0  0  0  0  0  0  0  0  0
   12.4928    0.0000    0.0000 O    0  0  0  0  0  0  0  0  0  0  0  0
    9.1744   -5.7659    0.0000 Cl   0  0  0  0  0  0  0  0  0  0  0  0
    7.0572   -2.3874    0.0000 N    0  0  0  0  0  0  0  0  0  0  0  0
    7.8380   -3.4686    0.0000 N    0  0  0  0  0  0  0  0  0  0  0  0
    5.7959   -4.1292    0.0000 C    0  0  0  0  0  0  0  0  0  0  0  0
    7.0572   -4.5346    0.0000 C    0  0  0  0  0  0  0  0  0  0  0  0
    5.7959   -2.8079    0.0000 C    0  0  0  0  0  0  0  0  0  0  0  0
    4.7148   -2.0121    0.0000 C    0  0  0  0  0  0  0  0  0  0  0  0
    7.4476   -5.7959    0.0000 O    0  0  0  0  0  0  0  0  0  0  0  0
    3.4986   -4.3695    0.0000 N    0  0  0  0  0  0  0  0  0  0  0  0
    4.7148   -4.9100    0.0000 N    0  0  0  0  0  0  0  0  0  0  0  0
    0.0150   -4.8950    0.0000 C    0  0  0  0  0  0  0  0  0  0  0  0
    0.0000   -6.2164    0.0000 C    0  0  0  0  0  0  0  0  0  0  0  0
    1.1262   -6.9371    0.0000 C    0  0  0  0  0  0  0  0  0  0  0  0
    2.3124   -6.3065    0.0000 C    0  0  0  0  0  0  0  0  0  0  0  0
    2.3124   -4.9851    0.0000 C    0  0  0  0  0  0  0  0  0  0  0  0
    1.1862   -4.2644    0.0000 C    0  0  0  0  0  0  0  0  0  0  0  0
   15.0154   -3.6337    0.0000 Na   0  3  0  0  0  0  0  0  0  0  0  0
  1  2  2  0  0  0  0
  1  6  1  0  0  0  0
  1  7  1  0  0  0  0
  2  3  1  0  0  0  0
  3  4  2  0  0  0  0
  4  5  1  0  0  0  0
  4 11  1  0  0  0  0
  5  6  2  0  0  0  0
  5 13  1  0  0  0  0
  7  8  2  0  0  0  0
  7  9  1  0  0  0  0
  7 10  2  0  0  0  0
 12 13  1  0  0  0  0
 12 16  2  0  0  0  0
 13 15  1  0  0  0  0
 14 15  1  0  0  0  0
 14 16  1  0  0  0  0
 14 20  1  0  0  0  0
 15 18  2  0  0  0  0
 16 17  1  0  0  0  0
 19 25  1  0  0  0  0
 19 20  2  0  0  0  0
 21 26  2  0  0  0  0
 21 22  1  0  0  0  0
 22 23  2  0  0  0  0
 23 24  1  0  0  0  0
 24 25  2  0  0  0  0
 25 26  1  0  0  0  0
M  END
> <ID>
8606

> <Formula>
C16H12ClN4NaO4S

> <FW>
414.7986 (391.8094+22.9892)

> <DSSTox_CID>
21646

> <DSSTox_RID>
79802

> <DSSTox_GSID>
41646

> <DSSTox_FileID_Sort>
4484

> <TS_ChemName>
Benzenesulfonic acid, 4-chloro-3-[4,5-dihydro-3-methyl-5-oxo-4-(phenylazo)-1H-pyrazol-1-yl]-, sodium salt

> <TS_ChemName_Synonyms>


> <TS_CASRN>
6359-90-6

> <CASRN_ChemName_Relationship>
primary

> <TS_Description>
single chemical compound

> <ChemNote>
C.I. 18890; parent [70693-51-5]

> <STRUCTURE_Shown>
tested chemical

> <STRUCTURE_Formula>
C16H12ClN4NaO4S

> <STRUCTURE_MW>
414.7986

> <STRUCTURE_ChemType>
defined organic

> <STRUCTURE_DefinedOrganicForm>
salt

> <STRUCTURE_IUPAC>
sodium 4-chloro-3-{3-methyl-5-oxo-4-[(E)-phenyldiazenyl]-4,5-dihydro-1H-pyrazol-1-yl}benzenesulfonate

> <STRUCTURE_SMILES>
[Na+].[O-]S(=O)(=O)c1ccc(Cl)c(c1)N3N=C(C)C(/N=N/c2ccccc2)C3=O

> <STRUCTURE_SMILES_Desalt>
O=S(=O)(O)c1ccc(Cl)c(c1)N3N=C(C)C(/N=N/c2ccccc2)C3=O

> <Substance_modify_yyyymmdd>
20080825

$$$$
