6359-82-6
ChemmineR-0915142007XD

 26 27  0  0  0  0  0  0  0  0  2 V2000
   16.3270    0.0000    0.0000 Na   0  3  0  0  0  0  0  0  0  0  0  0
   12.4085   -1.5347    0.0000 C    0  0  0  0  0  0  0  0  0  0  0  0
   11.7391   -0.3755    0.0000 C    0  0  0  0  0  0  0  0  0  0  0  0
   10.4003   -0.3755    0.0000 C    0  0  0  0  0  0  0  0  0  0  0  0
    9.7309   -1.5347    0.0000 C    0  0  0  0  0  0  0  0  0  0  0  0
   10.4003   -2.6940    0.0000 C    0  0  0  0  0  0  0  0  0  0  0  0
   11.7391   -2.6940    0.0000 C    0  0  0  0  0  0  0  0  0  0  0  0
   13.7473   -1.5347    0.0000 S    0  0  0  0  0  0  0  0  0  0  0  0
   13.7473   -2.8572    0.0000 O    0  0  0  0  0  0  0  0  0  0  0  0
   13.7473   -0.1959    0.0000 O    0  5  0  0  0  0  0  0  0  0  0  0
   15.0862   -1.5347    0.0000 O    0  0  0  0  0  0  0  0  0  0  0  0
    7.6084   -0.4572    0.0000 N    0  0  0  0  0  0  0  0  0  0  0  0
    8.3921   -1.5347    0.0000 N    0  0  0  0  0  0  0  0  0  0  0  0
    6.3349   -2.1878    0.0000 C    0  0  0  0  0  0  0  0  0  0  0  0
    7.6084   -2.6123    0.0000 C    0  0  0  0  0  0  0  0  0  0  0  0
    6.3349   -0.8490    0.0000 C    0  0  0  0  0  0  0  0  0  0  0  0
    5.2573   -0.0816    0.0000 C    0  0  0  0  0  0  0  0  0  0  0  0
    8.0166   -3.8695    0.0000 O    0  0  0  0  0  0  0  0  0  0  0  0
    4.0328   -2.7919    0.0000 N    0  0  0  0  0  0  0  0  0  0  0  0
    5.3226   -2.7593    0.0000 N    0  0  0  0  0  0  0  0  0  0  0  0
    0.6694   -3.9185    0.0000 C    0  0  0  0  0  0  0  0  0  0  0  0
    0.0000   -2.7429    0.0000 C    0  0  0  0  0  0  0  0  0  0  0  0
    0.6857   -1.5837    0.0000 C    0  0  0  0  0  0  0  0  0  0  0  0
    2.0409   -1.6000    0.0000 C    0  0  0  0  0  0  0  0  0  0  0  0
    2.6940   -2.7756    0.0000 C    0  0  0  0  0  0  0  0  0  0  0  0
    2.0082   -3.9348    0.0000 C    0  0  0  0  0  0  0  0  0  0  0  0
  2  3  2  0  0  0  0
  2  7  1  0  0  0  0
  2  8  1  0  0  0  0
  3  4  1  0  0  0  0
  4  5  2  0  0  0  0
  5  6  1  0  0  0  0
  5 13  1  0  0  0  0
  6  7  2  0  0  0  0
  8  9  2  0  0  0  0
  8 10  1  0  0  0  0
  8 11  2  0  0  0  0
 12 13  1  0  0  0  0
 12 16  2  0  0  0  0
 13 15  1  0  0  0  0
 14 15  1  0  0  0  0
 14 16  1  0  0  0  0
 14 20  1  0  0  0  0
 15 18  2  0  0  0  0
 16 17  1  0  0  0  0
 19 25  1  0  0  0  0
 19 20  2  0  0  0  0
 21 26  2  0  0  0  0
 21 22  1  0  0  0  0
 22 23  2  0  0  0  0
 23 24  1  0  0  0  0
 24 25  2  0  0  0  0
 25 26  1  0  0  0  0
M  END
> <ID>
12591

> <Formula>
C16H13N4NaO4S

> <FW>
380.3536 (22.9892+357.3644)

> <DSSTox_CID>
27451

> <DSSTox_RID>
82356

> <DSSTox_GSID>
47451

> <DSSTox_FileID_Sort>
7037

> <TS_ChemName>
Acid yellow 11

> <TS_ChemName_Synonyms>


> <TS_CASRN>
6359-82-6

> <CASRN_ChemName_Relationship>
primary

> <TS_Description>
single chemical compound

> <ChemNote>
tautomers; C.I. 18820

> <STRUCTURE_Shown>
tested chemical

> <STRUCTURE_Formula>
C16H13N4NaO4S

> <STRUCTURE_MW>
380.3536

> <STRUCTURE_ChemType>
defined organic

> <STRUCTURE_DefinedOrganicForm>
salt

> <STRUCTURE_IUPAC>
sodium 4-[3-methyl-5-oxo-4-(phenyldiazenyl)-4,5-dihydro-1H-pyrazol-1-yl]benzenesulfonate

> <STRUCTURE_SMILES>
[Na+].[O-]S(=O)(=O)c1ccc(cc1)N3N=C(C)C(\N=N/c2ccccc2)C3=O

> <STRUCTURE_SMILES_Desalt>
O=S(=O)(O)c1ccc(cc1)N3N=C(C)C(\N=N/c2ccccc2)C3=O

> <Substance_modify_yyyymmdd>
20100620

$$$$
