6359-98-4
ChemmineR-0915142007XD

 33 33  0  0  0  0  0  0  0  0  2 V2000
    5.3446   -5.6397    0.0000 C    0  0  0  0  0  0  0  0  0  0  0  0
    4.6724   -6.7873    0.0000 C    0  0  0  0  0  0  0  0  0  0  0  0
    4.6724   -4.4757    0.0000 C    0  0  0  0  0  0  0  0  0  0  0  0
    3.3445   -6.7873    0.0000 C    0  0  0  0  0  0  0  0  0  0  0  0
    3.3445   -4.4757    0.0000 C    0  0  0  0  0  0  0  0  0  0  0  0
    2.6723   -5.6397    0.0000 C    0  0  0  0  0  0  0  0  0  0  0  0
    6.6725   -5.6397    0.0000 N    0  0  0  0  0  0  0  0  0  0  0  0
    7.4595   -6.6889    0.0000 N    0  0  0  0  0  0  0  0  0  0  0  0
    7.4595   -4.5413    0.0000 C    0  0  0  0  0  0  0  0  0  0  0  0
    8.7054   -6.2955    0.0000 C    0  0  0  0  0  0  0  0  0  0  0  0
    8.7054   -4.9511    0.0000 C    0  0  0  0  0  0  0  0  0  0  0  0
    1.3279   -5.6397    0.0000 S    0  0  0  0  0  0  0  0  0  0  0  0
    1.3279   -4.3117    0.0000 O    0  5  0  0  0  0  0  0  0  0  0  0
    1.3279   -6.9676    0.0000 O    0  0  0  0  0  0  0  0  0  0  0  0
    0.0000   -5.6397    0.0000 O    0  0  0  0  0  0  0  0  0  0  0  0
    2.6723   -3.3281    0.0000 Cl   0  0  0  0  0  0  0  0  0  0  0  0
    5.3446   -7.9349    0.0000 Cl   0  0  0  0  0  0  0  0  0  0  0  0
    9.7875   -7.0824    0.0000 C    0  0  0  0  0  0  0  0  0  0  0  0
    7.0496   -3.2953    0.0000 O    0  0  0  0  0  0  0  0  0  0  0  0
    9.7875   -4.1806    0.0000 N    0  0  0  0  0  0  0  0  0  0  0  0
   11.0171   -4.7216    0.0000 N    0  0  0  0  0  0  0  0  0  0  0  0
   12.0991   -3.9347    0.0000 C    0  0  0  0  0  0  0  0  0  0  0  0
   11.9515   -2.6231    0.0000 C    0  0  0  0  0  0  0  0  0  0  0  0
   13.3123   -4.4757    0.0000 C    0  0  0  0  0  0  0  0  0  0  0  0
   13.0336   -1.8362    0.0000 C    0  0  0  0  0  0  0  0  0  0  0  0
   14.3943   -3.7051    0.0000 C    0  0  0  0  0  0  0  0  0  0  0  0
   14.2632   -2.3772    0.0000 C    0  0  0  0  0  0  0  0  0  0  0  0
   15.3124   -1.5903    0.0000 S    0  0  0  0  0  0  0  0  0  0  0  0
   14.5419   -0.5082    0.0000 O    0  5  0  0  0  0  0  0  0  0  0  0
   16.0993   -2.6559    0.0000 O    0  0  0  0  0  0  0  0  0  0  0  0
   16.3944   -0.8197    0.0000 O    0  0  0  0  0  0  0  0  0  0  0  0
    0.2787   -3.9183    0.0000 Na   0  3  0  0  0  0  0  0  0  0  0  0
   15.6731    0.0000    0.0000 Na   0  3  0  0  0  0  0  0  0  0  0  0
  1  2  1  0  0  0  0
  1  3  2  0  0  0  0
  1  7  1  0  0  0  0
  2  4  2  0  0  0  0
  2 17  1  0  0  0  0
  3  5  1  0  0  0  0
  4  6  1  0  0  0  0
  5  6  2  0  0  0  0
  5 16  1  0  0  0  0
  6 12  1  0  0  0  0
  7  8  1  0  0  0  0
  7  9  1  0  0  0  0
  8 10  2  0  0  0  0
  9 11  1  0  0  0  0
  9 19  2  0  0  0  0
 10 11  1  0  0  0  0
 10 18  1  0  0  0  0
 11 20  1  0  0  0  0
 12 13  1  0  0  0  0
 12 14  2  0  0  0  0
 12 15  2  0  0  0  0
 20 21  2  0  0  0  0
 21 22  1  0  0  0  0
 22 23  1  0  0  0  0
 22 24  2  0  0  0  0
 23 25  2  0  0  0  0
 24 26  1  0  0  0  0
 25 27  1  0  0  0  0
 26 27  2  0  0  0  0
 27 28  1  0  0  0  0
 28 29  1  0  0  0  0
 28 30  2  0  0  0  0
 28 31  2  0  0  0  0
M  END
> <ID>
8674

> <Formula>
C16H10Cl2N4Na2O7S2

> <FW>
551.2887 (505.3103+22.9892+22.9892)

> <DSSTox_CID>
21719

> <DSSTox_RID>
79830

> <DSSTox_GSID>
41719

> <DSSTox_FileID_Sort>
4512

> <TS_ChemName>
C.I. Acid yellow 17, disodium salt

> <TS_ChemName_Synonyms>
Xylene Fast Yellow 2G

> <TS_CASRN>
6359-98-4

> <CASRN_ChemName_Relationship>
primary

> <TS_Description>
single chemical compound

> <ChemNote>
C.I.18965; parent [25739-65-5]

> <STRUCTURE_Shown>
tested chemical

> <STRUCTURE_Formula>
C16H10Cl2N4Na2O7S2

> <STRUCTURE_MW>
551.2887

> <STRUCTURE_ChemType>
defined organic

> <STRUCTURE_DefinedOrganicForm>
salt

> <STRUCTURE_IUPAC>
disodium 2,5-dichloro-4-{3-methyl-5-oxo-4-[(E)-(4-sulfonatophenyl)diazenyl]-4,5-dihydro-1H-pyrazol-1-yl}benzenesulfonate

> <STRUCTURE_SMILES>
[Na+].[Na+].[O-]S(=O)(=O)c1ccc(cc1)/N=N/C2C(=O)N(N=C2C)c3cc(Cl)c(cc3Cl)S([O-])(=O)=O

> <STRUCTURE_SMILES_Desalt>
O=S(=O)(O)c1ccc(cc1)/N=N/C2C(=O)N(N=C2C)c3cc(Cl)c(cc3Cl)S(=O)(=O)O

> <Substance_modify_yyyymmdd>
20080825

$$$$
