636-54-4
ChemmineR-0915142007XD

 22 23  0  0  0  0  0  0  0  0  1 V2000
    1.9952   -4.6088    0.0000 C    0  0  0  0  0  0  0  0  0  0  0  0
    1.3268   -3.4616    0.0000 C    0  0  0  0  0  0  0  0  0  0  0  0
    0.0000   -3.4616    0.0000 Cl   0  0  0  0  0  0  0  0  0  0  0  0
    1.9952   -2.3044    0.0000 C    0  0  0  0  0  0  0  0  0  0  0  0
    1.3268   -1.1572    0.0000 S    0  0  0  0  0  0  0  0  0  0  0  0
    2.4840   -0.4888    0.0000 O    0  0  0  0  0  0  0  0  0  0  0  0
    0.1796   -1.8156    0.0000 O    0  0  0  0  0  0  0  0  0  0  0  0
    0.6684    0.0000    0.0000 N    0  0  0  0  0  0  0  0  0  0  0  0
    3.3219   -2.3044    0.0000 C    0  0  0  0  0  0  0  0  0  0  0  0
    3.9903   -3.4616    0.0000 C    0  0  0  0  0  0  0  0  0  0  0  0
    5.3171   -3.4616    0.0000 C    0  0  0  0  0  0  0  0  0  0  0  0
    5.9855   -4.6088    0.0000 O    0  0  0  0  0  0  0  0  0  0  0  0
    5.9855   -2.3044    0.0000 N    0  0  0  0  0  0  0  0  0  0  0  0
    7.3123   -2.3044    0.0000 N    0  0  0  0  0  0  0  0  0  0  0  0
    7.9806   -1.1572    0.0000 C    0  0  0  0  0  0  0  0  0  0  0  0
    7.3123    0.0000    0.0000 C    0  0  0  0  0  0  0  0  0  0  0  0
    9.3074   -1.1572    0.0000 C    0  0  0  0  0  0  0  0  0  0  0  0
    9.9758   -2.3044    0.0000 C    0  0  0  0  0  0  0  0  0  0  0  0
    9.3074   -3.4616    0.0000 C    0  0  0  0  0  0  0  0  0  0  0  0
    7.9806   -3.4616    0.0000 C    0  0  0  0  0  0  0  0  0  0  0  0
    7.3123   -4.6088    0.0000 C    0  0  0  0  0  0  0  0  0  0  0  0
    3.3219   -4.6088    0.0000 C    0  0  0  0  0  0  0  0  0  0  0  0
  1  2  2  0  0  0  0
  1 22  1  0  0  0  0
  2  3  1  0  0  0  0
  2  4  1  0  0  0  0
  4  5  1  0  0  0  0
  4  9  2  0  0  0  0
  5  6  2  0  0  0  0
  5  7  2  0  0  0  0
  5  8  1  0  0  0  0
  9 10  1  0  0  0  0
 10 11  1  0  0  0  0
 10 22  2  0  0  0  0
 11 12  2  0  0  0  0
 11 13  1  0  0  0  0
 13 14  1  0  0  0  0
 14 15  1  0  0  0  0
 14 20  1  0  0  0  0
 15 16  1  0  0  0  0
 15 17  1  0  0  0  0
 17 18  1  0  0  0  0
 18 19  1  0  0  0  0
 19 20  1  0  0  0  0
 20 21  1  0  0  0  0
M  END
> <ID>
2573

> <Formula>
C14H20ClN3O3S

> <FW>
345.8449

> <DSSTox_CID>
2847

> <DSSTox_RID>
76757

> <DSSTox_GSID>
22847

> <DSSTox_FileID_Sort>
1441

> <TS_ChemName>
Clopamide

> <TS_ChemName_Synonyms>


> <TS_CASRN>
636-54-4

> <CASRN_ChemName_Relationship>
primary

> <TS_Description>
single chemical compound

> <ChemNote>


> <STRUCTURE_Shown>
tested chemical

> <STRUCTURE_Formula>
C14H20ClN3O3S

> <STRUCTURE_MW>
345.8449

> <STRUCTURE_ChemType>
defined organic

> <STRUCTURE_DefinedOrganicForm>
parent

> <STRUCTURE_IUPAC>
4-chloro-N-(2,6-dimethylpiperidin-1-yl)-3-sulfamoylbenzamide

> <STRUCTURE_SMILES>
O=C(NN1C(C)CCCC1C)c2ccc(Cl)c(c2)S(N)(=O)=O

> <STRUCTURE_SMILES_Desalt>
O=C(NN1C(C)CCCC1C)c2ccc(Cl)c(c2)S(N)(=O)=O

> <Substance_modify_yyyymmdd>
20080429

$$$$
