636-26-0
ChemmineR-0915142007XD

  9  9  0  0  0  0  0  0  0  0  1 V2000
    2.3101   -2.7120    0.0000 C   0  0  0  0  0  0  0  0  0  0  0  0
    1.1550   -2.0190    0.0000 C   0  0  0  0  0  0  0  0  0  0  0  0
    3.4420   -2.0421    0.0000 N   0  0  0  0  0  0  0  0  0  0  0  0
    2.3101   -4.0426    0.0000 O   0  0  0  0  0  0  0  0  0  0  0  0
    1.1550   -0.7115    0.0000 C   0  0  0  0  0  0  0  0  0  0  0  0
    0.0000   -2.6889    0.0000 C   0  0  0  0  0  0  0  0  0  0  0  0
    3.4420   -0.7115    0.0000 C   0  0  0  0  0  0  0  0  0  0  0  0
    2.3101   -0.0647    0.0000 N   0  0  0  0  0  0  0  0  0  0  0  0
    4.6201    0.0000    0.0000 S   0  0  0  0  0  0  0  0  0  0  0  0
  1  2  1  0  0  0  0
  1  3  1  0  0  0  0
  1  4  2  0  0  0  0
  2  5  2  0  0  0  0
  2  6  1  0  0  0  0
  3  7  1  0  0  0  0
  5  8  1  0  0  0  0
  7  9  2  0  0  0  0
  7  8  1  0  0  0  0
M  END
> <ID>
4333

> <Formula>
C5H6N2OS

> <FW>
142.1789

> <DSSTox_CID>
5665

> <DSSTox_RID>
77875

> <DSSTox_GSID>
25665

> <DSSTox_FileID_Sort>
2558

> <TS_ChemName>
5-Methyl-2-thiouracil

> <TS_ChemName_Synonyms>


> <TS_CASRN>
636-26-0

> <CASRN_ChemName_Relationship>
primary

> <TS_Description>
single chemical compound

> <ChemNote>


> <STRUCTURE_Shown>
tested chemical

> <STRUCTURE_Formula>
C5H6N2OS

> <STRUCTURE_MW>
142.1789

> <STRUCTURE_ChemType>
defined organic

> <STRUCTURE_DefinedOrganicForm>
parent

> <STRUCTURE_IUPAC>
5-methyl-2-thioxo-2,3-dihydropyrimidin-4(1H)-one

> <STRUCTURE_SMILES>
CC1=CNC(=S)NC1=O

> <STRUCTURE_SMILES_Desalt>
CC1=CNC(=S)NC1=O

> <Substance_modify_yyyymmdd>
20080429

$$$$
