636-47-5
ChemmineR-0915142007XD

 35 37  0  0  0  0  0  0  0  0  1 V2000
   16.5671    0.0000    0.0000 C   0  0  0  0  0  0  0  0  0  0  0  0
   17.6486   -0.7823    0.0000 N   0  0  0  0  0  0  0  0  0  0  0  0
   18.9141   -0.3682    0.0000 C   0  0  0  0  0  0  0  0  0  0  0  0
   19.6965   -1.4496    0.0000 C   0  0  0  0  0  0  0  0  0  0  0  0
   21.0080   -1.4496    0.0000 N   0  0  0  0  0  0  0  0  0  0  0  0
   21.6753   -0.2991    0.0000 C   0  0  0  0  0  0  0  0  0  0  0  0
   23.0099   -0.2991    0.0000 O   0  0  0  0  0  0  0  0  0  0  0  0
   18.9141   -2.5311    0.0000 C   0  0  0  0  0  0  0  0  0  0  0  0
   17.6486   -2.1169    0.0000 C   0  0  0  0  0  0  0  0  0  0  0  0
   16.5671   -2.8992    0.0000 C   0  0  0  0  0  0  0  0  0  0  0  0
   16.7052   -4.2108    0.0000 O   0  0  0  0  0  0  0  0  0  0  0  0
   15.3476   -2.3470    0.0000 N   0  0  0  0  0  0  0  0  0  0  0  0
   14.2892   -3.1293    0.0000 C   0  0  0  0  0  0  0  0  0  0  0  0
   14.2892   -4.4639    0.0000 C   0  0  0  0  0  0  0  0  0  0  0  0
   13.0236   -4.8781    0.0000 N   0  0  0  0  0  0  0  0  0  0  0  0
   12.6094   -6.1436    0.0000 C   0  0  0  0  0  0  0  0  0  0  0  0
   12.2413   -3.7966    0.0000 C   0  0  0  0  0  0  0  0  0  0  0  0
   13.0236   -2.7152    0.0000 C   0  0  0  0  0  0  0  0  0  0  0  0
   10.9067   -3.7966    0.0000 C   0  0  0  0  0  0  0  0  0  0  0  0
   10.2394   -2.6461    0.0000 O   0  0  0  0  0  0  0  0  0  0  0  0
   10.2394   -4.9471    0.0000 N   0  0  0  0  0  0  0  0  0  0  0  0
    8.9048   -4.9471    0.0000 C   0  0  0  0  0  0  0  0  0  0  0  0
    8.1225   -6.0286    0.0000 C   0  0  0  0  0  0  0  0  0  0  0  0
    6.8570   -5.6144    0.0000 N   0  0  0  0  0  0  0  0  0  0  0  0
    5.7985   -6.3968    0.0000 C   0  0  0  0  0  0  0  0  0  0  0  0
    6.8570   -4.2798    0.0000 C   0  0  0  0  0  0  0  0  0  0  0  0
    8.1225   -3.8657    0.0000 C   0  0  0  0  0  0  0  0  0  0  0  0
    5.7985   -3.4975    0.0000 C   0  0  0  0  0  0  0  0  0  0  0  0
    5.9366   -2.1859    0.0000 O   0  0  0  0  0  0  0  0  0  0  0  0
    4.5790   -4.0497    0.0000 N   0  0  0  0  0  0  0  0  0  0  0  0
    3.4975   -3.2674    0.0000 C   0  0  0  0  0  0  0  0  0  0  0  0
    2.2780   -3.7966    0.0000 C   0  0  0  0  0  0  0  0  0  0  0  0
    1.2195   -3.0143    0.0000 C   0  0  0  0  0  0  0  0  0  0  0  0
    0.0000   -3.5665    0.0000 N   0  0  0  0  0  0  0  0  0  0  0  0
    1.3576   -1.7027    0.0000 N   0  0  0  0  0  0  0  0  0  0  0  0
  1  2  1  0  0  0  0
  2  3  1  0  0  0  0
  2  9  1  0  0  0  0
  3  4  2  0  0  0  0
  4  5  1  0  0  0  0
  4  8  1  0  0  0  0
  5  6  1  0  0  0  0
  6  7  2  0  0  0  0
  8  9  2  0  0  0  0
  9 10  1  0  0  0  0
 10 11  2  0  0  0  0
 10 12  1  0  0  0  0
 12 13  1  0  0  0  0
 13 14  2  0  0  0  0
 13 18  1  0  0  0  0
 14 15  1  0  0  0  0
 15 16  1  0  0  0  0
 15 17  1  0  0  0  0
 17 18  2  0  0  0  0
 17 19  1  0  0  0  0
 19 20  2  0  0  0  0
 19 21  1  0  0  0  0
 21 22  1  0  0  0  0
 22 23  2  0  0  0  0
 22 27  1  0  0  0  0
 23 24  1  0  0  0  0
 24 25  1  0  0  0  0
 24 26  1  0  0  0  0
 26 27  2  0  0  0  0
 26 28  1  0  0  0  0
 28 29  2  0  0  0  0
 28 30  1  0  0  0  0
 30 31  1  0  0  0  0
 31 32  1  0  0  0  0
 32 33  1  0  0  0  0
 33 34  1  0  0  0  0
 33 35  2  0  0  0  0
M  END
> <ID>
11086

> <Formula>
C22H27N9O4

> <FW>
481.5077

> <DSSTox_CID>
25637

> <DSSTox_RID>
81018

> <DSSTox_GSID>
45637

> <DSSTox_FileID_Sort>
5699

> <TS_ChemName>
Stallimycin

> <TS_ChemName_Synonyms>


> <TS_CASRN>
636-47-5

> <CASRN_ChemName_Relationship>
primary

> <TS_Description>
single chemical compound

> <ChemNote>


> <STRUCTURE_Shown>
tested chemical

> <STRUCTURE_Formula>
C22H27N9O4

> <STRUCTURE_MW>
481.5077

> <STRUCTURE_ChemType>
defined organic

> <STRUCTURE_DefinedOrganicForm>
parent

> <STRUCTURE_IUPAC>
N-[5-({5-[(3-amino-3-iminopropyl)carbamoyl]-1-methyl-1H-pyrrol-3-yl}carbamoyl)-1-methyl-1H-pyrrol-3-yl]-4-(formylamino)-1-methyl-1H-pyrrole-2-carboxamide

> <STRUCTURE_SMILES>
O=C(Nc1cc(C(=O)NCCC(=N)N)n(C)c1)c3cc(NC(=O)c2cc(NC=O)cn2C)cn3C

> <STRUCTURE_SMILES_Desalt>
O=C(Nc1cc(C(=O)NCCC(=N)N)n(C)c1)c3cc(NC(=O)c2cc(NC=O)cn2C)cn3C

> <Substance_modify_yyyymmdd>
20100107

$$$$
