63610-08-2
ChemmineR-0915142007XD

 22 24  0  0  0  0  0  0  0  0  1 V2000
    9.8503   -7.4070    0.0000 C   0  0  0  0  0  0  0  0  0  0  0  0
    8.7057   -6.7466    0.0000 C   0  0  0  0  0  0  0  0  0  0  0  0
    8.7057   -5.4149    0.0000 C   0  0  0  0  0  0  0  0  0  0  0  0
    9.8503   -4.7436    0.0000 C   0  0  0  0  0  0  0  0  0  0  0  0
   11.0059   -5.4149    0.0000 O   0  0  0  0  0  0  0  0  0  0  0  0
    9.8503   -3.4228    0.0000 O   0  0  0  0  0  0  0  0  0  0  0  0
    7.5501   -4.7436    0.0000 C   0  0  0  0  0  0  0  0  0  0  0  0
    7.5501   -3.4228    0.0000 C   0  0  0  0  0  0  0  0  0  0  0  0
    6.4055   -2.7515    0.0000 C   0  0  0  0  0  0  0  0  0  0  0  0
    5.2498   -3.4228    0.0000 C   0  0  0  0  0  0  0  0  0  0  0  0
    5.2498   -4.7436    0.0000 C   0  0  0  0  0  0  0  0  0  0  0  0
    6.4055   -5.4149    0.0000 C   0  0  0  0  0  0  0  0  0  0  0  0
    4.0942   -2.7515    0.0000 N   0  0  0  0  0  0  0  0  0  0  0  0
    3.9621   -1.4308    0.0000 C   0  0  0  0  0  0  0  0  0  0  0  0
    2.6634   -1.1556    0.0000 C   0  0  0  0  0  0  0  0  0  0  0  0
    1.9921    0.0000    0.0000 C   0  0  0  0  0  0  0  0  0  0  0  0
    0.6604    0.0000    0.0000 C   0  0  0  0  0  0  0  0  0  0  0  0
    0.0000   -1.1556    0.0000 C   0  0  0  0  0  0  0  0  0  0  0  0
    0.6604   -2.3112    0.0000 C   0  0  0  0  0  0  0  0  0  0  0  0
    1.9921   -2.3112    0.0000 C   0  0  0  0  0  0  0  0  0  0  0  0
    2.8836   -3.2908    0.0000 C   0  0  0  0  0  0  0  0  0  0  0  0
    2.6084   -4.6005    0.0000 O   0  0  0  0  0  0  0  0  0  0  0  0
  1  2  1  0  0  0  0
  2  3  1  0  0  0  0
  3  4  1  0  0  0  0
  3  7  1  0  0  0  0
  4  5  1  0  0  0  0
  4  6  2  0  0  0  0
  7  8  2  0  0  0  0
  7 12  1  0  0  0  0
  8  9  1  0  0  0  0
  9 10  2  0  0  0  0
 10 11  1  0  0  0  0
 10 13  1  0  0  0  0
 11 12  2  0  0  0  0
 13 14  1  0  0  0  0
 13 21  1  0  0  0  0
 14 15  1  0  0  0  0
 15 16  2  0  0  0  0
 15 20  1  0  0  0  0
 16 17  1  0  0  0  0
 17 18  2  0  0  0  0
 18 19  1  0  0  0  0
 19 20  2  0  0  0  0
 20 21  1  0  0  0  0
 21 22  2  0  0  0  0
M  END
> <ID>
16188

> <Formula>
C18H17NO3

> <FW>
295.3325

> <DSSTox_CID>
31578

> <DSSTox_RID>
97463

> <DSSTox_GSID>
57789

> <DSSTox_FileID_Sort>
8530

> <TS_ChemName>
Indobufen

> <TS_ChemName_Synonyms>


> <TS_CASRN>
63610-08-2

> <CASRN_ChemName_Relationship>
primary

> <TS_Description>
single chemical compound

> <ChemNote>


> <STRUCTURE_Shown>
tested chemical

> <STRUCTURE_Formula>
C18H17NO3

> <STRUCTURE_MW>
295.3325

> <STRUCTURE_ChemType>
defined organic

> <STRUCTURE_DefinedOrganicForm>
parent

> <STRUCTURE_IUPAC>
2-[4-(1-oxo-1,3-dihydro-2H-isoindol-2-yl)phenyl]butanoic acid

> <STRUCTURE_SMILES>
O=C(O)C(CC)c1ccc(cc1)N2Cc3ccccc3C2=O

> <STRUCTURE_SMILES_Desalt>
O=C(O)C(CC)c1ccc(cc1)N2Cc3ccccc3C2=O

> <Substance_modify_yyyymmdd>
20131018

$$$$
