63612-50-0
ChemmineR-0915142007XD

 22 23  0  0  0  0  0  0  0  0  2 V2000
    3.0767   -2.3387    0.0000 N   0  0  0  0  0  0  0  0  0  0  0  0
    2.7833   -1.0137    0.0000 C   0  0  0  0  0  0  0  0  0  0  0  0
    6.5447   -3.0145    0.0000 C   0  0  0  0  0  0  0  0  0  0  0  0
    1.9207   -3.0145    0.0000 C   0  0  0  0  0  0  0  0  0  0  0  0
    1.4672   -0.8892    0.0000 N   0  0  0  0  0  0  0  0  0  0  0  0
    7.7185   -5.0241    0.0000 N   0  3  0  0  0  0  0  0  0  0  0  0
    4.2327   -3.0145    0.0000 C   0  0  0  0  0  0  0  0  0  0  0  0
    0.9159   -2.0986    0.0000 C   0  0  0  0  0  0  0  0  0  0  0  0
    6.5447   -4.3394    0.0000 C   0  0  0  0  0  0  0  0  0  0  0  0
    7.7185   -2.3209    0.0000 C   0  0  0  0  0  0  0  0  0  0  0  0
    5.3798   -2.3387    0.0000 C   0  0  0  0  0  0  0  0  0  0  0  0
    5.3798   -5.0152    0.0000 C   0  0  0  0  0  0  0  0  0  0  0  0
    3.6903    0.0000    0.0000 O   0  0  0  0  0  0  0  0  0  0  0  0
    7.7185   -6.3491    0.0000 O   0  5  0  0  0  0  0  0  0  0  0  0
    8.8744   -4.3483    0.0000 O   0  0  0  0  0  0  0  0  0  0  0  0
    1.9207   -4.3394    0.0000 O   0  0  0  0  0  0  0  0  0  0  0  0
    4.2327   -4.3394    0.0000 C   0  0  0  0  0  0  0  0  0  0  0  0
    8.8922   -1.6628    0.0000 F   0  0  0  0  0  0  0  0  0  0  0  0
    8.3943   -3.4946    0.0000 F   0  0  0  0  0  0  0  0  0  0  0  0
    7.0515   -1.1471    0.0000 F   0  0  0  0  0  0  0  0  0  0  0  0
    0.4357   -3.1923    0.0000 C   0  0  0  0  0  0  0  0  0  0  0  0
    0.0000   -1.2894    0.0000 C   0  0  0  0  0  0  0  0  0  0  0  0
  1  2  1  0  0  0  0
  1  4  1  0  0  0  0
  1  7  1  0  0  0  0
  2  5  1  0  0  0  0
  2 13  2  0  0  0  0
  3 11  1  0  0  0  0
  3 10  1  0  0  0  0
  3  9  2  0  0  0  0
  4  8  1  0  0  0  0
  4 16  2  0  0  0  0
  5  8  1  0  0  0  0
  6  9  1  0  0  0  0
  6 14  1  0  0  0  0
  6 15  2  0  0  0  0
  7 11  2  0  0  0  0
  7 17  1  0  0  0  0
  8 21  1  0  0  0  0
  8 22  1  0  0  0  0
  9 12  1  0  0  0  0
 10 18  1  0  0  0  0
 10 19  1  0  0  0  0
 10 20  1  0  0  0  0
 12 17  2  0  0  0  0
M  END
> <ID>
6670

> <Formula>
C12H10F3N3O4

> <FW>
317.2207

> <DSSTox_CID>
14165

> <DSSTox_RID>
79118

> <DSSTox_GSID>
34165

> <DSSTox_FileID_Sort>
3800

> <TS_ChemName>
Nilutamide

> <TS_ChemName_Synonyms>


> <TS_CASRN>
63612-50-0

> <CASRN_ChemName_Relationship>
primary

> <TS_Description>
single chemical compound

> <ChemNote>


> <STRUCTURE_Shown>
tested chemical

> <STRUCTURE_Formula>
C12H10F3N3O4

> <STRUCTURE_MW>
317.2207

> <STRUCTURE_ChemType>
defined organic

> <STRUCTURE_DefinedOrganicForm>
parent

> <STRUCTURE_IUPAC>
5,5-dimethyl-3-[4-nitro-3-(trifluoromethyl)phenyl]imidazolidine-2,4-dione

> <STRUCTURE_SMILES>
FC(F)(F)c1cc(ccc1[N+]([O-])=O)N2C(=O)C(C)(C)NC2=O

> <STRUCTURE_SMILES_Desalt>
FC(F)(F)c1cc(ccc1[N+]([O-])=O)N2C(=O)C(C)(C)NC2=O

> <Substance_modify_yyyymmdd>
20080429

$$$$
