637-03-6
ChemmineR-0915142007XD

  8  8  0  0  0  0  0  0  0  0  1 V2000
    2.3055   -0.6686    0.0000 C    0  0  0  0  0  0  0  0  0  0  0  0
    2.3055   -2.0011    0.0000 C    0  0  0  0  0  0  0  0  0  0  0  0
    1.1527    0.0000    0.0000 C    0  0  0  0  0  0  0  0  0  0  0  0
    1.1527   -2.6559    0.0000 C    0  0  0  0  0  0  0  0  0  0  0  0
    0.0000   -0.6686    0.0000 C    0  0  0  0  0  0  0  0  0  0  0  0
    0.0000   -2.0011    0.0000 C    0  0  0  0  0  0  0  0  0  0  0  0
    3.4582    0.0000    0.0000 As   0  0  0  0  0  0  0  0  0  0  0  0
    4.6109   -0.6548    0.0000 O    0  0  0  0  0  0  0  0  0  0  0  0
  1  2  1  0  0  0  0
  1  3  2  0  0  0  0
  1  7  1  0  0  0  0
  2  4  2  0  0  0  0
  3  5  1  0  0  0  0
  4  6  1  0  0  0  0
  5  6  2  0  0  0  0
  7  8  2  0  0  0  0
M  END
> <ID>
9178

> <Formula>
C6H5AsO

> <FW>
168.0249

> <DSSTox_CID>
22249

> <DSSTox_RID>
79973

> <DSSTox_GSID>
42249

> <DSSTox_FileID_Sort>
4655

> <TS_ChemName>
Phenylarsine oxide

> <TS_ChemName_Synonyms>
Phenylarsine oxide (Oxophenylarsine)

> <TS_CASRN>
637-03-6

> <CASRN_ChemName_Relationship>
primary

> <TS_Description>
single chemical compound

> <ChemNote>


> <STRUCTURE_Shown>
tested chemical

> <STRUCTURE_Formula>
C6H5AsO

> <STRUCTURE_MW>
168.0249

> <STRUCTURE_ChemType>
organometallic

> <STRUCTURE_DefinedOrganicForm>


> <STRUCTURE_IUPAC>
oxo(phenyl)arsane

> <STRUCTURE_SMILES>
O=[As]c1ccccc1

> <STRUCTURE_SMILES_Desalt>
O=[As]c1ccccc1

> <Substance_modify_yyyymmdd>
20080825

$$$$
