637-58-1
ChemmineR-0915142007XD

 22 22  0  0  0  0  0  0  0  0  1 V2000
    0.0000   -4.6804    0.0000 C    0  0  0  0  0  0  0  0  0  0  0  0
    1.1459   -4.0025    0.0000 C    0  0  0  0  0  0  0  0  0  0  0  0
    2.3079   -4.6804    0.0000 C    0  0  0  0  0  0  0  0  0  0  0  0
    3.4538   -4.0025    0.0000 C    0  0  0  0  0  0  0  0  0  0  0  0
    4.6320   -4.6804    0.0000 O    0  0  0  0  0  0  0  0  0  0  0  0
    5.7617   -4.0025    0.0000 C    0  0  0  0  0  0  0  0  0  0  0  0
    5.7617   -2.6630    0.0000 C    0  0  0  0  0  0  0  0  0  0  0  0
    6.9237   -2.0174    0.0000 C    0  0  0  0  0  0  0  0  0  0  0  0
    8.0696   -2.6630    0.0000 C    0  0  0  0  0  0  0  0  0  0  0  0
    9.2155   -2.0174    0.0000 O    0  0  0  0  0  0  0  0  0  0  0  0
   10.3775   -2.6630    0.0000 C    0  0  0  0  0  0  0  0  0  0  0  0
   11.5234   -2.0174    0.0000 C    0  0  0  0  0  0  0  0  0  0  0  0
   12.7016   -2.6630    0.0000 C    0  0  0  0  0  0  0  0  0  0  0  0
   13.8474   -2.0174    0.0000 N    0  0  0  0  0  0  0  0  0  0  0  0
   13.8474   -0.6940    0.0000 C    0  0  0  0  0  0  0  0  0  0  0  0
   14.9933    0.0000    0.0000 C    0  0  0  0  0  0  0  0  0  0  0  0
   16.1392   -0.6940    0.0000 O    0  0  0  0  0  0  0  0  0  0  0  0
   16.1392   -2.0174    0.0000 C    0  0  0  0  0  0  0  0  0  0  0  0
   14.9933   -2.6630    0.0000 C    0  0  0  0  0  0  0  0  0  0  0  0
    8.0696   -4.0025    0.0000 C    0  0  0  0  0  0  0  0  0  0  0  0
    6.9237   -4.6804    0.0000 C    0  0  0  0  0  0  0  0  0  0  0  0
   10.6035   -3.6152    0.0000 Cl   0  0  0  0  0  0  0  0  0  0  0  0
  1  2  1  0  0  0  0
  2  3  1  0  0  0  0
  3  4  1  0  0  0  0
  4  5  1  0  0  0  0
  5  6  1  0  0  0  0
  6  7  2  0  0  0  0
  6 21  1  0  0  0  0
  7  8  1  0  0  0  0
  8  9  2  0  0  0  0
  9 10  1  0  0  0  0
  9 20  1  0  0  0  0
 10 11  1  0  0  0  0
 11 12  1  0  0  0  0
 12 13  1  0  0  0  0
 13 14  1  0  0  0  0
 14 15  1  0  0  0  0
 14 19  1  0  0  0  0
 15 16  1  0  0  0  0
 16 17  1  0  0  0  0
 17 18  1  0  0  0  0
 18 19  1  0  0  0  0
 20 21  2  0  0  0  0
M  END
> <ID>
12878

> <Formula>
C17H28ClNO3

> <FW>
329.8621 (293.4012+36.4609)

> <DSSTox_CID>
27757

> <DSSTox_RID>
82534

> <DSSTox_GSID>
47777

> <DSSTox_FileID_Sort>
7215

> <TS_ChemName>
Pramoxine hydrochloride

> <TS_ChemName_Synonyms>


> <TS_CASRN>
637-58-1

> <CASRN_ChemName_Relationship>
primary

> <TS_Description>
single chemical compound

> <ChemNote>
parent [140-65-8]

> <STRUCTURE_Shown>
tested chemical

> <STRUCTURE_Formula>
C17H28ClNO3

> <STRUCTURE_MW>
329.8621

> <STRUCTURE_ChemType>
defined organic

> <STRUCTURE_DefinedOrganicForm>
complex

> <STRUCTURE_IUPAC>
4-[3-(4-butoxyphenoxy)propyl]morpholine hydrochloride (1:1)

> <STRUCTURE_SMILES>
Cl.CCCCOc1ccc(cc1)OCCCN2CCOCC2

> <STRUCTURE_SMILES_Desalt>
CCCCOc1ccc(cc1)OCCCN2CCOCC2

> <Substance_modify_yyyymmdd>
20110721

$$$$
