63721-05-1
ChemmineR-0915142007XD

 10  9  0  0  0  0  0  0  0  0  1 V2000
    2.3020   -1.9797    0.0000 C   0  0  0  0  0  0  0  0  0  0  0  0
    3.4529   -2.6530    0.0000 C   0  0  0  0  0  0  0  0  0  0  0  0
    4.6039   -1.9797    0.0000 C   0  0  0  0  0  0  0  0  0  0  0  0
    5.7549   -1.3236    0.0000 C   0  0  0  0  0  0  0  0  0  0  0  0
    5.7549    0.0000    0.0000 C   0  0  0  0  0  0  0  0  0  0  0  0
    2.3020   -0.6503    0.0000 O   0  0  0  0  0  0  0  0  0  0  0  0
    1.1510   -2.6530    0.0000 O   0  0  0  0  0  0  0  0  0  0  0  0
    3.9306   -0.8287    0.0000 C   0  0  0  0  0  0  0  0  0  0  0  0
    5.2600   -3.1307    0.0000 C   0  0  0  0  0  0  0  0  0  0  0  0
    0.0000   -1.9797    0.0000 C   0  0  0  0  0  0  0  0  0  0  0  0
  1  2  1  0  0  0  0
  1  7  1  0  0  0  0
  1  6  2  0  0  0  0
  2  3  1  0  0  0  0
  3  4  1  0  0  0  0
  3  8  1  0  0  0  0
  3  9  1  0  0  0  0
  4  5  2  0  0  0  0
  7 10  1  0  0  0  0
M  END
> <ID>
5629

> <Formula>
C8H14O2

> <FW>
142.1956

> <DSSTox_CID>
8120

> <DSSTox_RID>
78649

> <DSSTox_GSID>
28120

> <DSSTox_FileID_Sort>
3331

> <TS_ChemName>
Methyl 3,3-dimethylpent-4-enoate

> <TS_ChemName_Synonyms>


> <TS_CASRN>
63721-05-1

> <CASRN_ChemName_Relationship>
primary

> <TS_Description>
single chemical compound

> <ChemNote>


> <STRUCTURE_Shown>
tested chemical

> <STRUCTURE_Formula>
C8H14O2

> <STRUCTURE_MW>
142.1956

> <STRUCTURE_ChemType>
defined organic

> <STRUCTURE_DefinedOrganicForm>
parent

> <STRUCTURE_IUPAC>
methyl 3,3-dimethylpent-4-enoate

> <STRUCTURE_SMILES>
CC(C)(C=C)CC(=O)OC

> <STRUCTURE_SMILES_Desalt>
CC(C)(C=C)CC(=O)OC

> <Substance_modify_yyyymmdd>
20080429

$$$$
