6375-27-5
ChemmineR-0915142007XD

 17 17  0  0  0  0  0  0  0  0  1 V2000
    4.6165   -2.0022    0.0000 C   0  0  0  0  0  0  0  0  0  0  0  0
    4.6165   -3.3405    0.0000 C   0  0  0  0  0  0  0  0  0  0  0  0
    3.4650   -1.3279    0.0000 C   0  0  0  0  0  0  0  0  0  0  0  0
    3.4650   -3.9940    0.0000 C   0  0  0  0  0  0  0  0  0  0  0  0
    2.3134   -2.0022    0.0000 C   0  0  0  0  0  0  0  0  0  0  0  0
    2.3134   -3.3405    0.0000 C   0  0  0  0  0  0  0  0  0  0  0  0
    5.7680   -1.3279    0.0000 O   0  0  0  0  0  0  0  0  0  0  0  0
    5.7680    0.0000    0.0000 C   0  0  0  0  0  0  0  0  0  0  0  0
    1.1515   -3.9940    0.0000 O   0  0  0  0  0  0  0  0  0  0  0  0
    0.0000   -3.3405    0.0000 C   0  0  0  0  0  0  0  0  0  0  0  0
    5.7680   -3.9940    0.0000 N   0  0  0  0  0  0  0  0  0  0  0  0
    6.9299   -3.3405    0.0000 C   0  0  0  0  0  0  0  0  0  0  0  0
    8.0815   -3.9940    0.0000 C   0  0  0  0  0  0  0  0  0  0  0  0
    6.9299   -2.0022    0.0000 O   0  0  0  0  0  0  0  0  0  0  0  0
    9.2226   -3.3405    0.0000 C   0  0  0  0  0  0  0  0  0  0  0  0
   10.3741   -3.9940    0.0000 C   0  0  0  0  0  0  0  0  0  0  0  0
    9.2226   -2.0022    0.0000 O   0  0  0  0  0  0  0  0  0  0  0  0
  1  2  1  0  0  0  0
  1  3  2  0  0  0  0
  1  7  1  0  0  0  0
  2  4  2  0  0  0  0
  2 11  1  0  0  0  0
  3  5  1  0  0  0  0
  4  6  1  0  0  0  0
  5  6  2  0  0  0  0
  6  9  1  0  0  0  0
  7  8  1  0  0  0  0
  9 10  1  0  0  0  0
 11 12  1  0  0  0  0
 12 13  1  0  0  0  0
 12 14  2  0  0  0  0
 13 15  1  0  0  0  0
 15 16  1  0  0  0  0
 15 17  2  0  0  0  0
M  END
> <ID>
10361

> <Formula>
C12H15NO4

> <FW>
237.2518

> <DSSTox_CID>
24709

> <DSSTox_RID>
80411

> <DSSTox_GSID>
44709

> <DSSTox_FileID_Sort>
5093

> <TS_ChemName>
N-(2,5-Dimethoxyphenyl)-3-oxobutanamide

> <TS_ChemName_Synonyms>
N-(2,5-Dimethoxyphenyl)-3-oxobutanamide (Butanamide, N-(2,5-dimethoxyphenyl)-3-oxo-)

> <TS_CASRN>
6375-27-5

> <CASRN_ChemName_Relationship>
primary

> <TS_Description>
single chemical compound

> <ChemNote>
tautomers

> <STRUCTURE_Shown>
tested chemical

> <STRUCTURE_Formula>
C12H15NO4

> <STRUCTURE_MW>
237.2518

> <STRUCTURE_ChemType>
defined organic

> <STRUCTURE_DefinedOrganicForm>
parent

> <STRUCTURE_IUPAC>
N-(2,5-dimethoxyphenyl)-3-oxobutanamide

> <STRUCTURE_SMILES>
COc1ccc(cc1NC(=O)CC(C)=O)OC

> <STRUCTURE_SMILES_Desalt>
COc1ccc(cc1NC(=O)CC(C)=O)OC

> <Substance_modify_yyyymmdd>
20091116

$$$$
