6375-47-9
ChemmineR-0915142007XD

 13 13  0  0  0  0  0  0  0  0  1 V2000
    1.1622   -0.6699    0.0000 C   0  0  0  0  0  0  0  0  0  0  0  0
    1.1622   -2.0096    0.0000 O   0  0  0  0  0  0  0  0  0  0  0  0
    0.0000   -0.0323    0.0000 C   0  0  0  0  0  0  0  0  0  0  0  0
    2.3163   -0.0323    0.0000 N   0  0  0  0  0  0  0  0  0  0  0  0
    3.4462   -0.6699    0.0000 C   0  0  0  0  0  0  0  0  0  0  0  0
    3.4462   -2.0096    0.0000 C   0  0  0  0  0  0  0  0  0  0  0  0
    4.5923    0.0000    0.0000 C   0  0  0  0  0  0  0  0  0  0  0  0
    4.5923   -2.6633    0.0000 C   0  0  0  0  0  0  0  0  0  0  0  0
    5.7544   -0.6699    0.0000 C   0  0  0  0  0  0  0  0  0  0  0  0
    5.7544   -2.0096    0.0000 C   0  0  0  0  0  0  0  0  0  0  0  0
    4.5923   -4.0031    0.0000 N   0  0  0  0  0  0  0  0  0  0  0  0
    6.9086   -2.6633    0.0000 O   0  0  0  0  0  0  0  0  0  0  0  0
    8.0707   -1.9935    0.0000 C   0  0  0  0  0  0  0  0  0  0  0  0
  1  2  2  0  0  0  0
  1  4  1  0  0  0  0
  1  3  1  0  0  0  0
  4  5  1  0  0  0  0
  5  6  2  0  0  0  0
  5  7  1  0  0  0  0
  6  8  1  0  0  0  0
  7  9  2  0  0  0  0
  8 10  2  0  0  0  0
  8 11  1  0  0  0  0
  9 10  1  0  0  0  0
 10 12  1  0  0  0  0
 12 13  1  0  0  0  0
M  END
> <ID>
5298

> <Formula>
C9H12N2O2

> <FW>
180.2038

> <DSSTox_CID>
7620

> <DSSTox_RID>
78531

> <DSSTox_GSID>
27620

> <DSSTox_FileID_Sort>
3214

> <TS_ChemName>
N-(3-Amino-4-methoxyphenyl)acetamide

> <TS_ChemName_Synonyms>


> <TS_CASRN>
6375-47-9

> <CASRN_ChemName_Relationship>
primary

> <TS_Description>
single chemical compound

> <ChemNote>


> <STRUCTURE_Shown>
tested chemical

> <STRUCTURE_Formula>
C9H12N2O2

> <STRUCTURE_MW>
180.2038

> <STRUCTURE_ChemType>
defined organic

> <STRUCTURE_DefinedOrganicForm>
parent

> <STRUCTURE_IUPAC>
N-(3-amino-4-methoxyphenyl)acetamide

> <STRUCTURE_SMILES>
Nc1cc(ccc1OC)NC(C)=O

> <STRUCTURE_SMILES_Desalt>
Nc1cc(ccc1OC)NC(C)=O

> <Substance_modify_yyyymmdd>
20080429

$$$$
