6378-25-2
ChemmineR-0915142007XD

 13 13  0  0  0  0  0  0  0  0  1 V2000
    2.0176   -2.2740    0.0000 C    0  0  0  0  0  0  0  0  0  0  0  0
    2.7072   -3.4253    0.0000 C    0  0  0  0  0  0  0  0  0  0  0  0
    2.0176   -4.5652    0.0000 C    0  0  0  0  0  0  0  0  0  0  0  0
    0.7067   -4.5652    0.0000 C    0  0  0  0  0  0  0  0  0  0  0  0
    0.0000   -3.4253    0.0000 C    0  0  0  0  0  0  0  0  0  0  0  0
    0.7067   -2.2740    0.0000 C    0  0  0  0  0  0  0  0  0  0  0  0
    2.6388   -1.1057    0.0000 S    0  0  0  0  0  0  0  0  0  0  0  0
    3.9383   -1.8580    0.0000 O    0  0  0  0  0  0  0  0  0  0  0  0
    3.2828    0.0000    0.0000 O    0  0  0  0  0  0  0  0  0  0  0  0
    1.5388   -0.4787    0.0000 O    0  0  0  0  0  0  0  0  0  0  0  0
    0.0627   -1.1057    0.0000 Cl   0  0  0  0  0  0  0  0  0  0  0  0
    0.0627   -5.6994    0.0000 Cl   0  0  0  0  0  0  0  0  0  0  0  0
    2.6388   -5.6994    0.0000 Cl   0  0  0  0  0  0  0  0  0  0  0  0
  1  2  2  0  0  0  0
  1  6  1  0  0  0  0
  1  7  1  0  0  0  0
  2  3  1  0  0  0  0
  3  4  2  0  0  0  0
  3 13  1  0  0  0  0
  4  5  1  0  0  0  0
  4 12  1  0  0  0  0
  5  6  2  0  0  0  0
  6 11  1  0  0  0  0
  7  8  2  0  0  0  0
  7  9  1  0  0  0  0
  7 10  2  0  0  0  0
M  END
> <ID>
10717

> <Formula>
C6H3Cl3O3S

> <FW>
261.5102

> <DSSTox_CID>
25072

> <DSSTox_RID>
80652

> <DSSTox_GSID>
45072

> <DSSTox_FileID_Sort>
5334

> <TS_ChemName>
2,4,5-Trichlorobenzenesulfonic acid

> <TS_ChemName_Synonyms>


> <TS_CASRN>
6378-25-2

> <CASRN_ChemName_Relationship>
primary

> <TS_Description>
single chemical compound

> <ChemNote>
parent of [53423-65-7]

> <STRUCTURE_Shown>
tested chemical

> <STRUCTURE_Formula>
C6H3Cl3O3S

> <STRUCTURE_MW>
261.5102

> <STRUCTURE_ChemType>
defined organic

> <STRUCTURE_DefinedOrganicForm>
parent

> <STRUCTURE_IUPAC>
2,4,5-trichlorobenzenesulfonic acid

> <STRUCTURE_SMILES>
Clc1cc(c(Cl)cc1Cl)S(=O)(=O)O

> <STRUCTURE_SMILES_Desalt>
Clc1cc(c(Cl)cc1Cl)S(=O)(=O)O

> <Substance_modify_yyyymmdd>
20091116

$$$$
