638-07-3
ChemmineR-0915142007XD

 10  9  0  0  0  0  0  0  0  0  1 V2000
    4.6195   -1.3349    0.0000 C    0  0  0  0  0  0  0  0  0  0  0  0
    4.6195    0.0000    0.0000 O    0  0  0  0  0  0  0  0  0  0  0  0
    5.7764   -1.9902    0.0000 O    0  0  0  0  0  0  0  0  0  0  0  0
    3.4707   -1.9902    0.0000 C    0  0  0  0  0  0  0  0  0  0  0  0
    2.3138   -1.3349    0.0000 C    0  0  0  0  0  0  0  0  0  0  0  0
    1.1569   -1.9902    0.0000 C    0  0  0  0  0  0  0  0  0  0  0  0
    0.0000   -1.3349    0.0000 Cl   0  0  0  0  0  0  0  0  0  0  0  0
    2.3138    0.0000    0.0000 O    0  0  0  0  0  0  0  0  0  0  0  0
    6.9333   -1.3349    0.0000 C    0  0  0  0  0  0  0  0  0  0  0  0
    8.0902   -1.9902    0.0000 C    0  0  0  0  0  0  0  0  0  0  0  0
  1  2  2  0  0  0  0
  1  3  1  0  0  0  0
  1  4  1  0  0  0  0
  3  9  1  0  0  0  0
  4  5  1  0  0  0  0
  5  6  1  0  0  0  0
  5  8  2  0  0  0  0
  6  7  1  0  0  0  0
  9 10  1  0  0  0  0
M  END
> <ID>
10111

> <Formula>
C6H9ClO3

> <FW>
164.5869

> <DSSTox_CID>
24454

> <DSSTox_RID>
80240

> <DSSTox_GSID>
44454

> <DSSTox_FileID_Sort>
4922

> <TS_ChemName>
Ethyl 4-chloro-3-oxobutanoate

> <TS_ChemName_Synonyms>
Ethyl 4-chloro-3-oxobutanoate (Butanoic acid, 4-chloro-3-oxo-, ethyl ester)

> <TS_CASRN>
638-07-3

> <CASRN_ChemName_Relationship>
primary

> <TS_Description>
single chemical compound

> <ChemNote>
tautomers

> <STRUCTURE_Shown>
tested chemical

> <STRUCTURE_Formula>
C6H9ClO3

> <STRUCTURE_MW>
164.5869

> <STRUCTURE_ChemType>
defined organic

> <STRUCTURE_DefinedOrganicForm>
parent

> <STRUCTURE_IUPAC>
ethyl 4-chloro-3-oxobutanoate

> <STRUCTURE_SMILES>
O=C(CCl)CC(=O)OCC

> <STRUCTURE_SMILES_Desalt>
O=C(CCl)CC(=O)OCC

> <Substance_modify_yyyymmdd>
20091116

$$$$
