638-38-0
ChemmineR-0915142007XD

  9  6  0  0  0  0  0  0  0  0  2 V2000
    1.3327   -1.2506    0.0000 C    0  0  0  0  0  0  0  0  0  0  0  0
    0.0000   -1.2506    0.0000 O    0  0  0  0  0  0  0  0  0  0  0  0
    1.9899   -2.4098    0.0000 O    0  5  0  0  0  0  0  0  0  0  0  0
    1.9899   -0.1004    0.0000 C    0  0  0  0  0  0  0  0  0  0  0  0
    4.8470   -1.2506    0.0000 Mn   0  2  0  0  0  0  0  0  0  0  0  0
    7.7954   -1.1593    0.0000 C    0  0  0  0  0  0  0  0  0  0  0  0
    9.1281   -1.1593    0.0000 O    0  0  0  0  0  0  0  0  0  0  0  0
    7.1382    0.0000    0.0000 O    0  5  0  0  0  0  0  0  0  0  0  0
    7.1382   -2.3094    0.0000 C    0  0  0  0  0  0  0  0  0  0  0  0
  1  2  2  0  0  0  0
  1  3  1  0  0  0  0
  1  4  1  0  0  0  0
  6  7  2  0  0  0  0
  6  8  1  0  0  0  0
  6  9  1  0  0  0  0
M  END
> <ID>
5043

> <Formula>
C4H6MnO4

> <FW>
173.0261 (59.0446+54.9369+59.0446)

> <DSSTox_CID>
7279

> <DSSTox_RID>
78382

> <DSSTox_GSID>
27279

> <DSSTox_FileID_Sort>
3065

> <TS_ChemName>
Manganese(II) acetate

> <TS_ChemName_Synonyms>


> <TS_CASRN>
638-38-0

> <CASRN_ChemName_Relationship>
primary

> <TS_Description>
single chemical compound

> <ChemNote>
parent [64-19-7]

> <STRUCTURE_Shown>
tested chemical

> <STRUCTURE_Formula>
C4H6MnO4

> <STRUCTURE_MW>
173.0261

> <STRUCTURE_ChemType>
organometallic

> <STRUCTURE_DefinedOrganicForm>


> <STRUCTURE_IUPAC>
manganese(2+) diacetate

> <STRUCTURE_SMILES>
[Mn+2].[O-]C(C)=O.[O-]C(C)=O

> <STRUCTURE_SMILES_Desalt>
CC(=O)O

> <Substance_modify_yyyymmdd>
20080429

$$$$
