638-94-8
ChemmineR-0915142007XD

 33 37  0  0  1  0  0  0  0  0  1 V2000
    8.2449   -3.3234    0.0000 C   0  0  0  0  0  0  0  0  0  0  0  0
    6.9711   -3.7172    0.0000 C   0  0  0  0  0  0  0  0  0  0  0  0
    6.9711   -5.0604    0.0000 C   0  0  0  0  0  0  0  0  0  0  0  0
    3.4971   -5.7321    0.0000 C   0  0  0  0  0  0  0  0  0  0  0  0
    5.8015   -5.7321    0.0000 C   0  0  0  0  0  0  0  0  0  0  0  0
    8.9744   -4.3772    0.0000 C   0  0  0  0  0  0  0  0  0  0  0  0
    4.6435   -5.0604    0.0000 C   0  0  0  0  0  0  0  0  0  0  0  0
    3.4971   -7.0753    0.0000 C   0  0  0  0  0  0  0  0  0  0  0  0
    5.8015   -3.0571    0.0000 C   0  0  0  0  0  0  0  0  0  0  0  0
    4.6435   -3.7172    0.0000 C   0  0  0  0  0  0  0  0  0  0  0  0
    2.3276   -5.0604    0.0000 C   0  0  0  0  0  0  0  0  0  0  0  0
    8.2449   -5.4773    0.0000 C   0  0  0  0  0  0  0  0  0  0  0  0
    2.3276   -7.7238    0.0000 C   0  0  0  0  0  0  0  0  0  0  0  0
    5.8015   -7.0753    0.0000 C   0  0  0  0  0  0  0  0  0  0  0  0
    1.1696   -5.7321    0.0000 C   0  0  0  0  0  0  0  0  0  0  0  0
    1.1696   -7.0753    0.0000 C   0  0  0  0  0  0  0  0  0  0  0  0
    4.6435   -7.7238    0.0000 C   0  0  0  0  0  0  0  0  0  0  0  0
    0.0000   -7.7585    0.0000 O   0  0  0  0  0  0  0  0  0  0  0  0
    6.9711   -2.3855    0.0000 C   0  0  0  0  0  0  0  0  0  0  0  0
    3.4971   -3.0224    0.0000 O   0  0  0  0  0  0  0  0  0  0  0  0
    3.4971   -4.3772    0.0000 C   0  0  0  0  0  0  0  0  0  0  0  0
    6.9711   -6.3805    0.0000 H   0  0  0  0  0  0  0  0  0  0  0  0
    4.6435   -6.4153    0.0000 H   0  0  0  0  0  0  0  0  0  0  0  0
    5.8015   -4.3772    0.0000 H   0  0  0  0  0  0  0  0  0  0  0  0
    9.0208   -2.2812    0.0000 O   0  0  0  0  0  0  0  0  0  0  0  0
   10.2482   -2.7097    0.0000 C   0  0  0  0  0  0  0  0  0  0  0  0
   10.2019   -3.9951    0.0000 O   0  0  0  0  0  0  0  0  0  0  0  0
    8.2449   -1.9802    0.0000 C   0  0  0  0  0  0  0  0  0  0  0  0
    9.3797   -1.3201    0.0000 C   0  0  0  0  0  0  0  0  0  0  0  0
    7.0869   -1.3433    0.0000 O   0  0  0  0  0  0  0  0  0  0  0  0
    9.3797    0.0000    0.0000 O   0  0  0  0  0  0  0  0  0  0  0  0
   11.5799   -2.7097    0.0000 C   0  0  0  0  0  0  0  0  0  0  0  0
   11.1746   -1.7717    0.0000 C   0  0  0  0  0  0  0  0  0  0  0  0
  1  2  1  0  0  0  0
  1 25  1  6  0  0  0
  1  6  1  0  0  0  0
  1 28  1  0  0  0  0
  2  3  1  0  0  0  0
  2  9  1  0  0  0  0
  2 19  1  1  0  0  0
  3  5  1  0  0  0  0
  3 22  1  6  0  0  0
  3 12  1  0  0  0  0
  4  7  1  0  0  0  0
  4  8  1  0  0  0  0
  4 11  1  0  0  0  0
  4 21  1  1  0  0  0
  5 14  1  0  0  0  0
  5 24  1  1  0  0  0
  5  7  1  0  0  0  0
  6 12  1  0  0  0  0
  6 27  1  6  0  0  0
  7 10  1  0  0  0  0
  7 23  1  6  0  0  0
  8 13  2  0  0  0  0
  8 17  1  0  0  0  0
  9 10  1  0  0  0  0
 10 20  1  1  0  0  0
 11 15  2  0  0  0  0
 13 16  1  0  0  0  0
 14 17  1  0  0  0  0
 15 16  1  0  0  0  0
 16 18  2  0  0  0  0
 25 26  1  0  0  0  0
 26 27  1  0  0  0  0
 26 32  1  0  0  0  0
 26 33  1  0  0  0  0
 28 29  1  0  0  0  0
 28 30  2  0  0  0  0
 29 31  1  0  0  0  0
M  END
> <ID>
11944

> <Formula>
C24H32O6

> <FW>
416.5073

> <DSSTox_CID>
26756

> <DSSTox_RID>
81880

> <DSSTox_GSID>
46756

> <DSSTox_FileID_Sort>
6561

> <TS_ChemName>
Desonide

> <TS_ChemName_Synonyms>


> <TS_CASRN>
638-94-8

> <CASRN_ChemName_Relationship>
primary

> <TS_Description>
single chemical compound

> <ChemNote>
stereochem; tautomers

> <STRUCTURE_Shown>
tested chemical

> <STRUCTURE_Formula>
C24H32O6

> <STRUCTURE_MW>
416.5073

> <STRUCTURE_ChemType>
defined organic

> <STRUCTURE_DefinedOrganicForm>
parent

> <STRUCTURE_IUPAC>
(4aR,4bS,5S,6aS,6bS,9aR,10aS,10bS)-5-hydroxy-6b-(hydroxyacetyl)-4a,6a,8,8-tetramethyl-4a,4b,5,6,6a,6b,9a,10,10a,10b,11,12-dodecahydro-2H-naphtho[2',1':4,5]indeno[1,2-d][1,3]dioxol-2-one

> <STRUCTURE_SMILES>
OCC(=O)[C@@]54OC(C)(C)O[C@@H]5C[C@@H]3[C@]4(C)C[C@H](O)[C@H]2[C@H]3CCC1=CC(=O)C=C[C@@]12C

> <STRUCTURE_SMILES_Desalt>
OCC(=O)[C@@]54OC(C)(C)O[C@@H]5C[C@@H]3[C@]4(C)C[C@H](O)[C@H]2[C@H]3CCC1=CC(=O)C=C[C@@]12C

> <Substance_modify_yyyymmdd>
20110803

$$$$
