638-53-9
ChemmineR-0915142007XD

 15 14  0  0  0  0  0  0  0  0  1 V2000
   11.5167    0.0000    0.0000 O   0  0  0  0  0  0  0  0  0  0  0  0
   12.6781   -0.6636    0.0000 C   0  0  0  0  0  0  0  0  0  0  0  0
   13.8256    0.0000    0.0000 O   0  0  0  0  0  0  0  0  0  0  0  0
   12.6781   -1.9909    0.0000 C   0  0  0  0  0  0  0  0  0  0  0  0
   11.5167   -2.6545    0.0000 C   0  0  0  0  0  0  0  0  0  0  0  0
   10.3692   -1.9909    0.0000 C   0  0  0  0  0  0  0  0  0  0  0  0
    9.2217   -2.6545    0.0000 C   0  0  0  0  0  0  0  0  0  0  0  0
    8.0603   -1.9909    0.0000 C   0  0  0  0  0  0  0  0  0  0  0  0
    6.9128   -2.6545    0.0000 C   0  0  0  0  0  0  0  0  0  0  0  0
    5.7653   -1.9909    0.0000 C   0  0  0  0  0  0  0  0  0  0  0  0
    4.6039   -2.6545    0.0000 C   0  0  0  0  0  0  0  0  0  0  0  0
    3.4564   -1.9909    0.0000 C   0  0  0  0  0  0  0  0  0  0  0  0
    2.3089   -2.6545    0.0000 C   0  0  0  0  0  0  0  0  0  0  0  0
    1.1475   -1.9909    0.0000 C   0  0  0  0  0  0  0  0  0  0  0  0
    0.0000   -2.6545    0.0000 C   0  0  0  0  0  0  0  0  0  0  0  0
  1  2  2  0  0  0  0
  2  3  1  0  0  0  0
  2  4  1  0  0  0  0
  4  5  1  0  0  0  0
  5  6  1  0  0  0  0
  6  7  1  0  0  0  0
  7  8  1  0  0  0  0
  8  9  1  0  0  0  0
  9 10  1  0  0  0  0
 10 11  1  0  0  0  0
 11 12  1  0  0  0  0
 12 13  1  0  0  0  0
 13 14  1  0  0  0  0
 14 15  1  0  0  0  0
M  END
> <ID>
1621

> <Formula>
C13H26O2

> <FW>
214.3443

> <DSSTox_CID>
1684

> <DSSTox_RID>
76282

> <DSSTox_GSID>
21684

> <DSSTox_FileID_Sort>
966

> <TS_ChemName>
Tridecanoic acid

> <TS_ChemName_Synonyms>


> <TS_CASRN>
638-53-9

> <CASRN_ChemName_Relationship>
primary

> <TS_Description>
single chemical compound

> <ChemNote>


> <STRUCTURE_Shown>
tested chemical

> <STRUCTURE_Formula>
C13H26O2

> <STRUCTURE_MW>
214.3443

> <STRUCTURE_ChemType>
defined organic

> <STRUCTURE_DefinedOrganicForm>
parent

> <STRUCTURE_IUPAC>
tridecanoic acid

> <STRUCTURE_SMILES>
O=C(O)CCCCCCCCCCCC

> <STRUCTURE_SMILES_Desalt>
O=C(O)CCCCCCCCCCCC

> <Substance_modify_yyyymmdd>
20080429

$$$$
