638-65-3
ChemmineR-0915142007XD

 19 18  0  0  0  0  0  0  0  0  1 V2000
    1.1540   -0.6182    0.0000 C   0  0  0  0  0  0  0  0  0  0  0  0
    2.3286   -1.2982    0.0000 C   0  0  0  0  0  0  0  0  0  0  0  0
    3.4208   -0.6182    0.0000 C   0  0  0  0  0  0  0  0  0  0  0  0
    4.5954   -1.2982    0.0000 C   0  0  0  0  0  0  0  0  0  0  0  0
    5.7699   -0.6182    0.0000 C   0  0  0  0  0  0  0  0  0  0  0  0
    6.8827   -1.2982    0.0000 C   0  0  0  0  0  0  0  0  0  0  0  0
    8.0367   -0.6182    0.0000 C   0  0  0  0  0  0  0  0  0  0  0  0
    9.2113   -1.2982    0.0000 C   0  0  0  0  0  0  0  0  0  0  0  0
   10.3035   -0.6182    0.0000 C   0  0  0  0  0  0  0  0  0  0  0  0
   11.4781   -1.2982    0.0000 C   0  0  0  0  0  0  0  0  0  0  0  0
   12.6321   -0.6182    0.0000 C   0  0  0  0  0  0  0  0  0  0  0  0
   13.7242   -1.2982    0.0000 C   0  0  0  0  0  0  0  0  0  0  0  0
   14.8988   -0.6182    0.0000 C   0  0  0  0  0  0  0  0  0  0  0  0
   16.0734   -1.2982    0.0000 C   0  0  0  0  0  0  0  0  0  0  0  0
   17.1862   -0.6182    0.0000 C   0  0  0  0  0  0  0  0  0  0  0  0
   18.3402   -1.2982    0.0000 C   0  0  0  0  0  0  0  0  0  0  0  0
   19.5148   -0.6182    0.0000 C   0  0  0  0  0  0  0  0  0  0  0  0
   20.6070   -1.2982    0.0000 C   0  0  0  0  0  0  0  0  0  0  0  0
    0.0000    0.0000    0.0000 N   0  0  0  0  0  0  0  0  0  0  0  0
  1  2  1  0  0  0  0
  1 19  3  0  0  0  0
  2  3  1  0  0  0  0
  3  4  1  0  0  0  0
  4  5  1  0  0  0  0
  5  6  1  0  0  0  0
  6  7  1  0  0  0  0
  7  8  1  0  0  0  0
  8  9  1  0  0  0  0
  9 10  1  0  0  0  0
 10 11  1  0  0  0  0
 11 12  1  0  0  0  0
 12 13  1  0  0  0  0
 13 14  1  0  0  0  0
 14 15  1  0  0  0  0
 15 16  1  0  0  0  0
 16 17  1  0  0  0  0
 17 18  1  0  0  0  0
M  END
> <ID>
5044

> <Formula>
C18H35N

> <FW>
265.4772

> <DSSTox_CID>
7280

> <DSSTox_RID>
78383

> <DSSTox_GSID>
27280

> <DSSTox_FileID_Sort>
3066

> <TS_ChemName>
Octadecanenitrile

> <TS_ChemName_Synonyms>
Stearonitrile

> <TS_CASRN>
638-65-3

> <CASRN_ChemName_Relationship>
primary

> <TS_Description>
single chemical compound

> <ChemNote>


> <STRUCTURE_Shown>
tested chemical

> <STRUCTURE_Formula>
C18H35N

> <STRUCTURE_MW>
265.4772

> <STRUCTURE_ChemType>
defined organic

> <STRUCTURE_DefinedOrganicForm>
parent

> <STRUCTURE_IUPAC>
octadecanenitrile

> <STRUCTURE_SMILES>
CCCCCCCCCCCCCCCCCC#N

> <STRUCTURE_SMILES_Desalt>
CCCCCCCCCCCCCCCCCC#N

> <Substance_modify_yyyymmdd>
20080429

$$$$
