6381-91-5
ChemmineR-0915142007XD

 26 26  0  0  0  0  0  0  0  0  2 V2000
    3.5957   -3.5214    0.0000 S    0  0  0  0  0  0  0  0  0  0  0  0
    4.3535   -2.4219    0.0000 N    0  5  0  0  0  0  0  0  0  0  0  0
    3.5957   -1.3521    0.0000 C    0  0  0  0  0  0  0  0  0  0  0  0
    2.3030   -1.7681    0.0000 C    0  0  0  0  0  0  0  0  0  0  0  0
    2.3030   -3.1054    0.0000 C    0  0  0  0  0  0  0  0  0  0  0  0
    4.5466   -4.3980    0.0000 O    0  0  0  0  0  0  0  0  0  0  0  0
    3.2985   -4.8141    0.0000 O    0  0  0  0  0  0  0  0  0  0  0  0
    3.9969   -0.1040    0.0000 O    0  0  0  0  0  0  0  0  0  0  0  0
    1.1589   -1.0995    0.0000 C    0  0  0  0  0  0  0  0  0  0  0  0
    1.1589   -3.7740    0.0000 C    0  0  0  0  0  0  0  0  0  0  0  0
    0.0000   -1.7681    0.0000 C    0  0  0  0  0  0  0  0  0  0  0  0
    0.0000   -3.1054    0.0000 C    0  0  0  0  0  0  0  0  0  0  0  0
   11.2477   -3.4323    0.0000 S    0  0  0  0  0  0  0  0  0  0  0  0
   10.5048   -2.3476    0.0000 N    0  5  0  0  0  0  0  0  0  0  0  0
   11.2477   -1.2778    0.0000 C    0  0  0  0  0  0  0  0  0  0  0  0
   12.5403   -1.6790    0.0000 C    0  0  0  0  0  0  0  0  0  0  0  0
   12.5403   -3.0014    0.0000 C    0  0  0  0  0  0  0  0  0  0  0  0
   10.3116   -4.2940    0.0000 O    0  0  0  0  0  0  0  0  0  0  0  0
   11.5597   -4.7249    0.0000 O    0  0  0  0  0  0  0  0  0  0  0  0
   10.8465    0.0000    0.0000 O    0  0  0  0  0  0  0  0  0  0  0  0
   13.6993   -0.9955    0.0000 C    0  0  0  0  0  0  0  0  0  0  0  0
   13.6993   -3.6700    0.0000 C    0  0  0  0  0  0  0  0  0  0  0  0
   14.8582   -1.6790    0.0000 C    0  0  0  0  0  0  0  0  0  0  0  0
   14.8582   -3.0014    0.0000 C    0  0  0  0  0  0  0  0  0  0  0  0
    6.9685   -2.3179    0.0000 Ca   0  2  0  0  0  0  0  0  0  0  0  0
    7.5331   -3.9226    0.0000 O    0  0  0  0  0  0  0  0  0  0  0  0
  1  2  1  0  0  0  0
  1  5  1  0  0  0  0
  1  6  2  0  0  0  0
  1  7  2  0  0  0  0
  2  3  1  0  0  0  0
  3  8  2  0  0  0  0
  3  4  1  0  0  0  0
  4  5  2  0  0  0  0
  4  9  1  0  0  0  0
  5 10  1  0  0  0  0
  9 11  2  0  0  0  0
 10 12  2  0  0  0  0
 11 12  1  0  0  0  0
 13 14  1  0  0  0  0
 13 17  1  0  0  0  0
 13 18  2  0  0  0  0
 13 19  2  0  0  0  0
 14 15  1  0  0  0  0
 15 20  2  0  0  0  0
 15 16  1  0  0  0  0
 16 17  2  0  0  0  0
 16 21  1  0  0  0  0
 17 22  1  0  0  0  0
 21 23  2  0  0  0  0
 22 24  2  0  0  0  0
 23 24  1  0  0  0  0
M  END
> <ID>
12597

> <Formula>
C14H10CaN2O7S2

> <FW>
422.4464 (182.1771+182.1771+40.0769+18.0153)

> <DSSTox_CID>
27459

> <DSSTox_RID>
82360

> <DSSTox_GSID>
47459

> <DSSTox_FileID_Sort>
7041

> <TS_ChemName>
Calcium saccharin hydrate

> <TS_ChemName_Synonyms>
Saccharin, calcium salt

> <TS_CASRN>
6381-91-5

> <CASRN_ChemName_Relationship>
primary

> <TS_Description>
single chemical compound

> <ChemNote>
parent [81-07-2]

> <STRUCTURE_Shown>
tested chemical

> <STRUCTURE_Formula>
C14H10CaN2O7S2

> <STRUCTURE_MW>
422.4464

> <STRUCTURE_ChemType>
defined organic

> <STRUCTURE_DefinedOrganicForm>
salt complex

> <STRUCTURE_IUPAC>
calcium 3-oxo-3H-1,2-benzothiazol-2-ide 1,1-dioxide hydrate (1:2:1)

> <STRUCTURE_SMILES>
[Ca+2].O.O=C1[N-]S(=O)(=O)c2ccccc12.O=C1[N-]S(=O)(=O)c2ccccc12

> <STRUCTURE_SMILES_Desalt>
O=C2NS(=O)(=O)c1ccccc12

> <Substance_modify_yyyymmdd>
20100621

$$$$
