6381-77-7
ChemmineR-0915142007XD

 13 12  0  0  1  0  0  0  0  0  2 V2000
    3.5292   -1.7090    0.0000 C    0  0  0  0  0  0  0  0  0  0  0  0
    4.6130   -0.9031    0.0000 O    0  0  0  0  0  0  0  0  0  0  0  0
    3.9183   -2.9804    0.0000 C    0  0  0  0  0  0  0  0  0  0  0  0
    5.6759   -1.7090    0.0000 C    0  0  0  0  0  0  0  0  0  0  0  0
    5.2521   -2.9804    0.0000 C    0  0  0  0  0  0  0  0  0  0  0  0
    3.1610   -4.0433    0.0000 O    0  5  0  0  0  0  0  0  0  0  0  0
    6.0441   -4.0433    0.0000 O    0  0  0  0  0  0  0  0  0  0  0  0
    6.9473   -1.2922    0.0000 O    0  0  0  0  0  0  0  0  0  0  0  0
    2.2440   -1.2922    0.0000 C    0  0  0  0  0  0  0  0  0  0  0  0
    1.2575   -2.1606    0.0000 C    0  0  0  0  0  0  0  0  0  0  0  0
    1.9661    0.0000    0.0000 O    0  0  0  0  0  0  0  0  0  0  0  0
    0.0000   -1.7716    0.0000 O    0  0  0  0  0  0  0  0  0  0  0  0
    0.8545   -4.1267    0.0000 Na   0  3  0  0  0  0  0  0  0  0  0  0
  1  2  1  1  0  0  0
  1  3  1  0  0  0  0
  1  9  1  0  0  0  0
  2  4  1  0  0  0  0
  3  5  2  0  0  0  0
  3  6  1  0  0  0  0
  4  5  1  0  0  0  0
  4  8  2  0  0  0  0
  5  7  1  0  0  0  0
  9 10  1  0  0  0  0
  9 11  1  1  0  0  0
 10 12  1  0  0  0  0
M  END
> <ID>
545

> <Formula>
C6H7NaO6

> <FW>
198.1059 (175.1167+22.9892)

> <DSSTox_CID>
570

> <DSSTox_RID>
75664

> <DSSTox_GSID>
20570

> <DSSTox_FileID_Sort>
348

> <TS_ChemName>
Sodium erythorbate (1:1)

> <TS_ChemName_Synonyms>
Sodium erythorbate (D-erythro-Hex-2-enonic acid, .gamma.-lactone, monosodium salt)

> <TS_CASRN>
6381-77-7

> <CASRN_ChemName_Relationship>
primary

> <TS_Description>
single chemical compound

> <ChemNote>
stereochem; parent [89-65-6]

> <STRUCTURE_Shown>
tested chemical

> <STRUCTURE_Formula>
C6H7NaO6

> <STRUCTURE_MW>
198.1059

> <STRUCTURE_ChemType>
defined organic

> <STRUCTURE_DefinedOrganicForm>
salt

> <STRUCTURE_IUPAC>
sodium (2R)-2-[(1R)-1,2-dihydroxyethyl]-4-hydroxy-5-oxo-2,5-dihydrofuran-3-olate

> <STRUCTURE_SMILES>
[Na+].OC=1C(=O)O[C@H]([C@H](O)CO)C=1[O-]

> <STRUCTURE_SMILES_Desalt>
OC=1C(=O)O[C@H]([C@H](O)CO)C=1O

> <Substance_modify_yyyymmdd>
20120529

$$$$
