63837-33-2
ChemmineR-0915142007XD

 22 24  0  0  0  0  0  0  0  0  1 V2000
   12.2126   -3.9295    0.0000 O   0  0  0  0  0  0  0  0  0  0  0  0
   12.5942   -2.6291    0.0000 C   0  0  0  0  0  0  0  0  0  0  0  0
   11.4917   -1.8941    0.0000 O   0  0  0  0  0  0  0  0  0  0  0  0
   10.4457   -2.6856    0.0000 C   0  0  0  0  0  0  0  0  0  0  0  0
   10.8697   -3.9436    0.0000 C   0  0  0  0  0  0  0  0  0  0  0  0
   13.8805   -2.2333    0.0000 C   0  0  0  0  0  0  0  0  0  0  0  0
   14.1349   -0.9188    0.0000 C   0  0  0  0  0  0  0  0  0  0  0  0
    9.3290   -2.2757    0.0000 C   0  0  0  0  0  0  0  0  0  0  0  0
    8.1134   -2.6856    0.0000 O   0  0  0  0  0  0  0  0  0  0  0  0
    6.9685   -2.0072    0.0000 C   0  0  0  0  0  0  0  0  0  0  0  0
    5.7953   -2.6856    0.0000 C   0  0  0  0  0  0  0  0  0  0  0  0
    6.9685   -0.6785    0.0000 C   0  0  0  0  0  0  0  0  0  0  0  0
    4.6362   -2.0072    0.0000 C   0  0  0  0  0  0  0  0  0  0  0  0
    5.7953    0.0000    0.0000 C   0  0  0  0  0  0  0  0  0  0  0  0
    4.6362   -0.6785    0.0000 C   0  0  0  0  0  0  0  0  0  0  0  0
    3.4772    0.0000    0.0000 O   0  0  0  0  0  0  0  0  0  0  0  0
    2.3181   -0.6785    0.0000 C   0  0  0  0  0  0  0  0  0  0  0  0
    2.3181   -2.0072    0.0000 C   0  0  0  0  0  0  0  0  0  0  0  0
    1.1591    0.0000    0.0000 C   0  0  0  0  0  0  0  0  0  0  0  0
    1.1591   -2.6856    0.0000 C   0  0  0  0  0  0  0  0  0  0  0  0
    0.0000   -0.6785    0.0000 C   0  0  0  0  0  0  0  0  0  0  0  0
    0.0000   -2.0072    0.0000 C   0  0  0  0  0  0  0  0  0  0  0  0
  1  2  1  0  0  0  0
  1  5  1  0  0  0  0
  2  3  1  0  0  0  0
  2  6  1  0  0  0  0
  3  4  1  0  0  0  0
  4  5  1  0  0  0  0
  4  8  1  0  0  0  0
  6  7  1  0  0  0  0
  8  9  1  0  0  0  0
  9 10  1  0  0  0  0
 10 11  2  0  0  0  0
 10 12  1  0  0  0  0
 11 13  1  0  0  0  0
 12 14  2  0  0  0  0
 13 15  2  0  0  0  0
 14 15  1  0  0  0  0
 15 16  1  0  0  0  0
 16 17  1  0  0  0  0
 17 18  2  0  0  0  0
 17 19  1  0  0  0  0
 18 20  1  0  0  0  0
 19 21  2  0  0  0  0
 20 22  2  0  0  0  0
 21 22  1  0  0  0  0
M  END
> <ID>
8830

> <Formula>
C18H20O4

> <FW>
300.349

> <DSSTox_CID>
21884

> <DSSTox_RID>
79865

> <DSSTox_GSID>
41884

> <DSSTox_FileID_Sort>
4547

> <TS_ChemName>
Diofenolan

> <TS_ChemName_Synonyms>


> <TS_CASRN>
63837-33-2

> <CASRN_ChemName_Relationship>
primary

> <TS_Description>
single chemical compound

> <ChemNote>


> <STRUCTURE_Shown>
tested chemical

> <STRUCTURE_Formula>
C18H20O4

> <STRUCTURE_MW>
300.349

> <STRUCTURE_ChemType>
defined organic

> <STRUCTURE_DefinedOrganicForm>
parent

> <STRUCTURE_IUPAC>
2-ethyl-4-[(4-phenoxyphenoxy)methyl]-1,3-dioxolane

> <STRUCTURE_SMILES>
CCC3OC(COc2ccc(Oc1ccccc1)cc2)CO3

> <STRUCTURE_SMILES_Desalt>
CCC3OC(COc2ccc(Oc1ccccc1)cc2)CO3

> <Substance_modify_yyyymmdd>
20080825

$$$$
