63845-42-1
ChemmineR-0915142007XD

 18 19  0  0  0  0  0  0  0  0  1 V2000
    3.5647   -0.2564    0.0000 N    0  0  0  0  0  0  0  0  0  0  0  0
    3.5647   -2.3985    0.0000 C    0  0  0  0  0  0  0  0  0  0  0  0
    4.3339   -1.3564    0.0000 C    0  0  0  0  0  0  0  0  0  0  0  0
    2.3406   -2.0098    0.0000 C    0  0  0  0  0  0  0  0  0  0  0  0
    2.3406   -0.6617    0.0000 C    0  0  0  0  0  0  0  0  0  0  0  0
    7.5760   -0.1406    0.0000 N    0  0  0  0  0  0  0  0  0  0  0  0
    4.2264   -3.5812    0.0000 C    0  0  0  0  0  0  0  0  0  0  0  0
    5.5745   -3.5812    0.0000 C    0  0  0  0  0  0  0  0  0  0  0  0
    6.2196   -2.3985    0.0000 C    0  0  0  0  0  0  0  0  0  0  0  0
    1.1579   -2.6549    0.0000 C    0  0  0  0  0  0  0  0  0  0  0  0
    6.2196   -0.1406    0.0000 C    0  0  0  0  0  0  0  0  0  0  0  0
    8.2708   -1.3233    0.0000 C    0  0  0  0  0  0  0  0  0  0  0  0
    1.1579    0.0000    0.0000 C    0  0  0  0  0  0  0  0  0  0  0  0
    7.5429   -2.3985    0.0000 C    0  0  0  0  0  0  0  0  0  0  0  0
    5.5745   -1.2737    0.0000 C    0  0  0  0  0  0  0  0  0  0  0  0
    0.0000   -2.0098    0.0000 C    0  0  0  0  0  0  0  0  0  0  0  0
    0.0000   -0.6617    0.0000 C    0  0  0  0  0  0  0  0  0  0  0  0
    3.0188   -4.0609    0.0000 Cl   0  0  0  0  0  0  0  0  0  0  0  0
  1  3  1  0  0  0  0
  1  5  1  0  0  0  0
  2  3  2  0  0  0  0
  2  7  1  0  0  0  0
  2  4  1  0  0  0  0
  4  5  2  0  0  0  0
  4 10  1  0  0  0  0
  5 13  1  0  0  0  0
  6 11  1  0  0  0  0
  6 12  1  0  0  0  0
  7  8  1  0  0  0  0
  8  9  1  0  0  0  0
  9 14  1  0  0  0  0
  9 15  1  0  0  0  0
 10 16  2  0  0  0  0
 11 15  1  0  0  0  0
 12 14  1  0  0  0  0
 13 17  2  0  0  0  0
 16 17  1  0  0  0  0
M  END
> <ID>
13821

> <Formula>
C15H21ClN2

> <FW>
264.7936 (228.3327+36.4609)

> <DSSTox_CID>
28758

> <DSSTox_RID>
83027

> <DSSTox_GSID>
48832

> <DSSTox_FileID_Sort>
7704

> <TS_ChemName>
Indalpine hydrochloride

> <TS_ChemName_Synonyms>


> <TS_CASRN>
63845-42-1

> <CASRN_ChemName_Relationship>
primary

> <TS_Description>
single chemical compound

> <ChemNote>


> <STRUCTURE_Shown>
tested chemical

> <STRUCTURE_Formula>
C15H21ClN2

> <STRUCTURE_MW>
264.7936

> <STRUCTURE_ChemType>
defined organic

> <STRUCTURE_DefinedOrganicForm>
complex

> <STRUCTURE_IUPAC>
3-[2-(piperidin-4-yl)ethyl]-1H-indole hydrochloride (1:1)

> <STRUCTURE_SMILES>
Cl.C(CC1CCNCC1)c2cnc3ccccc23

> <STRUCTURE_SMILES_Desalt>
C(CC1CCNCC1)c2cnc3ccccc23

> <Substance_modify_yyyymmdd>
20111204

$$$$
