6385-58-6
ChemmineR-0915142007XD

 21 20  0  0  0  0  0  0  0  0  2 V2000
    3.4560   -3.3270    0.0000 C    0  0  0  0  0  0  0  0  0  0  0  0
    4.6080   -3.9905    0.0000 S    0  0  0  0  0  0  0  0  0  0  0  0
    5.7600   -3.3270    0.0000 C    0  0  0  0  0  0  0  0  0  0  0  0
    5.7600   -1.9999    0.0000 C    0  0  0  0  0  0  0  0  0  0  0  0
    6.9120   -1.3363    0.0000 C    0  0  0  0  0  0  0  0  0  0  0  0
    8.0640   -1.9999    0.0000 C    0  0  0  0  0  0  0  0  0  0  0  0
    8.0640   -3.3270    0.0000 C    0  0  0  0  0  0  0  0  0  0  0  0
    6.9120   -3.9905    0.0000 C    0  0  0  0  0  0  0  0  0  0  0  0
    9.2160   -3.9905    0.0000 Cl   0  0  0  0  0  0  0  0  0  0  0  0
    6.9120    0.0000    0.0000 Cl   0  0  0  0  0  0  0  0  0  0  0  0
    4.6080   -1.3363    0.0000 O    0  5  0  0  0  0  0  0  0  0  0  0
    2.3040   -3.9905    0.0000 C    0  0  0  0  0  0  0  0  0  0  0  0
    1.1520   -3.3270    0.0000 C    0  0  0  0  0  0  0  0  0  0  0  0
    1.1520   -1.9999    0.0000 C    0  0  0  0  0  0  0  0  0  0  0  0
    2.3040   -1.3363    0.0000 C    0  0  0  0  0  0  0  0  0  0  0  0
    3.4560   -1.9999    0.0000 C    0  0  0  0  0  0  0  0  0  0  0  0
    2.3040    0.0000    0.0000 Cl   0  0  0  0  0  0  0  0  0  0  0  0
    0.0000   -3.9905    0.0000 Cl   0  0  0  0  0  0  0  0  0  0  0  0
    2.3040   -5.3268    0.0000 O    0  5  0  0  0  0  0  0  0  0  0  0
    4.6541   -6.6539    0.0000 Na   0  3  0  0  0  0  0  0  0  0  0  0
    3.3270   -6.6539    0.0000 Na   0  3  0  0  0  0  0  0  0  0  0  0
  1  2  1  0  0  0  0
  1 12  2  0  0  0  0
  1 16  1  0  0  0  0
  2  3  1  0  0  0  0
  3  4  2  0  0  0  0
  3  8  1  0  0  0  0
  4  5  1  0  0  0  0
  4 11  1  0  0  0  0
  5  6  2  0  0  0  0
  5 10  1  0  0  0  0
  6  7  1  0  0  0  0
  7  8  2  0  0  0  0
  7  9  1  0  0  0  0
 12 13  1  0  0  0  0
 12 19  1  0  0  0  0
 13 14  2  0  0  0  0
 13 18  1  0  0  0  0
 14 15  1  0  0  0  0
 15 16  2  0  0  0  0
 15 17  1  0  0  0  0
M  END
> <ID>
1221

> <Formula>
C12H4Cl4Na2O2S

> <FW>
400.0155 (354.0371+22.9892+22.9892)

> <DSSTox_CID>
1270

> <DSSTox_RID>
76049

> <DSSTox_GSID>
21270

> <DSSTox_FileID_Sort>
733

> <TS_ChemName>
Sodium bithionolate

> <TS_ChemName_Synonyms>


> <TS_CASRN>
6385-58-6

> <CASRN_ChemName_Relationship>
primary

> <TS_Description>
single chemical compound

> <ChemNote>
parent [97-18-7]

> <STRUCTURE_Shown>
tested chemical

> <STRUCTURE_Formula>
C12H4Cl4Na2O2S

> <STRUCTURE_MW>
400.0155

> <STRUCTURE_ChemType>
defined organic

> <STRUCTURE_DefinedOrganicForm>
salt

> <STRUCTURE_IUPAC>
disodium 2,2'-sulfanediylbis(4,6-dichlorophenolate)

> <STRUCTURE_SMILES>
[Na+].[Na+].[O-]c2c(Sc1cc(Cl)cc(Cl)c1[O-])cc(Cl)cc2Cl

> <STRUCTURE_SMILES_Desalt>
Oc2c(Sc1cc(Cl)cc(Cl)c1O)cc(Cl)cc2Cl

> <Substance_modify_yyyymmdd>
20080429

$$$$
