6385-02-0
ChemmineR-0915142007XD

 21 20  0  0  0  0  0  0  0  0  2 V2000
    9.1972   -2.3361    0.0000 O    0  0  0  0  0  0  0  0  0  0  0  0
    6.9255    0.0000    0.0000 Na   0  3  0  0  0  0  0  0  0  0  0  0
    0.0000   -2.9155    0.0000 C    0  0  0  0  0  0  0  0  0  0  0  0
    1.1496   -3.5869    0.0000 C    0  0  0  0  0  0  0  0  0  0  0  0
    2.3085   -2.9155    0.0000 C    0  0  0  0  0  0  0  0  0  0  0  0
    2.3085   -1.5819    0.0000 Cl   0  0  0  0  0  0  0  0  0  0  0  0
    3.4581   -3.5869    0.0000 C    0  0  0  0  0  0  0  0  0  0  0  0
    3.4581   -4.9205    0.0000 C    0  0  0  0  0  0  0  0  0  0  0  0
    4.5986   -5.5735    0.0000 Cl   0  0  0  0  0  0  0  0  0  0  0  0
    2.3085   -5.5735    0.0000 C    0  0  0  0  0  0  0  0  0  0  0  0
    1.1496   -4.9205    0.0000 C    0  0  0  0  0  0  0  0  0  0  0  0
    4.5986   -2.9155    0.0000 N    0  0  0  0  0  0  0  0  0  0  0  0
    5.7482   -3.5869    0.0000 C    0  0  0  0  0  0  0  0  0  0  0  0
    6.9071   -2.9155    0.0000 C    0  0  0  0  0  0  0  0  0  0  0  0
    8.0567   -3.5869    0.0000 C    0  0  0  0  0  0  0  0  0  0  0  0
    8.0567   -4.9205    0.0000 C    0  0  0  0  0  0  0  0  0  0  0  0
    6.9071   -5.5735    0.0000 C    0  0  0  0  0  0  0  0  0  0  0  0
    5.7482   -4.9205    0.0000 C    0  0  0  0  0  0  0  0  0  0  0  0
    6.9071   -1.5819    0.0000 C    0  0  0  0  0  0  0  0  0  0  0  0
    5.7482   -0.9289    0.0000 O    0  5  0  0  0  0  0  0  0  0  0  0
    8.0567   -0.9289    0.0000 O    0  0  0  0  0  0  0  0  0  0  0  0
  3  4  1  0  0  0  0
  4  5  2  0  0  0  0
  4 11  1  0  0  0  0
  5  6  1  0  0  0  0
  5  7  1  0  0  0  0
  7  8  2  0  0  0  0
  7 12  1  0  0  0  0
  8  9  1  0  0  0  0
  8 10  1  0  0  0  0
 10 11  2  0  0  0  0
 12 13  1  0  0  0  0
 13 14  2  0  0  0  0
 13 18  1  0  0  0  0
 14 15  1  0  0  0  0
 14 19  1  0  0  0  0
 15 16  2  0  0  0  0
 16 17  1  0  0  0  0
 17 18  2  0  0  0  0
 19 20  1  0  0  0  0
 19 21  2  0  0  0  0
M  END
> <ID>
11032

> <Formula>
C14H12Cl2NNaO3

> <FW>
336.1457 (18.0153+22.9892+295.1412)

> <DSSTox_CID>
25567

> <DSSTox_RID>
80964

> <DSSTox_GSID>
45567

> <DSSTox_FileID_Sort>
5645

> <TS_ChemName>
Meclofenamate sodium

> <TS_ChemName_Synonyms>


> <TS_CASRN>
6385-02-0

> <CASRN_ChemName_Relationship>
primary

> <TS_Description>
single chemical compound

> <ChemNote>
parent [644-62-2]

> <STRUCTURE_Shown>
tested chemical

> <STRUCTURE_Formula>
C14H12Cl2NNaO3

> <STRUCTURE_MW>
336.1457

> <STRUCTURE_ChemType>
defined organic

> <STRUCTURE_DefinedOrganicForm>
salt complex

> <STRUCTURE_IUPAC>
sodium 2-[(2,6-dichloro-3-methylphenyl)amino]benzoate hydrate (1:1:1)

> <STRUCTURE_SMILES>
[Na+].O.Clc2ccc(C)c(Cl)c2Nc1ccccc1C([O-])=O

> <STRUCTURE_SMILES_Desalt>
Clc2ccc(C)c(Cl)c2Nc1ccccc1C(=O)O

> <Substance_modify_yyyymmdd>
20100107

$$$$
