6385-62-2
ChemmineR-0915142007XD

 17 16  0  0  0  0  0  0  0  0  2 V2000
    3.4091   -3.0579    0.0000 C    0  0  0  0  0  0  0  0  0  0  0  0
    3.4091   -4.3894    0.0000 N    0  3  0  0  0  0  0  0  0  0  0  0
    2.2605   -2.3849    0.0000 C    0  0  0  0  0  0  0  0  0  0  0  0
    2.2605   -5.0478    0.0000 C    0  0  0  0  0  0  0  0  0  0  0  0
    1.1047   -3.0579    0.0000 C    0  0  0  0  0  0  0  0  0  0  0  0
    1.1047   -4.3894    0.0000 C    0  0  0  0  0  0  0  0  0  0  0  0
    5.7135   -3.0579    0.0000 N    0  3  0  0  0  0  0  0  0  0  0  0
    5.7135   -4.3894    0.0000 C    0  0  0  0  0  0  0  0  0  0  0  0
    4.5649   -2.3849    0.0000 C    0  0  0  0  0  0  0  0  0  0  0  0
    4.5649   -5.0478    0.0000 C    0  0  0  0  0  0  0  0  0  0  0  0
    6.8694   -1.0608    0.0000 C    0  0  0  0  0  0  0  0  0  0  0  0
    6.8694   -2.3849    0.0000 C    0  0  0  0  0  0  0  0  0  0  0  0
    5.7135   -0.4024    0.0000 C    0  0  0  0  0  0  0  0  0  0  0  0
    4.5649   -1.0608    0.0000 C    0  0  0  0  0  0  0  0  0  0  0  0
    3.3140   -6.2622    0.0000 Br   0  5  0  0  0  0  0  0  0  0  0  0
    7.3156   -3.5554    0.0000 Br   0  5  0  0  0  0  0  0  0  0  0  0
    0.0000    0.0000    0.0000 O    0  0  0  0  0  0  0  0  0  0  0  0
  1  3  1  0  0  0  0
  1  9  1  0  0  0  0
  1  2  2  0  0  0  0
  2  4  1  0  0  0  0
  2 10  1  0  0  0  0
  3  5  2  0  0  0  0
  4  6  2  0  0  0  0
  5  6  1  0  0  0  0
  7  8  1  0  0  0  0
  7 12  1  0  0  0  0
  7  9  2  0  0  0  0
  8 10  1  0  0  0  0
  9 14  1  0  0  0  0
 11 12  2  0  0  0  0
 11 13  1  0  0  0  0
 13 14  2  0  0  0  0
M  END
> <ID>
6317

> <Formula>
C12H14Br2N2O

> <FW>
362.0604 (184.2360+79.9045+79.9045+18.0153)

> <DSSTox_CID>
11248

> <DSSTox_RID>
78868

> <DSSTox_GSID>
31248

> <DSSTox_FileID_Sort>
3550

> <TS_ChemName>
Diquat dibromide monohydrate

> <TS_ChemName_Synonyms>


> <TS_CASRN>
6385-62-2

> <CASRN_ChemName_Relationship>
primary

> <TS_Description>
single chemical compound

> <ChemNote>
ammonium; parent [2764-72-9]

> <STRUCTURE_Shown>
tested chemical

> <STRUCTURE_Formula>
C12H14Br2N2O

> <STRUCTURE_MW>
362.0604

> <STRUCTURE_ChemType>
defined organic

> <STRUCTURE_DefinedOrganicForm>
salt complex

> <STRUCTURE_IUPAC>
6,7-dihydrodipyrido[1,2-a:2',1'-c]pyrazinediium bromide hydrate (1:2:1)

> <STRUCTURE_SMILES>
[Br-].[Br-].O.c1cccc2c3cccc[n+]3CC[n+]12

> <STRUCTURE_SMILES_Desalt>
c1cccc2c3cccc[n+]3CC[n+]12

> <Substance_modify_yyyymmdd>
20080429

$$$$
