63968-64-9
ChemmineR-0915142007XD

 24 27  0  0  1  0  0  0  0  0  1 V2000
    4.3963   -3.5452    0.0000 C   0  0  0  0  0  0  0  0  0  0  0  0
    3.2563   -4.2245    0.0000 C   0  0  0  0  0  0  0  0  0  0  0  0
    5.6067   -4.2636    0.0000 C   0  0  0  0  0  0  0  0  0  0  0  0
    3.2563   -5.7082    0.0000 O   0  0  0  0  0  0  0  0  0  0  0  0
    3.5842   -2.5066    0.0000 O   0  0  0  0  0  0  0  0  0  0  0  0
    1.8585   -3.9903    0.0000 O   0  0  0  0  0  0  0  0  0  0  0  0
    4.3963   -6.3798    0.0000 C   0  0  0  0  0  0  0  0  0  0  0  0
    4.3963   -2.1318    0.0000 C   0  0  0  0  0  0  0  0  0  0  0  0
    1.3119   -2.6784    0.0000 C   0  0  0  0  0  0  0  0  0  0  0  0
    5.6067   -5.6770    0.0000 C   0  0  0  0  0  0  0  0  0  0  0  0
    2.4754   -2.3895    0.0000 O   0  0  0  0  0  0  0  0  0  0  0  0
    6.8561   -3.5452    0.0000 C   0  0  0  0  0  0  0  0  0  0  0  0
    3.3109   -1.2650    0.0000 C   0  0  0  0  0  0  0  0  0  0  0  0
    5.6067   -1.4290    0.0000 C   0  0  0  0  0  0  0  0  0  0  0  0
    6.8561   -2.1318    0.0000 C   0  0  0  0  0  0  0  0  0  0  0  0
    1.9288   -1.5696    0.0000 C   0  0  0  0  0  0  0  0  0  0  0  0
    4.3963   -7.8088    0.0000 O   0  0  0  0  0  0  0  0  0  0  0  0
    0.0000   -2.6784    0.0000 C   0  0  0  0  0  0  0  0  0  0  0  0
    5.9815   -6.6531    0.0000 C   0  0  0  0  0  0  0  0  0  0  0  0
    5.6067    0.0000    0.0000 C   0  0  0  0  0  0  0  0  0  0  0  0
    6.5828   -5.6067    0.0000 H   0  0  0  0  0  0  0  0  0  0  0  0
    2.2177   -5.0601    0.0000 H   0  0  0  0  0  0  0  0  0  0  0  0
    4.3651   -0.7340    0.0000 H   0  0  0  0  0  0  0  0  0  0  0  0
    6.5438   -4.5681    0.0000 H   0  0  0  0  0  0  0  0  0  0  0  0
  1  2  1  0  0  0  0
  1  3  1  0  0  0  0
  5  1  1  6  0  0  0
  1  8  1  0  0  0  0
  2  4  1  6  0  0  0
  2  6  1  0  0  0  0
  2 22  1  1  0  0  0
  3 10  1  0  0  0  0
  3 12  1  0  0  0  0
  3 24  1  6  0  0  0
  4  7  1  0  0  0  0
  5 11  1  0  0  0  0
  6  9  1  0  0  0  0
  7 10  1  0  0  0  0
  7 17  2  0  0  0  0
  8 13  1  0  0  0  0
  8 14  1  0  0  0  0
  8 23  1  6  0  0  0
  9 11  1  6  0  0  0
  9 18  1  1  0  0  0
  9 16  1  0  0  0  0
 10 19  1  1  0  0  0
 10 21  1  6  0  0  0
 12 15  1  0  0  0  0
 13 16  1  0  0  0  0
 14 15  1  0  0  0  0
 14 20  1  6  0  0  0
M  END
> <ID>
7855

> <Formula>
C15H22O5

> <FW>
282.3322

> <DSSTox_CID>
20652

> <DSSTox_RID>
79522

> <DSSTox_GSID>
40652

> <DSSTox_FileID_Sort>
4204

> <TS_ChemName>
Artemisinin

> <TS_ChemName_Synonyms>


> <TS_CASRN>
63968-64-9

> <CASRN_ChemName_Relationship>
primary

> <TS_Description>
single chemical compound

> <ChemNote>
stereochem

> <STRUCTURE_Shown>
tested chemical

> <STRUCTURE_Formula>
C15H22O5

> <STRUCTURE_MW>
282.3322

> <STRUCTURE_ChemType>
defined organic

> <STRUCTURE_DefinedOrganicForm>
parent

> <STRUCTURE_IUPAC>
(5aS,6R,8aS,9R,12S,12aR)-3,6,9-trimethyloctahydro-3,12-epoxy[1,2]dioxepino[4,3-i]isochromen-10(3H)-one

> <STRUCTURE_SMILES>
O=C4O[C@@H]3O[C@@]1(C)CC[C@H]2[C@H](C)CC[C@H](C23OO1)[C@H]4C

> <STRUCTURE_SMILES_Desalt>
O=C4O[C@@H]3O[C@@]1(C)CC[C@H]2[C@H](C)CC[C@H](C23OO1)[C@H]4C

> <Substance_modify_yyyymmdd>
20080429

$$$$
