6398-98-7
ChemmineR-0915142007XD

 29 27  0  0  0  0  0  0  0  0  1 V2000
   10.9641   -4.7236    0.0000 O    0  0  0  0  0  0  0  0  0  0  0  0
   13.0531   -4.7768    0.0000 O    0  0  0  0  0  0  0  0  0  0  0  0
    2.7543   -4.6305    0.0000 Cl   0  0  0  0  0  0  0  0  0  0  0  0
    0.3859   -4.6837    0.0000 Cl   0  0  0  0  0  0  0  0  0  0  0  0
   13.3059    0.0000    0.0000 C    0  0  0  0  0  0  0  0  0  0  0  0
   11.9753    0.0000    0.0000 C    0  0  0  0  0  0  0  0  0  0  0  0
   11.3234   -1.1443    0.0000 N    0  0  0  0  0  0  0  0  0  0  0  0
   11.9753   -2.2886    0.0000 C    0  0  0  0  0  0  0  0  0  0  0  0
   13.3059   -2.2886    0.0000 C    0  0  0  0  0  0  0  0  0  0  0  0
    9.9928   -1.1443    0.0000 C    0  0  0  0  0  0  0  0  0  0  0  0
    9.3142   -2.2886    0.0000 C    0  0  0  0  0  0  0  0  0  0  0  0
    9.9928   -3.4462    0.0000 C    0  0  0  0  0  0  0  0  0  0  0  0
   11.3234   -3.4462    0.0000 O    0  0  0  0  0  0  0  0  0  0  0  0
    9.3142   -4.6039    0.0000 C    0  0  0  0  0  0  0  0  0  0  0  0
    7.9836   -4.6039    0.0000 C    0  0  0  0  0  0  0  0  0  0  0  0
    7.3316   -3.4462    0.0000 C    0  0  0  0  0  0  0  0  0  0  0  0
    7.9836   -2.2886    0.0000 C    0  0  0  0  0  0  0  0  0  0  0  0
    6.0010   -3.4462    0.0000 N    0  0  0  0  0  0  0  0  0  0  0  0
    5.3224   -2.2886    0.0000 C    0  0  0  0  0  0  0  0  0  0  0  0
    6.0010   -1.1443    0.0000 C    0  0  0  0  0  0  0  0  0  0  0  0
    5.3224    0.0000    0.0000 C    0  0  0  0  0  0  0  0  0  0  0  0
    3.9918    0.0000    0.0000 N    0  0  0  0  0  0  0  0  0  0  0  0
    3.3398   -1.1443    0.0000 C    0  0  0  0  0  0  0  0  0  0  0  0
    3.9918   -2.2886    0.0000 C    0  0  0  0  0  0  0  0  0  0  0  0
    3.3398   -3.4462    0.0000 C    0  0  0  0  0  0  0  0  0  0  0  0
    2.0092   -3.4462    0.0000 C    0  0  0  0  0  0  0  0  0  0  0  0
    1.3306   -2.2886    0.0000 C    0  0  0  0  0  0  0  0  0  0  0  0
    2.0092   -1.1443    0.0000 C    0  0  0  0  0  0  0  0  0  0  0  0
    0.0000   -2.2886    0.0000 Cl   0  0  0  0  0  0  0  0  0  0  0  0
  5  6  1  0  0  0  0
  6  7  1  0  0  0  0
  7  8  1  0  0  0  0
  7 10  1  0  0  0  0
  8  9  1  0  0  0  0
 10 11  1  0  0  0  0
 11 12  2  0  0  0  0
 11 17  1  0  0  0  0
 12 13  1  0  0  0  0
 12 14  1  0  0  0  0
 14 15  2  0  0  0  0
 15 16  1  0  0  0  0
 16 17  2  0  0  0  0
 16 18  1  0  0  0  0
 18 19  1  0  0  0  0
 19 20  2  0  0  0  0
 19 24  1  0  0  0  0
 20 21  1  0  0  0  0
 21 22  2  0  0  0  0
 22 23  1  0  0  0  0
 23 24  2  0  0  0  0
 23 28  1  0  0  0  0
 24 25  1  0  0  0  0
 25 26  2  0  0  0  0
 26 27  1  0  0  0  0
 27 28  2  0  0  0  0
 27 29  1  0  0  0  0
M  END
> <ID>
11033

> <Formula>
C20H28Cl3N3O3

> <FW>
464.8136 (18.0153+18.0153+36.4609+36.4609+355.8612)

> <DSSTox_CID>
25568

> <DSSTox_RID>
80965

> <DSSTox_GSID>
45568

> <DSSTox_FileID_Sort>
5646

> <TS_ChemName>
Amodiaquin dihydrochloride dihydrate

> <TS_ChemName_Synonyms>


> <TS_CASRN>
6398-98-7

> <CASRN_ChemName_Relationship>
primary

> <TS_Description>
single chemical compound

> <ChemNote>
parent [86-42-0]

> <STRUCTURE_Shown>
tested chemical

> <STRUCTURE_Formula>
C20H28Cl3N3O3

> <STRUCTURE_MW>
464.8136

> <STRUCTURE_ChemType>
defined organic

> <STRUCTURE_DefinedOrganicForm>
complex

> <STRUCTURE_IUPAC>
4-[(7-chloroquinolin-4-yl)amino]-2-[(diethylamino)methyl]phenol dihydrochloride dihydrate

> <STRUCTURE_SMILES>
Cl.Cl.O.O.CCN(CC)Cc1cc(ccc1O)Nc2ccnc3cc(Cl)ccc23

> <STRUCTURE_SMILES_Desalt>
CCN(CC)Cc1cc(ccc1O)Nc2ccnc3cc(Cl)ccc23

> <Substance_modify_yyyymmdd>
20100107

$$$$
