64-00-6
ChemmineR-0915142007XD

 14 14  0  0  0  0  0  0  0  0  1 V2000
    1.1526    0.0000    0.0000 C   0  0  0  0  0  0  0  0  0  0  0  0
    0.0000   -1.9989    0.0000 C   0  0  0  0  0  0  0  0  0  0  0  0
    8.0599   -3.9897    0.0000 C   0  0  0  0  0  0  0  0  0  0  0  0
    3.4577   -3.9897    0.0000 C   0  0  0  0  0  0  0  0  0  0  0  0
    2.3051   -3.3288    0.0000 C   0  0  0  0  0  0  0  0  0  0  0  0
    4.6022   -3.3288    0.0000 C   0  0  0  0  0  0  0  0  0  0  0  0
    3.4577   -1.3299    0.0000 C   0  0  0  0  0  0  0  0  0  0  0  0
    1.1526   -1.3299    0.0000 C   0  0  0  0  0  0  0  0  0  0  0  0
    2.3051   -1.9989    0.0000 C   0  0  0  0  0  0  0  0  0  0  0  0
    4.6022   -1.9989    0.0000 C   0  0  0  0  0  0  0  0  0  0  0  0
    6.9074   -1.9989    0.0000 C   0  0  0  0  0  0  0  0  0  0  0  0
    6.9074   -3.3288    0.0000 N   0  0  0  0  0  0  0  0  0  0  0  0
    8.0599   -1.3299    0.0000 O   0  0  0  0  0  0  0  0  0  0  0  0
    5.7548   -1.3299    0.0000 O   0  0  0  0  0  0  0  0  0  0  0  0
  1  8  1  0  0  0  0
  2  8  1  0  0  0  0
  3 12  1  0  0  0  0
  4  5  2  0  0  0  0
  4  6  1  0  0  0  0
  5  9  1  0  0  0  0
  6 10  2  0  0  0  0
  7  9  2  0  0  0  0
  7 10  1  0  0  0  0
  8  9  1  0  0  0  0
 10 14  1  0  0  0  0
 11 12  1  0  0  0  0
 11 13  2  0  0  0  0
 11 14  1  0  0  0  0
M  END
> <ID>
7695

> <Formula>
C11H15NO2

> <FW>
193.2423

> <DSSTox_CID>
20324

> <DSSTox_RID>
79478

> <DSSTox_GSID>
40324

> <DSSTox_FileID_Sort>
4160

> <TS_ChemName>
m-Cumenyl methylcarbamate

> <TS_ChemName_Synonyms>
m-Cumenyl methylcarbamate (UC 10854)

> <TS_CASRN>
64-00-6

> <CASRN_ChemName_Relationship>
primary

> <TS_Description>
single chemical compound

> <ChemNote>


> <STRUCTURE_Shown>
tested chemical

> <STRUCTURE_Formula>
C11H15NO2

> <STRUCTURE_MW>
193.2423

> <STRUCTURE_ChemType>
defined organic

> <STRUCTURE_DefinedOrganicForm>
parent

> <STRUCTURE_IUPAC>
3-(propan-2-yl)phenyl methylcarbamate

> <STRUCTURE_SMILES>
O=C(Oc1cc(ccc1)C(C)C)NC

> <STRUCTURE_SMILES_Desalt>
O=C(Oc1cc(ccc1)C(C)C)NC

> <Substance_modify_yyyymmdd>
20080429

$$$$
