64-19-7
ChemmineR-0915142007XD

  4  3  0  0  0  0  0  0  0  0  1 V2000
    1.3292   -1.1518    0.0000 C   0  0  0  0  0  0  0  0  0  0  0  0
    1.9950    0.0000    0.0000 C   0  0  0  0  0  0  0  0  0  0  0  0
    1.9950   -2.3037    0.0000 O   0  0  0  0  0  0  0  0  0  0  0  0
    0.0000   -1.1518    0.0000 O   0  0  0  0  0  0  0  0  0  0  0  0
  1  2  1  0  0  0  0
  1  3  2  0  0  0  0
  1  4  1  0  0  0  0
M  END
> <ID>
3655

> <Formula>
C2H4O2

> <FW>
60.052

> <DSSTox_CID>
4394

> <DSSTox_RID>
77386

> <DSSTox_GSID>
24394

> <DSSTox_FileID_Sort>
2069

> <TS_ChemName>
Acetic acid

> <TS_ChemName_Synonyms>
Vinegar

> <TS_CASRN>
64-19-7

> <CASRN_ChemName_Relationship>
primary

> <TS_Description>
single chemical compound

> <ChemNote>


> <STRUCTURE_Shown>
tested chemical

> <STRUCTURE_Formula>
C2H4O2

> <STRUCTURE_MW>
60.052

> <STRUCTURE_ChemType>
defined organic

> <STRUCTURE_DefinedOrganicForm>
parent

> <STRUCTURE_IUPAC>
acetic acid

> <STRUCTURE_SMILES>
CC(=O)O

> <STRUCTURE_SMILES_Desalt>
CC(=O)O

> <Substance_modify_yyyymmdd>
20080429

$$$$
