64-10-8
ChemmineR-0915142007XD

 10 10  0  0  0  0  0  0  0  0  1 V2000
    1.1528   -2.0001    0.0000 C   0  0  0  0  0  0  0  0  0  0  0  0
    1.1528   -0.6571    0.0000 O   0  0  0  0  0  0  0  0  0  0  0  0
    2.3056   -2.6572    0.0000 N   0  0  0  0  0  0  0  0  0  0  0  0
    0.0000   -2.6572    0.0000 N   0  0  0  0  0  0  0  0  0  0  0  0
    4.6284    0.0000    0.0000 C   0  0  0  0  0  0  0  0  0  0  0  0
    5.7639   -0.6571    0.0000 C   0  0  0  0  0  0  0  0  0  0  0  0
    5.7639   -1.9828    0.0000 C   0  0  0  0  0  0  0  0  0  0  0  0
    4.6111   -2.6572    0.0000 C   0  0  0  0  0  0  0  0  0  0  0  0
    3.4584   -1.9828    0.0000 C   0  0  0  0  0  0  0  0  0  0  0  0
    3.4584   -0.6744    0.0000 C   0  0  0  0  0  0  0  0  0  0  0  0
  1  2  2  0  0  0  0
  1  3  1  0  0  0  0
  1  4  1  0  0  0  0
  3  9  1  0  0  0  0
  5 10  2  0  0  0  0
  5  6  1  0  0  0  0
  6  7  2  0  0  0  0
  7  8  1  0  0  0  0
  8  9  2  0  0  0  0
  9 10  1  0  0  0  0
M  END
> <ID>
9413

> <Formula>
C7H8N2O

> <FW>
136.1512

> <DSSTox_CID>
22507

> <DSSTox_RID>
80043

> <DSSTox_GSID>
42507

> <DSSTox_FileID_Sort>
4725

> <TS_ChemName>
Urea, phenyl-

> <TS_ChemName_Synonyms>


> <TS_CASRN>
64-10-8

> <CASRN_ChemName_Relationship>
primary

> <TS_Description>
single chemical compound

> <ChemNote>


> <STRUCTURE_Shown>
tested chemical

> <STRUCTURE_Formula>
C7H8N2O

> <STRUCTURE_MW>
136.1512

> <STRUCTURE_ChemType>
defined organic

> <STRUCTURE_DefinedOrganicForm>
parent

> <STRUCTURE_IUPAC>
1-phenylurea

> <STRUCTURE_SMILES>
O=C(N)Nc1ccccc1

> <STRUCTURE_SMILES_Desalt>
O=C(N)Nc1ccccc1

> <Substance_modify_yyyymmdd>
20080825

$$$$
