64-52-8
ChemmineR-0915142007XD

 24 26  0  0  0  0  0  0  0  0  1 V2000
    4.6622   -6.6584    0.0000 C   0  0  0  0  0  0  0  0  0  0  0  0
    4.6622   -7.9851    0.0000 C   0  0  0  0  0  0  0  0  0  0  0  0
    3.5124   -5.9888    0.0000 N   0  0  0  0  0  0  0  0  0  0  0  0
    3.5124   -8.6421    0.0000 C   0  0  0  0  0  0  0  0  0  0  0  0
    2.3500   -6.6584    0.0000 C   0  0  0  0  0  0  0  0  0  0  0  0
    2.3500   -7.9851    0.0000 C   0  0  0  0  0  0  0  0  0  0  0  0
    3.5124   -9.9813    0.0000 C   0  0  0  0  0  0  0  0  0  0  0  0
    4.6622  -10.6510    0.0000 C   0  0  0  0  0  0  0  0  0  0  0  0
    2.3500  -10.6510    0.0000 C   0  0  0  0  0  0  0  0  0  0  0  0
    4.6622  -11.9776    0.0000 C   0  0  0  0  0  0  0  0  0  0  0  0
    2.3500  -11.9776    0.0000 C   0  0  0  0  0  0  0  0  0  0  0  0
    3.5124  -12.6346    0.0000 C   0  0  0  0  0  0  0  0  0  0  0  0
    2.2869   -9.1601    0.0000 O   0  0  0  0  0  0  0  0  0  0  0  0
    1.2129   -8.3641    0.0000 C   0  0  0  0  0  0  0  0  0  0  0  0
    0.0000   -8.8821    0.0000 C   0  0  0  0  0  0  0  0  0  0  0  0
    1.3898   -7.0501    0.0000 O   0  0  0  0  0  0  0  0  0  0  0  0
    3.5124   -4.6622    0.0000 C   0  0  0  0  0  0  0  0  0  0  0  0
    4.6622   -3.9925    0.0000 C   0  0  0  0  0  0  0  0  0  0  0  0
    4.6622   -2.6533    0.0000 C   0  0  0  0  0  0  0  0  0  0  0  0
    3.5124   -1.9963    0.0000 C   0  0  0  0  0  0  0  0  0  0  0  0
    5.8119   -1.9963    0.0000 C   0  0  0  0  0  0  0  0  0  0  0  0
    3.5124   -0.6696    0.0000 C   0  0  0  0  0  0  0  0  0  0  0  0
    5.8119   -0.6696    0.0000 C   0  0  0  0  0  0  0  0  0  0  0  0
    4.6622    0.0000    0.0000 C   0  0  0  0  0  0  0  0  0  0  0  0
  1  2  1  0  0  0  0
  1  3  1  0  0  0  0
  2  4  1  0  0  0  0
  3  5  1  0  0  0  0
  3 17  1  0  0  0  0
  4  6  1  0  0  0  0
  4  7  1  0  0  0  0
  4 13  1  0  0  0  0
  5  6  1  0  0  0  0
  7  8  1  0  0  0  0
  7  9  2  0  0  0  0
  8 10  2  0  0  0  0
  9 11  1  0  0  0  0
 10 12  1  0  0  0  0
 11 12  2  0  0  0  0
 13 14  1  0  0  0  0
 14 15  1  0  0  0  0
 14 16  2  0  0  0  0
 17 18  1  0  0  0  0
 18 19  1  0  0  0  0
 19 20  1  0  0  0  0
 19 21  2  0  0  0  0
 20 22  2  0  0  0  0
 21 23  1  0  0  0  0
 22 24  1  0  0  0  0
 23 24  2  0  0  0  0
M  END
> <ID>
13911

> <Formula>
C21H25NO2

> <FW>
323.4287

> <DSSTox_CID>
28848

> <DSSTox_RID>
83117

> <DSSTox_GSID>
48922

> <DSSTox_FileID_Sort>
7794

> <TS_ChemName>
1-(2-Phenylethyl)-4-phenyl-4-acetoxypiperidine

> <TS_ChemName_Synonyms>


> <TS_CASRN>
64-52-8

> <CASRN_ChemName_Relationship>
primary

> <TS_Description>
single chemical compound

> <ChemNote>


> <STRUCTURE_Shown>
tested chemical

> <STRUCTURE_Formula>
C21H25NO2

> <STRUCTURE_MW>
323.4287

> <STRUCTURE_ChemType>
defined organic

> <STRUCTURE_DefinedOrganicForm>
parent

> <STRUCTURE_IUPAC>
4-phenyl-1-(2-phenylethyl)piperidin-4-yl acetate

> <STRUCTURE_SMILES>
CC(=O)OC2(CCN(CCc1ccccc1)CC2)c3ccccc3

> <STRUCTURE_SMILES_Desalt>
CC(=O)OC2(CCN(CCc1ccccc1)CC2)c3ccccc3

> <Substance_modify_yyyymmdd>
20111204

$$$$
