64-55-1
ChemmineR-0915142007XD

 16 15  0  0  0  0  0  0  0  0  1 V2000
    0.0000   -6.2947    0.0000 N   0  0  0  0  0  0  0  0  0  0  0  0
    0.6672   -5.1427    0.0000 C   0  0  0  0  0  0  0  0  0  0  0  0
    0.0000   -3.9908    0.0000 O   0  0  0  0  0  0  0  0  0  0  0  0
    1.9954   -5.1427    0.0000 O   0  0  0  0  0  0  0  0  0  0  0  0
    2.6626   -3.9908    0.0000 C   0  0  0  0  0  0  0  0  0  0  0  0
    3.9908   -3.9908    0.0000 C   0  0  0  0  0  0  0  0  0  0  0  0
    5.3190   -3.9908    0.0000 C   0  0  0  0  0  0  0  0  0  0  0  0
    3.9908   -5.3190    0.0000 C   0  0  0  0  0  0  0  0  0  0  0  0
    2.8389   -5.9862    0.0000 C   0  0  0  0  0  0  0  0  0  0  0  0
    5.1427   -5.9862    0.0000 C   0  0  0  0  0  0  0  0  0  0  0  0
    6.2947   -5.3190    0.0000 C   0  0  0  0  0  0  0  0  0  0  0  0
    3.9908   -2.6626    0.0000 C   0  0  0  0  0  0  0  0  0  0  0  0
    5.1427   -1.9954    0.0000 O   0  0  0  0  0  0  0  0  0  0  0  0
    5.1427   -0.6672    0.0000 C   0  0  0  0  0  0  0  0  0  0  0  0
    3.9908    0.0000    0.0000 N   0  0  0  0  0  0  0  0  0  0  0  0
    6.2947    0.0000    0.0000 O   0  0  0  0  0  0  0  0  0  0  0  0
  1  2  1  0  0  0  0
  2  3  2  0  0  0  0
  2  4  1  0  0  0  0
  4  5  1  0  0  0  0
  5  6  1  0  0  0  0
  6  7  1  0  0  0  0
  6  8  1  0  0  0  0
  6 12  1  0  0  0  0
  8  9  1  0  0  0  0
  8 10  1  0  0  0  0
 10 11  1  0  0  0  0
 12 13  1  0  0  0  0
 13 14  1  0  0  0  0
 14 15  1  0  0  0  0
 14 16  2  0  0  0  0
M  END
> <ID>
2913

> <Formula>
C10H20N2O4

> <FW>
232.2768

> <DSSTox_CID>
3239

> <DSSTox_RID>
97548

> <DSSTox_GSID>
23239

> <DSSTox_FileID_Sort>
8323

> <TS_ChemName>
Mebutamate

> <TS_ChemName_Synonyms>


> <TS_CASRN>
64-55-1

> <CASRN_ChemName_Relationship>
primary

> <TS_Description>
single chemical compound

> <ChemNote>


> <STRUCTURE_Shown>
tested chemical

> <STRUCTURE_Formula>
C10H20N2O4

> <STRUCTURE_MW>
232.2768

> <STRUCTURE_ChemType>
defined organic

> <STRUCTURE_DefinedOrganicForm>
parent

> <STRUCTURE_IUPAC>
2-[(carbamoyloxy)methyl]-2,3-dimethylpentyl carbamate

> <STRUCTURE_SMILES>
O=C(N)OCC(C)(COC(=O)N)C(C)CC

> <STRUCTURE_SMILES_Desalt>
O=C(N)OCC(C)(COC(=O)N)C(C)CC

> <Substance_modify_yyyymmdd>
20080429

$$$$
