64-65-3
ChemmineR-0915142007XD

 11 11  0  0  0  0  0  0  0  0  1 V2000
    2.2893    0.0000    0.0000 N   0  0  0  0  0  0  0  0  0  0  0  0
    3.4431   -0.6712    0.0000 C   0  0  0  0  0  0  0  0  0  0  0  0
    1.1354   -0.6712    0.0000 C   0  0  0  0  0  0  0  0  0  0  0  0
    2.2893   -2.6570    0.0000 C   0  0  0  0  0  0  0  0  0  0  0  0
    0.0000    0.0000    0.0000 O   0  0  0  0  0  0  0  0  0  0  0  0
    4.5969    0.0000    0.0000 O   0  0  0  0  0  0  0  0  0  0  0  0
    1.1354   -1.9997    0.0000 C   0  0  0  0  0  0  0  0  0  0  0  0
    3.4431   -1.9997    0.0000 C   0  0  0  0  0  0  0  0  0  0  0  0
    2.9650   -3.8109    0.0000 C   0  0  0  0  0  0  0  0  0  0  0  0
    1.6319   -3.8109    0.0000 C   0  0  0  0  0  0  0  0  0  0  0  0
    4.2935   -3.8109    0.0000 C   0  0  0  0  0  0  0  0  0  0  0  0
  1  2  1  0  0  0  0
  1  3  1  0  0  0  0
  2  6  2  0  0  0  0
  2  8  1  0  0  0  0
  3  5  2  0  0  0  0
  3  7  1  0  0  0  0
  4  7  1  0  0  0  0
  4  9  1  0  0  0  0
  4 10  1  0  0  0  0
  4  8  1  0  0  0  0
  9 11  1  0  0  0  0
M  END
> <ID>
10844

> <Formula>
C8H13NO2

> <FW>
155.1943

> <DSSTox_CID>
25250

> <DSSTox_RID>
80774

> <DSSTox_GSID>
45250

> <DSSTox_FileID_Sort>
5455

> <TS_ChemName>
Bemegride

> <TS_ChemName_Synonyms>


> <TS_CASRN>
64-65-3

> <CASRN_ChemName_Relationship>
primary

> <TS_Description>
single chemical compound

> <ChemNote>


> <STRUCTURE_Shown>
tested chemical

> <STRUCTURE_Formula>
C8H13NO2

> <STRUCTURE_MW>
155.1943

> <STRUCTURE_ChemType>
defined organic

> <STRUCTURE_DefinedOrganicForm>
parent

> <STRUCTURE_IUPAC>
4-ethyl-4-methylpiperidine-2,6-dione

> <STRUCTURE_SMILES>
CCC1(C)CC(=O)NC(=O)C1

> <STRUCTURE_SMILES_Desalt>
CCC1(C)CC(=O)NC(=O)C1

> <Substance_modify_yyyymmdd>
20100107

$$$$
