64-67-5
ChemmineR-0915142007XD

  9  8  0  0  0  0  0  0  0  0  1 V2000
    0.0000    0.0000    0.0000 C   0  0  0  0  0  0  0  0  0  0  0  0
    1.2665   -0.4222    0.0000 C   0  0  0  0  0  0  0  0  0  0  0  0
    5.0344   -1.7076    0.0000 C   0  0  0  0  0  0  0  0  0  0  0  0
    1.5248   -1.7328    0.0000 O   0  0  0  0  0  0  0  0  0  0  0  0
    4.0389   -2.5834    0.0000 O   0  0  0  0  0  0  0  0  0  0  0  0
    2.3566   -3.4088    0.0000 O   0  0  0  0  0  0  0  0  0  0  0  0
    3.2135   -0.8947    0.0000 O   0  0  0  0  0  0  0  0  0  0  0  0
    2.7787   -2.1549    0.0000 S   0  0  0  0  0  0  0  0  0  0  0  0
    6.3009   -2.1234    0.0000 C   0  0  0  0  0  0  0  0  0  0  0  0
  1  2  1  0  0  0  0
  2  4  1  0  0  0  0
  3  5  1  0  0  0  0
  3  9  1  0  0  0  0
  4  8  1  0  0  0  0
  5  8  1  0  0  0  0
  6  8  2  0  0  0  0
  7  8  2  0  0  0  0
M  END
> <ID>
3475

> <Formula>
C4H10O4S

> <FW>
154.1848

> <DSSTox_CID>
4045

> <DSSTox_RID>
77265

> <DSSTox_GSID>
24045

> <DSSTox_FileID_Sort>
1948

> <TS_ChemName>
Diethyl sulfate

> <TS_ChemName_Synonyms>


> <TS_CASRN>
64-67-5

> <CASRN_ChemName_Relationship>
primary

> <TS_Description>
single chemical compound

> <ChemNote>


> <STRUCTURE_Shown>
tested chemical

> <STRUCTURE_Formula>
C4H10O4S

> <STRUCTURE_MW>
154.1848

> <STRUCTURE_ChemType>
defined organic

> <STRUCTURE_DefinedOrganicForm>
parent

> <STRUCTURE_IUPAC>
diethyl sulfate

> <STRUCTURE_SMILES>
O=S(=O)(OCC)OCC

> <STRUCTURE_SMILES_Desalt>
O=S(=O)(OCC)OCC

> <Substance_modify_yyyymmdd>
20080429

$$$$
