64-73-3
ChemmineR-0915142007XD

 35 37  0  0  1  0  0  0  0  0  1 V2000
    6.9248   -3.9781    0.0000 C    0  0  0  0  0  0  0  0  0  0  0  0
    4.6288   -3.9781    0.0000 C    0  0  0  0  0  0  0  0  0  0  0  0
    9.2453   -3.9781    0.0000 C    0  0  0  0  0  0  0  0  0  0  0  0
    5.7829   -4.6411    0.0000 C    0  0  0  0  0  0  0  0  0  0  0  0
    8.0789   -4.6411    0.0000 C    0  0  0  0  0  0  0  0  0  0  0  0
    3.4747   -4.6411    0.0000 C    0  0  0  0  0  0  0  0  0  0  0  0
    6.9248   -2.6398    0.0000 C    0  0  0  0  0  0  0  0  0  0  0  0
    9.2453   -2.6398    0.0000 C    0  0  0  0  0  0  0  0  0  0  0  0
    2.3205   -3.9781    0.0000 C    0  0  0  0  0  0  0  0  0  0  0  0
    2.3205   -2.6398    0.0000 C    0  0  0  0  0  0  0  0  0  0  0  0
    4.6288   -2.6398    0.0000 C    0  0  0  0  0  0  0  0  0  0  0  0
    3.4747   -1.9890    0.0000 C    0  0  0  0  0  0  0  0  0  0  0  0
    8.0789   -1.9890    0.0000 C    0  0  0  0  0  0  0  0  0  0  0  0
    5.7829   -1.9890    0.0000 C    0  0  0  0  0  0  0  0  0  0  0  0
   10.3995   -4.6656    0.0000 C    0  0  0  0  0  0  0  0  0  0  0  0
    1.1664   -1.9890    0.0000 C    0  0  0  0  0  0  0  0  0  0  0  0
    1.1664   -4.6411    0.0000 C    0  0  0  0  0  0  0  0  0  0  0  0
    8.0789   -5.9794    0.0000 O    0  0  0  0  0  0  0  0  0  0  0  0
    3.4747   -5.9794    0.0000 O    0  0  0  0  0  0  0  0  0  0  0  0
    8.0789   -0.6507    0.0000 N    0  0  0  0  0  0  0  0  0  0  0  0
    6.9248   -5.2427    0.0000 O    0  0  0  0  0  0  0  0  0  0  0  0
   10.3995   -5.9917    0.0000 O    0  0  0  0  0  0  0  0  0  0  0  0
    5.7829   -5.9794    0.0000 O    0  0  0  0  0  0  0  0  0  0  0  0
   10.3995   -1.9890    0.0000 O    0  0  0  0  0  0  0  0  0  0  0  0
    0.0000   -2.6398    0.0000 C    0  0  0  0  0  0  0  0  0  0  0  0
    0.0000   -3.9781    0.0000 C    0  0  0  0  0  0  0  0  0  0  0  0
    3.4747   -0.6507    0.0000 O    0  0  0  0  0  0  0  0  0  0  0  0
   11.5782   -3.9904    0.0000 N    0  0  0  0  0  0  0  0  0  0  0  0
    1.1664   -0.6507    0.0000 Cl   0  0  0  0  0  0  0  0  0  0  0  0
    1.1664   -5.9794    0.0000 O    0  0  0  0  0  0  0  0  0  0  0  0
    9.2453    0.0000    0.0000 C    0  0  0  0  0  0  0  0  0  0  0  0
    6.9248    0.0000    0.0000 C    0  0  0  0  0  0  0  0  0  0  0  0
    6.9248   -1.3137    0.0000 H    0  0  0  0  0  0  0  0  0  0  0  0
    4.6043   -1.3629    0.0000 H    0  0  0  0  0  0  0  0  0  0  0  0
   12.2780   -0.5525    0.0000 Cl   0  0  0  0  0  0  0  0  0  0  0  0
  1  4  1  0  0  0  0
  1  5  1  0  0  0  0
  1  7  1  0  0  0  0
  1 21  1  6  0  0  0
  2  4  2  0  0  0  0
  2  6  1  0  0  0  0
  2 11  1  0  0  0  0
  3  5  1  0  0  0  0
  3 15  1  0  0  0  0
  3  8  2  0  0  0  0
  4 23  1  0  0  0  0
  5 18  2  0  0  0  0
  6  9  1  0  0  0  0
  6 19  2  0  0  0  0
  7 13  1  0  0  0  0
  7 14  1  0  0  0  0
  7 33  1  6  0  0  0
  8 13  1  0  0  0  0
  8 24  1  0  0  0  0
  9 17  1  0  0  0  0
  9 10  2  0  0  0  0
 10 12  1  0  0  0  0
 10 16  1  0  0  0  0
 11 14  1  0  0  0  0
 11 12  1  0  0  0  0
 11 34  1  6  0  0  0
 12 27  1  1  0  0  0
 13 20  1  6  0  0  0
 15 22  2  0  0  0  0
 15 28  1  0  0  0  0
 16 25  2  0  0  0  0
 16 29  1  0  0  0  0
 17 26  2  0  0  0  0
 17 30  1  0  0  0  0
 20 31  1  0  0  0  0
 20 32  1  0  0  0  0
 25 26  1  0  0  0  0
M  END
> <ID>
10845

> <Formula>
C21H22Cl2N2O8

> <FW>
501.3140 (464.8530+36.4609)

> <DSSTox_CID>
25252

> <DSSTox_RID>
80775

> <DSSTox_GSID>
45252

> <DSSTox_FileID_Sort>
5456

> <TS_ChemName>
Demeclocycline hydrochloride

> <TS_ChemName_Synonyms>


> <TS_CASRN>
64-73-3

> <CASRN_ChemName_Relationship>
primary

> <TS_Description>
single chemical compound

> <ChemNote>
stereochem; tautomers; parent [127-33-3]

> <STRUCTURE_Shown>
tested chemical

> <STRUCTURE_Formula>
C21H22Cl2N2O8

> <STRUCTURE_MW>
501.314

> <STRUCTURE_ChemType>
defined organic

> <STRUCTURE_DefinedOrganicForm>
complex

> <STRUCTURE_IUPAC>
(4S,4aS,5aS,6S,12aS)-7-chloro-4-(dimethylamino)-3,6,10,12,12a-pentahydroxy-1,11-dioxo-1,4,4a,5,5a,6,11,12a-octahydrotetracene-2-carboxamide hydrochloride (1:1)

> <STRUCTURE_SMILES>
Cl.NC(=O)C=2C(=O)[C@@]3(O)C(O)=C4C(=O)c1c(c(Cl)ccc1O)[C@@H](O)[C@H]4C[C@H]3[C@@H](C=2O)N(C)C

> <STRUCTURE_SMILES_Desalt>
NC(=O)C=2C(=O)[C@@]3(O)C(O)=C4C(=O)c1c(c(Cl)ccc1O)[C@@H](O)[C@H]4C[C@H]3[C@@H](C=2O)N(C)C

> <Substance_modify_yyyymmdd>
20100107

$$$$
