64-72-2
ChemmineR-0915142007XD

 36 38  0  0  1  0  0  0  0  0  1 V2000
    7.0142   -4.0685    0.0000 C    0  0  0  0  0  0  0  0  0  0  0  0
    4.7102   -4.0685    0.0000 C    0  0  0  0  0  0  0  0  0  0  0  0
    9.3912   -4.0685    0.0000 C    0  0  0  0  0  0  0  0  0  0  0  0
    5.8622   -4.7247    0.0000 C    0  0  0  0  0  0  0  0  0  0  0  0
    8.2100   -4.7247    0.0000 C    0  0  0  0  0  0  0  0  0  0  0  0
    3.5144   -4.7247    0.0000 C    0  0  0  0  0  0  0  0  0  0  0  0
    7.0142   -2.6978    0.0000 C    0  0  0  0  0  0  0  0  0  0  0  0
    2.3332   -2.6978    0.0000 C    0  0  0  0  0  0  0  0  0  0  0  0
    2.3332   -4.0685    0.0000 C    0  0  0  0  0  0  0  0  0  0  0  0
    9.3912   -2.6978    0.0000 C    0  0  0  0  0  0  0  0  0  0  0  0
    3.5144   -2.0270    0.0000 C    0  0  0  0  0  0  0  0  0  0  0  0
    4.7102   -2.6978    0.0000 C    0  0  0  0  0  0  0  0  0  0  0  0
    8.2100   -2.0270    0.0000 C    0  0  0  0  0  0  0  0  0  0  0  0
    5.8622   -2.0270    0.0000 C    0  0  0  0  0  0  0  0  0  0  0  0
   10.5724   -4.7393    0.0000 C    0  0  0  0  0  0  0  0  0  0  0  0
    1.1666   -2.0270    0.0000 C    0  0  0  0  0  0  0  0  0  0  0  0
    1.1666   -4.7247    0.0000 C    0  0  0  0  0  0  0  0  0  0  0  0
    8.2100   -6.0663    0.0000 O    0  0  0  0  0  0  0  0  0  0  0  0
    3.5144   -6.0663    0.0000 O    0  0  0  0  0  0  0  0  0  0  0  0
    8.2100   -0.6562    0.0000 N    0  0  0  0  0  0  0  0  0  0  0  0
    7.0142   -5.4247    0.0000 O    0  0  0  0  0  0  0  0  0  0  0  0
   10.5724   -6.0955    0.0000 O    0  0  0  0  0  0  0  0  0  0  0  0
    5.8622   -6.0663    0.0000 O    0  0  0  0  0  0  0  0  0  0  0  0
   10.5724   -2.0270    0.0000 O    0  0  0  0  0  0  0  0  0  0  0  0
    3.0040   -0.9770    0.0000 O    0  0  0  0  0  0  0  0  0  0  0  0
    0.0000   -2.6978    0.0000 C    0  0  0  0  0  0  0  0  0  0  0  0
    0.0000   -4.0685    0.0000 C    0  0  0  0  0  0  0  0  0  0  0  0
   11.7390   -4.0685    0.0000 N    0  0  0  0  0  0  0  0  0  0  0  0
    3.8790   -1.0062    0.0000 C    0  0  0  0  0  0  0  0  0  0  0  0
    1.1666   -0.6562    0.0000 Cl   0  0  0  0  0  0  0  0  0  0  0  0
    1.1666   -6.0663    0.0000 O    0  0  0  0  0  0  0  0  0  0  0  0
    7.0142    0.0000    0.0000 C    0  0  0  0  0  0  0  0  0  0  0  0
    9.3912    0.0000    0.0000 C    0  0  0  0  0  0  0  0  0  0  0  0
    7.0142   -1.3416    0.0000 H    0  0  0  0  0  0  0  0  0  0  0  0
    4.7539   -1.7937    0.0000 H    0  0  0  0  0  0  0  0  0  0  0  0
   14.5826   -0.5396    0.0000 Cl   0  0  0  0  0  0  0  0  0  0  0  0
  1  4  1  0  0  0  0
  1  5  1  0  0  0  0
  1  7  1  0  0  0  0
  1 21  1  6  0  0  0
  2  4  2  0  0  0  0
  2  6  1  0  0  0  0
  2 12  1  0  0  0  0
  3  5  1  0  0  0  0
  3 15  1  0  0  0  0
  3 10  2  0  0  0  0
  4 23  1  0  0  0  0
  5 18  2  0  0  0  0
  6  9  1  0  0  0  0
  6 19  2  0  0  0  0
  7 13  1  0  0  0  0
  7 14  1  0  0  0  0
  7 34  1  6  0  0  0
  8 11  1  0  0  0  0
  8 16  1  0  0  0  0
  8  9  2  0  0  0  0
  9 17  1  0  0  0  0
 10 13  1  0  0  0  0
 10 24  1  0  0  0  0
 11 12  1  0  0  0  0
 11 25  1  1  0  0  0
 11 29  1  6  0  0  0
 12 14  1  0  0  0  0
 12 35  1  6  0  0  0
 13 20  1  6  0  0  0
 15 22  2  0  0  0  0
 15 28  1  0  0  0  0
 16 26  2  0  0  0  0
 16 30  1  0  0  0  0
 17 27  2  0  0  0  0
 17 31  1  0  0  0  0
 20 32  1  0  0  0  0
 20 33  1  0  0  0  0
 26 27  1  0  0  0  0
M  END
> <ID>
10721

> <Formula>
C22H24Cl2N2O8

> <FW>
515.3406 (478.8796+36.4609)

> <DSSTox_CID>
25076

> <DSSTox_RID>
80653

> <DSSTox_GSID>
45076

> <DSSTox_FileID_Sort>
5335

> <TS_ChemName>
Chlortetracycline hydrochloride

> <TS_ChemName_Synonyms>


> <TS_CASRN>
64-72-2

> <CASRN_ChemName_Relationship>
primary

> <TS_Description>
single chemical compound

> <ChemNote>
stereochem; parent [57-62-5]

> <STRUCTURE_Shown>
tested chemical

> <STRUCTURE_Formula>
C22H24Cl2N2O8

> <STRUCTURE_MW>
515.3406

> <STRUCTURE_ChemType>
defined organic

> <STRUCTURE_DefinedOrganicForm>
complex

> <STRUCTURE_IUPAC>
(4S,4aS,5aS,6S,12aS)-7-chloro-4-(dimethylamino)-3,6,10,12,12a-pentahydroxy-6-methyl-1,11-dioxo-1,4,4a,5,5a,6,11,12a-octahydrotetracene-2-carboxamide hydrochloride (1:1)

> <STRUCTURE_SMILES>
Cl.NC(=O)C1=C(O)[C@@H](N(C)C)[C@@H]2C[C@H]4C(=C(O)[C@]2(O)C1=O)C(=O)c3c(O)ccc(Cl)c3[C@@]4(C)O

> <STRUCTURE_SMILES_Desalt>
NC(=O)C1=C(O)[C@@H](N(C)C)[C@@H]2C[C@H]4C(=C(O)[C@]2(O)C1=O)C(=O)c3c(O)ccc(Cl)c3[C@@]4(C)O

> <Substance_modify_yyyymmdd>
20091116

$$$$
