64-75-5
ChemmineR-0915142007XD

 35 37  0  0  1  0  0  0  0  0  1 V2000
    5.8915   -7.5665    0.0000 Cl   0  0  0  0  0  0  0  0  0  0  0  0
    6.9196   -3.9970    0.0000 C    0  0  0  0  0  0  0  0  0  0  0  0
    4.6208   -3.9970    0.0000 C    0  0  0  0  0  0  0  0  0  0  0  0
    9.2300   -3.9970    0.0000 C    0  0  0  0  0  0  0  0  0  0  0  0
    5.7759   -4.6670    0.0000 C    0  0  0  0  0  0  0  0  0  0  0  0
    8.0748   -4.6670    0.0000 C    0  0  0  0  0  0  0  0  0  0  0  0
    6.9196   -2.6569    0.0000 C    0  0  0  0  0  0  0  0  0  0  0  0
    9.2300   -2.6569    0.0000 C    0  0  0  0  0  0  0  0  0  0  0  0
    3.4540   -4.6670    0.0000 C    0  0  0  0  0  0  0  0  0  0  0  0
    4.6208   -2.6569    0.0000 C    0  0  0  0  0  0  0  0  0  0  0  0
    2.3219   -3.9970    0.0000 C    0  0  0  0  0  0  0  0  0  0  0  0
    3.4540   -2.0216    0.0000 C    0  0  0  0  0  0  0  0  0  0  0  0
    2.3219   -2.6569    0.0000 C    0  0  0  0  0  0  0  0  0  0  0  0
    8.0748   -2.0216    0.0000 C    0  0  0  0  0  0  0  0  0  0  0  0
    5.7759   -2.0216    0.0000 C    0  0  0  0  0  0  0  0  0  0  0  0
   10.3736   -4.6670    0.0000 C    0  0  0  0  0  0  0  0  0  0  0  0
    8.0748   -5.9954    0.0000 O    0  0  0  0  0  0  0  0  0  0  0  0
    3.4540   -5.9954    0.0000 O    0  0  0  0  0  0  0  0  0  0  0  0
    8.0748   -0.6700    0.0000 N    0  0  0  0  0  0  0  0  0  0  0  0
    1.1552   -4.6670    0.0000 C    0  0  0  0  0  0  0  0  0  0  0  0
    6.9773   -5.3947    0.0000 O    0  0  0  0  0  0  0  0  0  0  0  0
   10.3736   -6.0185    0.0000 O    0  0  0  0  0  0  0  0  0  0  0  0
    5.7759   -5.9954    0.0000 O    0  0  0  0  0  0  0  0  0  0  0  0
   10.3736   -1.9985    0.0000 O    0  0  0  0  0  0  0  0  0  0  0  0
    2.5414   -1.0397    0.0000 O    0  0  0  0  0  0  0  0  0  0  0  0
   11.5519   -4.0085    0.0000 N    0  0  0  0  0  0  0  0  0  0  0  0
    1.1552   -2.0216    0.0000 C    0  0  0  0  0  0  0  0  0  0  0  0
    4.2626   -0.9010    0.0000 C    0  0  0  0  0  0  0  0  0  0  0  0
    1.1552   -5.9954    0.0000 O    0  0  0  0  0  0  0  0  0  0  0  0
    0.0000   -2.6569    0.0000 C    0  0  0  0  0  0  0  0  0  0  0  0
    0.0000   -3.9970    0.0000 C    0  0  0  0  0  0  0  0  0  0  0  0
    6.9196    0.0000    0.0000 C    0  0  0  0  0  0  0  0  0  0  0  0
    9.2300    0.0000    0.0000 C    0  0  0  0  0  0  0  0  0  0  0  0
    6.9196   -1.3285    0.0000 H    0  0  0  0  0  0  0  0  0  0  0  0
    4.6208   -1.4902    0.0000 H    0  0  0  0  0  0  0  0  0  0  0  0
  2  5  1  0  0  0  0
  2  6  1  0  0  0  0
  2  7  1  0  0  0  0
  2 21  1  6  0  0  0
  3  5  2  0  0  0  0
  3  9  1  0  0  0  0
  3 10  1  0  0  0  0
  4  6  1  0  0  0  0
  4 16  1  0  0  0  0
  4  8  2  0  0  0  0
  5 23  1  0  0  0  0
  6 17  2  0  0  0  0
  7 14  1  0  0  0  0
  7 15  1  0  0  0  0
  7 34  1  6  0  0  0
  8 14  1  0  0  0  0
  8 24  1  0  0  0  0
  9 11  1  0  0  0  0
  9 18  2  0  0  0  0
 10 15  1  0  0  0  0
 10 12  1  0  0  0  0
 10 35  1  6  0  0  0
 11 20  1  0  0  0  0
 11 13  2  0  0  0  0
 12 13  1  0  0  0  0
 12 25  1  1  0  0  0
 12 28  1  6  0  0  0
 13 27  1  0  0  0  0
 14 19  1  6  0  0  0
 16 22  2  0  0  0  0
 16 26  1  0  0  0  0
 19 32  1  0  0  0  0
 19 33  1  0  0  0  0
 20 29  1  0  0  0  0
 20 31  2  0  0  0  0
 27 30  2  0  0  0  0
 30 31  1  0  0  0  0
M  END
> <ID>
1268

> <Formula>
C22H25ClN2O8

> <FW>
480.8955 (36.4609+444.4346)

> <DSSTox_CID>
1321

> <DSSTox_RID>
76081

> <DSSTox_GSID>
21321

> <DSSTox_FileID_Sort>
765

> <TS_ChemName>
Tetracycline hydrochloride

> <TS_ChemName_Synonyms>


> <TS_CASRN>
64-75-5

> <CASRN_ChemName_Relationship>
primary

> <TS_Description>
single chemical compound

> <ChemNote>
stereochem; parent [60-54-8]

> <STRUCTURE_Shown>
tested chemical

> <STRUCTURE_Formula>
C22H25ClN2O8

> <STRUCTURE_MW>
480.8955

> <STRUCTURE_ChemType>
defined organic

> <STRUCTURE_DefinedOrganicForm>
complex

> <STRUCTURE_IUPAC>
(4S,4aS,5aS,6S,12aS)-4-(dimethylamino)-3,6,10,12,12a-pentahydroxy-6-methyl-1,11-dioxo-1,4,4a,5,5a,6,11,12a-octahydrotetracene-2-carboxamide hydrochloride (1:1)

> <STRUCTURE_SMILES>
Cl.NC(=O)C1=C(O)[C@@H](N(C)C)[C@@H]2C[C@H]4C(=C(O)[C@]2(O)C1=O)C(=O)c3c(O)cccc3[C@@]4(C)O

> <STRUCTURE_SMILES_Desalt>
NC(=O)C1=C(O)[C@@H](N(C)C)[C@@H]2C[C@H]4C(=C(O)[C@]2(O)C1=O)C(=O)c3c(O)cccc3[C@@]4(C)O

> <Substance_modify_yyyymmdd>
20080429

$$$$
