64-86-8
ChemmineR-0915142007XD

 29 31  0  0  1  0  0  0  0  0  1 V2000
    5.6767   -4.1513    0.0000 C   0  0  0  0  0  0  0  0  0  0  0  0
    6.9732   -3.8680    0.0000 C   0  0  0  0  0  0  0  0  0  0  0  0
    4.6525   -3.3014    0.0000 C   0  0  0  0  0  0  0  0  0  0  0  0
    3.5084   -3.9660    0.0000 C   0  0  0  0  0  0  0  0  0  0  0  0
    8.0192   -4.6525    0.0000 C   0  0  0  0  0  0  0  0  0  0  0  0
    2.3317   -3.3014    0.0000 C   0  0  0  0  0  0  0  0  0  0  0  0
    5.1210   -5.3389    0.0000 C   0  0  0  0  0  0  0  0  0  0  0  0
    4.6525   -1.9721    0.0000 C   0  0  0  0  0  0  0  0  0  0  0  0
    8.0192   -5.9817    0.0000 C   0  0  0  0  0  0  0  0  0  0  0  0
    7.5289   -2.6585    0.0000 C   0  0  0  0  0  0  0  0  0  0  0  0
    2.3317   -1.9939    0.0000 C   0  0  0  0  0  0  0  0  0  0  0  0
    5.6767   -6.5265    0.0000 C   0  0  0  0  0  0  0  0  0  0  0  0
    7.0059   -6.8098    0.0000 C   0  0  0  0  0  0  0  0  0  0  0  0
    8.9018   -2.6585    0.0000 N   0  0  0  0  0  0  0  0  0  0  0  0
    3.5084   -1.3293    0.0000 C   0  0  0  0  0  0  0  0  0  0  0  0
    9.5446   -1.5145    0.0000 C   0  0  0  0  0  0  0  0  0  0  0  0
    5.6767   -1.1658    0.0000 C   0  0  0  0  0  0  0  0  0  0  0  0
    9.2286   -6.6246    0.0000 O   0  0  0  0  0  0  0  0  0  0  0  0
    6.9732   -1.4709    0.0000 C   0  0  0  0  0  0  0  0  0  0  0  0
    8.8800   -0.3378    0.0000 O   0  0  0  0  0  0  0  0  0  0  0  0
    3.5084   -5.2953    0.0000 O   0  0  0  0  0  0  0  0  0  0  0  0
    1.1440   -3.9442    0.0000 O   0  0  0  0  0  0  0  0  0  0  0  0
    1.1440   -1.3511    0.0000 O   0  0  0  0  0  0  0  0  0  0  0  0
    7.3546   -8.0955    0.0000 O   0  0  0  0  0  0  0  0  0  0  0  0
   10.8957   -1.5145    0.0000 C   0  0  0  0  0  0  0  0  0  0  0  0
    2.3208   -5.9599    0.0000 C   0  0  0  0  0  0  0  0  0  0  0  0
    0.0000   -3.2251    0.0000 C   0  0  0  0  0  0  0  0  0  0  0  0
    1.1440    0.0000    0.0000 C   0  0  0  0  0  0  0  0  0  0  0  0
    8.5640   -8.0955    0.0000 C   0  0  0  0  0  0  0  0  0  0  0  0
  1  2  1  0  0  0  0
  1  3  1  0  0  0  0
  1  7  2  0  0  0  0
  2  5  2  0  0  0  0
  2 10  1  0  0  0  0
  3  4  1  0  0  0  0
  3  8  2  0  0  0  0
  4  6  2  0  0  0  0
  4 21  1  0  0  0  0
  5  9  1  0  0  0  0
  6 22  1  0  0  0  0
  6 11  1  0  0  0  0
  7 12  1  0  0  0  0
  8 15  1  0  0  0  0
  8 17  1  0  0  0  0
  9 18  2  0  0  0  0
  9 13  1  0  0  0  0
 10 14  1  6  0  0  0
 10 19  1  0  0  0  0
 11 15  2  0  0  0  0
 11 23  1  0  0  0  0
 12 13  2  0  0  0  0
 13 24  1  0  0  0  0
 14 16  1  0  0  0  0
 16 20  2  0  0  0  0
 16 25  1  0  0  0  0
 17 19  1  0  0  0  0
 21 26  1  0  0  0  0
 22 27  1  0  0  0  0
 23 28  1  0  0  0  0
 24 29  1  0  0  0  0
M  END
> <ID>
3882

> <Formula>
C22H25NO6

> <FW>
399.437

> <DSSTox_CID>
4845

> <DSSTox_RID>
77551

> <DSSTox_GSID>
24845

> <DSSTox_FileID_Sort>
2234

> <TS_ChemName>
Colchicine

> <TS_ChemName_Synonyms>


> <TS_CASRN>
64-86-8

> <CASRN_ChemName_Relationship>
primary

> <TS_Description>
single chemical compound

> <ChemNote>
stereochem

> <STRUCTURE_Shown>
tested chemical

> <STRUCTURE_Formula>
C22H25NO6

> <STRUCTURE_MW>
399.437

> <STRUCTURE_ChemType>
defined organic

> <STRUCTURE_DefinedOrganicForm>
parent

> <STRUCTURE_IUPAC>
N-[(7S)-1,2,3,10-tetramethoxy-9-oxo-5,6,7,9-tetrahydrobenzo[a]heptalen-7-yl]acetamide

> <STRUCTURE_SMILES>
CC(=O)N[C@H]2CCc3cc(OC)c(OC)c(OC)c3C1=CC=C(OC)C(=O)C=C12

> <STRUCTURE_SMILES_Desalt>
CC(=O)N[C@H]2CCc3cc(OC)c(OC)c(OC)c3C1=CC=C(OC)C(=O)C=C12

> <Substance_modify_yyyymmdd>
20080429

$$$$
