64-85-7
ChemmineR-0915142007XD

 27 30  0  0  1  0  0  0  0  0  1 V2000
    6.9275   -3.1798    0.0000 C   0  0  0  0  0  0  0  0  0  0  0  0
    3.4586   -5.1827    0.0000 C   0  0  0  0  0  0  0  0  0  0  0  0
    3.4586   -6.4939    0.0000 C   0  0  0  0  0  0  0  0  0  0  0  0
    6.9275   -4.5116    0.0000 C   0  0  0  0  0  0  0  0  0  0  0  0
    4.6355   -4.5116    0.0000 C   0  0  0  0  0  0  0  0  0  0  0  0
    5.7918   -5.1827    0.0000 C   0  0  0  0  0  0  0  0  0  0  0  0
    8.1560   -2.7978    0.0000 C   0  0  0  0  0  0  0  0  0  0  0  0
    2.3229   -7.1856    0.0000 C   0  0  0  0  0  0  0  0  0  0  0  0
    5.7505   -2.5088    0.0000 C   0  0  0  0  0  0  0  0  0  0  0  0
    4.6355   -3.1798    0.0000 C   0  0  0  0  0  0  0  0  0  0  0  0
    8.1870   -4.9452    0.0000 C   0  0  0  0  0  0  0  0  0  0  0  0
    2.3229   -4.5116    0.0000 C   0  0  0  0  0  0  0  0  0  0  0  0
    8.9303   -3.8302    0.0000 C   0  0  0  0  0  0  0  0  0  0  0  0
    5.7918   -6.4939    0.0000 C   0  0  0  0  0  0  0  0  0  0  0  0
    8.5897   -1.5073    0.0000 C   0  0  0  0  0  0  0  0  0  0  0  0
    4.6355   -7.1856    0.0000 C   0  0  0  0  0  0  0  0  0  0  0  0
    1.1666   -6.4939    0.0000 C   0  0  0  0  0  0  0  0  0  0  0  0
    7.6915   -0.5472    0.0000 O   0  0  0  0  0  0  0  0  0  0  0  0
    0.0000   -7.1856    0.0000 O   0  0  0  0  0  0  0  0  0  0  0  0
    1.1666   -5.1827    0.0000 C   0  0  0  0  0  0  0  0  0  0  0  0
    6.9275   -1.8790    0.0000 C   0  0  0  0  0  0  0  0  0  0  0  0
    3.4792   -3.8509    0.0000 C   0  0  0  0  0  0  0  0  0  0  0  0
   10.3241    0.0000    0.0000 O   0  0  0  0  0  0  0  0  0  0  0  0
    9.8905   -1.2905    0.0000 C   0  0  0  0  0  0  0  0  0  0  0  0
    5.7918   -3.8509    0.0000 H   0  0  0  0  0  0  0  0  0  0  0  0
    4.6355   -5.8434    0.0000 H   0  0  0  0  0  0  0  0  0  0  0  0
    6.9275   -5.8434    0.0000 H   0  0  0  0  0  0  0  0  0  0  0  0
  1  4  1  0  0  0  0
  1  7  1  0  0  0  0
  1  9  1  0  0  0  0
  1 21  1  1  0  0  0
  2  5  1  0  0  0  0
  2  3  1  0  0  0  0
  2 12  1  0  0  0  0
  2 22  1  1  0  0  0
  3  8  2  0  0  0  0
  3 16  1  0  0  0  0
  4  6  1  0  0  0  0
  4 11  1  0  0  0  0
  4 27  1  6  0  0  0
  5 10  1  0  0  0  0
  5  6  1  0  0  0  0
  5 26  1  6  0  0  0
  6 14  1  0  0  0  0
  6 25  1  1  0  0  0
  7 13  1  0  0  0  0
  7 15  1  1  0  0  0
  8 17  1  0  0  0  0
  9 10  1  0  0  0  0
 11 13  1  0  0  0  0
 12 20  1  0  0  0  0
 14 16  1  0  0  0  0
 15 18  2  0  0  0  0
 15 24  1  0  0  0  0
 17 20  1  0  0  0  0
 17 19  2  0  0  0  0
 23 24  1  0  0  0  0
M  END
> <ID>
10846

> <Formula>
C21H30O3

> <FW>
330.4611

> <DSSTox_CID>
25254

> <DSSTox_RID>
80776

> <DSSTox_GSID>
45254

> <DSSTox_FileID_Sort>
5457

> <TS_ChemName>
21-Hydroxyprogesterone

> <TS_ChemName_Synonyms>
Deoxycorticosterone

> <TS_CASRN>
64-85-7

> <CASRN_ChemName_Relationship>
primary

> <TS_Description>
single chemical compound

> <ChemNote>
stereochem; tautomers

> <STRUCTURE_Shown>
tested chemical

> <STRUCTURE_Formula>
C21H30O3

> <STRUCTURE_MW>
330.4611

> <STRUCTURE_ChemType>
defined organic

> <STRUCTURE_DefinedOrganicForm>
parent

> <STRUCTURE_IUPAC>
21-hydroxypregn-4-ene-3,20-dione

> <STRUCTURE_SMILES>
OCC(=O)[C@H]2CC[C@H]3[C@@H]4CCC1=CC(=O)CC[C@]1(C)[C@H]4CC[C@]23C

> <STRUCTURE_SMILES_Desalt>
OCC(=O)[C@H]2CC[C@H]3[C@@H]4CCC1=CC(=O)CC[C@]1(C)[C@H]4CC[C@]23C

> <Substance_modify_yyyymmdd>
20100107

$$$$
