640-68-6
ChemmineR-0915142007XD

  8  7  0  0  1  0  0  0  0  0  1 V2000
    3.4770   -1.9796    0.0000 C   0  0  0  0  0  0  0  0  0  0  0  0
    2.3180   -1.3352    0.0000 C   0  0  0  0  0  0  0  0  0  0  0  0
    4.6361   -1.3352    0.0000 O   0  0  0  0  0  0  0  0  0  0  0  0
    2.3180    0.0000    0.0000 N   0  0  0  0  0  0  0  0  0  0  0  0
    3.4770   -3.3148    0.0000 O   0  0  0  0  0  0  0  0  0  0  0  0
    1.1590   -1.9796    0.0000 C   0  0  0  0  0  0  0  0  0  0  0  0
    1.1590   -3.3148    0.0000 C   0  0  0  0  0  0  0  0  0  0  0  0
    0.0000   -1.3352    0.0000 C   0  0  0  0  0  0  0  0  0  0  0  0
  1  2  1  0  0  0  0
  1  3  2  0  0  0  0
  1  5  1  0  0  0  0
  2  4  1  1  0  0  0
  2  6  1  0  0  0  0
  6  7  1  0  0  0  0
  6  8  1  0  0  0  0
M  END
> <ID>
11383

> <Formula>
C5H11NO2

> <FW>
117.1463

> <DSSTox_CID>
26064

> <DSSTox_RID>
81315

> <DSSTox_GSID>
46064

> <DSSTox_FileID_Sort>
5996

> <TS_ChemName>
D-Valine

> <TS_ChemName_Synonyms>


> <TS_CASRN>
640-68-6

> <CASRN_ChemName_Relationship>
primary

> <TS_Description>
single chemical compound

> <ChemNote>
stereochem

> <STRUCTURE_Shown>
tested chemical

> <STRUCTURE_Formula>
C5H11NO2

> <STRUCTURE_MW>
117.1463

> <STRUCTURE_ChemType>
defined organic

> <STRUCTURE_DefinedOrganicForm>
parent

> <STRUCTURE_IUPAC>
D-valine

> <STRUCTURE_SMILES>
CC(C)[C@@H](N)C(=O)O

> <STRUCTURE_SMILES_Desalt>
CC(C)[C@@H](N)C(=O)O

> <Substance_modify_yyyymmdd>
20110819

$$$$
