64019-93-8
ChemmineR-0915142007XD

 26 25  0  0  0  0  0  0  0  0  1 V2000
    6.9215   -5.9724    0.0000 C    0  0  0  0  0  0  0  0  0  0  0  0
    2.3033   -3.3566    0.0000 C    0  0  0  0  0  0  0  0  0  0  0  0
    5.7988   -3.9932    0.0000 C    0  0  0  0  0  0  0  0  0  0  0  0
    5.7988   -5.3242    0.0000 O    0  0  0  0  0  0  0  0  0  0  0  0
    3.4839   -4.0163    0.0000 O    0  0  0  0  0  0  0  0  0  0  0  0
    4.6645   -3.3219    0.0000 C    0  0  0  0  0  0  0  0  0  0  0  0
    6.9215   -3.3219    0.0000 C    0  0  0  0  0  0  0  0  0  0  0  0
    6.9215   -1.9908    0.0000 C    0  0  0  0  0  0  0  0  0  0  0  0
    1.1574   -4.0163    0.0000 C    0  0  0  0  0  0  0  0  0  0  0  0
    8.0905   -5.3242    0.0000 C    0  0  0  0  0  0  0  0  0  0  0  0
    2.3033   -2.0140    0.0000 O    0  0  0  0  0  0  0  0  0  0  0  0
    6.9215   -7.3150    0.0000 O    0  0  0  0  0  0  0  0  0  0  0  0
    4.6645   -1.9908    0.0000 C    0  0  0  0  0  0  0  0  0  0  0  0
    5.7988   -1.3542    0.0000 C    0  0  0  0  0  0  0  0  0  0  0  0
    8.1253   -1.3195    0.0000 C    0  0  0  0  0  0  0  0  0  0  0  0
   10.4054   -1.2848    0.0000 N    0  0  0  0  0  0  0  0  0  0  0  0
    8.1253    0.0000    0.0000 O    0  0  0  0  0  0  0  0  0  0  0  0
    0.0000   -4.6992    0.0000 C    0  0  0  0  0  0  0  0  0  0  0  0
    0.4977   -2.8705    0.0000 C    0  0  0  0  0  0  0  0  0  0  0  0
    8.7503   -6.4701    0.0000 C    0  0  0  0  0  0  0  0  0  0  0  0
    7.4076   -4.1784    0.0000 C    0  0  0  0  0  0  0  0  0  0  0  0
    9.2364   -4.6529    0.0000 C    0  0  0  0  0  0  0  0  0  0  0  0
    1.8288   -5.1622    0.0000 C    0  0  0  0  0  0  0  0  0  0  0  0
    9.2827   -1.9792    0.0000 C    0  0  0  0  0  0  0  0  0  0  0  0
   11.5744   -1.9561    0.0000 C    0  0  0  0  0  0  0  0  0  0  0  0
    2.3612   -7.1183    0.0000 Cl   0  0  0  0  0  0  0  0  0  0  0  0
  1  4  1  0  0  0  0
  1 10  1  0  0  0  0
  1 12  2  0  0  0  0
  2  5  1  0  0  0  0
  2  9  1  0  0  0  0
  2 11  2  0  0  0  0
  3  4  1  0  0  0  0
  3  6  2  0  0  0  0
  3  7  1  0  0  0  0
  5  6  1  0  0  0  0
  6 13  1  0  0  0  0
  7  8  2  0  0  0  0
  8 14  1  0  0  0  0
  8 15  1  0  0  0  0
  9 18  1  0  0  0  0
  9 19  1  0  0  0  0
  9 23  1  0  0  0  0
 10 20  1  0  0  0  0
 10 21  1  0  0  0  0
 10 22  1  0  0  0  0
 13 14  2  0  0  0  0
 15 17  1  0  0  0  0
 15 24  1  0  0  0  0
 16 24  1  0  0  0  0
 16 25  1  0  0  0  0
M  END
> <ID>
10982

> <Formula>
C19H30ClNO5

> <FW>
387.8982 (351.4373+36.4609)

> <DSSTox_CID>
25494

> <DSSTox_RID>
80914

> <DSSTox_GSID>
45494

> <DSSTox_FileID_Sort>
5595

> <TS_ChemName>
Dipivefrin hydrochloride

> <TS_ChemName_Synonyms>


> <TS_CASRN>
64019-93-8

> <CASRN_ChemName_Relationship>
primary

> <TS_Description>
single chemical compound

> <ChemNote>
parent [52365-63-6]

> <STRUCTURE_Shown>
tested chemical

> <STRUCTURE_Formula>
C19H30ClNO5

> <STRUCTURE_MW>
387.8982

> <STRUCTURE_ChemType>
defined organic

> <STRUCTURE_DefinedOrganicForm>
complex

> <STRUCTURE_IUPAC>
4-[1-hydroxy-2-(methylamino)ethyl]benzene-1,2-diyl bis(2,2-dimethylpropanoate) hydrochloride (1:1)

> <STRUCTURE_SMILES>
Cl.O=C(Oc1cc(ccc1OC(=O)C(C)(C)C)C(O)CNC)C(C)(C)C

> <STRUCTURE_SMILES_Desalt>
O=C(Oc1cc(ccc1OC(=O)C(C)(C)C)C(O)CNC)C(C)(C)C

> <Substance_modify_yyyymmdd>
20100107

$$$$
