6402-23-9
ChemmineR-0915142007XD

 26 26  0  0  0  0  0  0  0  0  1 V2000
    5.7731   -1.9836    0.0000 C   0  0  0  0  0  0  0  0  0  0  0  0
    4.6239   -3.9810    0.0000 N   0  0  0  0  0  0  0  0  0  0  0  0
    3.4748   -3.3243    0.0000 C   0  0  0  0  0  0  0  0  0  0  0  0
    4.6239   -1.3407    0.0000 C   0  0  0  0  0  0  0  0  0  0  0  0
    3.4748   -1.9836    0.0000 C   0  0  0  0  0  0  0  0  0  0  0  0
    5.7731   -3.3243    0.0000 C   0  0  0  0  0  0  0  0  0  0  0  0
    2.3393   -3.9810    0.0000 C   0  0  0  0  0  0  0  0  0  0  0  0
    2.3393   -1.3407    0.0000 C   0  0  0  0  0  0  0  0  0  0  0  0
    6.9086   -1.3407    0.0000 C   0  0  0  0  0  0  0  0  0  0  0  0
    6.9086   -3.9810    0.0000 C   0  0  0  0  0  0  0  0  0  0  0  0
    4.6239    0.0000    0.0000 N   0  0  0  0  0  0  0  0  0  0  0  0
    1.1765   -3.3243    0.0000 C   0  0  0  0  0  0  0  0  0  0  0  0
    8.0577   -1.9836    0.0000 C   0  0  0  0  0  0  0  0  0  0  0  0
    1.1765   -1.9836    0.0000 C   0  0  0  0  0  0  0  0  0  0  0  0
    0.0000   -4.0083    0.0000 N   0  0  0  0  0  0  0  0  0  0  0  0
    8.0577   -3.3243    0.0000 C   0  0  0  0  0  0  0  0  0  0  0  0
    9.2342   -1.3270    0.0000 O   0  0  0  0  0  0  0  0  0  0  0  0
   10.3970   -1.9836    0.0000 C   0  0  0  0  0  0  0  0  0  0  0  0
   11.5325   -1.3133    0.0000 C   0  0  0  0  0  0  0  0  0  0  0  0
   11.3547   -4.6923    0.0000 C   0  0  0  0  0  0  0  0  0  0  0  0
   12.5038   -4.0220    0.0000 C   0  0  0  0  0  0  0  0  0  0  0  0
   10.2055   -4.0220    0.0000 C   0  0  0  0  0  0  0  0  0  0  0  0
   11.3547   -6.0330    0.0000 O   0  0  0  0  0  0  0  0  0  0  0  0
   13.6803   -4.6923    0.0000 O   0  0  0  0  0  0  0  0  0  0  0  0
   12.5038   -2.6813    0.0000 O   0  0  0  0  0  0  0  0  0  0  0  0
    3.9126   -4.9112    0.0000 O   0  0  0  0  0  0  0  0  0  0  0  0
  1  4  2  0  0  0  0
  1  6  1  0  0  0  0
  1  9  1  0  0  0  0
  2  6  2  0  0  0  0
  2  3  1  0  0  0  0
  3  7  1  0  0  0  0
  3  5  2  0  0  0  0
  4  5  1  0  0  0  0
  4 11  1  0  0  0  0
  5  8  1  0  0  0  0
  6 10  1  0  0  0  0
  7 12  2  0  0  0  0
  8 14  2  0  0  0  0
  9 13  2  0  0  0  0
 10 16  2  0  0  0  0
 12 15  1  0  0  0  0
 12 14  1  0  0  0  0
 13 16  1  0  0  0  0
 13 17  1  0  0  0  0
 17 18  1  0  0  0  0
 18 19  1  0  0  0  0
 20 21  1  0  0  0  0
 20 23  1  0  0  0  0
 20 22  1  0  0  0  0
 21 24  1  0  0  0  0
 21 25  2  0  0  0  0
M  END
> <ID>
11568

> <Formula>
C18H23N3O5

> <FW>
361.3923 (253.2991+90.0779+18.0153)

> <DSSTox_CID>
26274

> <DSSTox_RID>
81501

> <DSSTox_GSID>
46274

> <DSSTox_FileID_Sort>
6182

> <TS_ChemName>
Ethacridine lactate hydrate

> <TS_ChemName_Synonyms>


> <TS_CASRN>
6402-23-9

> <CASRN_ChemName_Relationship>
primary

> <TS_Description>
single chemical compound

> <ChemNote>
parent [442-16-0]

> <STRUCTURE_Shown>
tested chemical

> <STRUCTURE_Formula>
C18H23N3O5

> <STRUCTURE_MW>
361.3923

> <STRUCTURE_ChemType>
defined organic

> <STRUCTURE_DefinedOrganicForm>
complex

> <STRUCTURE_IUPAC>
2-hydroxypropanoic acid - 7-ethoxyacridine-3,9-diamine hydrate (1:1:1)

> <STRUCTURE_SMILES>
O.O=C(O)C(C)O.CCOc1ccc2nc3cc(N)ccc3c(N)c2c1

> <STRUCTURE_SMILES_Desalt>
CCOc1ccc2nc3cc(N)ccc3c(N)c2c1

> <Substance_modify_yyyymmdd>
20110815

$$$$
