64057-70-1
ChemmineR-0915142007XD

 15 15  0  0  0  0  0  0  0  0  1 V2000
    5.7734   -2.0027    0.0000 C    0  0  0  0  0  0  0  0  0  0  0  0
    5.7734   -0.6728    0.0000 C    0  0  0  0  0  0  0  0  0  0  0  0
    7.0408   -2.4017    0.0000 O    0  0  0  0  0  0  0  0  0  0  0  0
    7.0408   -0.2582    0.0000 O    0  0  0  0  0  0  0  0  0  0  0  0
    7.8231   -1.3299    0.0000 C    0  0  0  0  0  0  0  0  0  0  0  0
    4.6156   -2.6599    0.0000 C    0  0  0  0  0  0  0  0  0  0  0  0
    3.4656   -2.0027    0.0000 C    0  0  0  0  0  0  0  0  0  0  0  0
    4.6156    0.0000    0.0000 C    0  0  0  0  0  0  0  0  0  0  0  0
    2.3078   -2.6599    0.0000 C    0  0  0  0  0  0  0  0  0  0  0  0
    3.4656   -0.6728    0.0000 C    0  0  0  0  0  0  0  0  0  0  0  0
    0.0000   -2.6599    0.0000 N    0  0  0  0  0  0  0  0  0  0  0  0
    1.1578   -2.0027    0.0000 C    0  0  0  0  0  0  0  0  0  0  0  0
    0.0000   -3.9898    0.0000 C    0  0  0  0  0  0  0  0  0  0  0  0
    1.1578   -0.6728    0.0000 C    0  0  0  0  0  0  0  0  0  0  0  0
    4.4592   -3.7629    0.0000 Cl   0  0  0  0  0  0  0  0  0  0  0  0
  1  2  1  0  0  0  0
  1  3  1  0  0  0  0
  1  6  2  0  0  0  0
  2  4  1  0  0  0  0
  2  8  2  0  0  0  0
  3  5  1  0  0  0  0
  4  5  1  0  0  0  0
  6  7  1  0  0  0  0
  7  9  1  0  0  0  0
  7 10  2  0  0  0  0
  8 10  1  0  0  0  0
  9 12  1  0  0  0  0
 11 12  1  0  0  0  0
 11 13  1  0  0  0  0
 12 14  1  0  0  0  0
M  END
> <ID>
13882

> <Formula>
C11H16ClNO2

> <FW>
229.7032 (193.2423+36.4609)

> <DSSTox_CID>
28819

> <DSSTox_RID>
83088

> <DSSTox_GSID>
48893

> <DSSTox_FileID_Sort>
7765

> <TS_ChemName>
1-(1,3-Benzodioxol-5-yl)-N-methylpropan-2-amine hydrochloride

> <TS_ChemName_Synonyms>
(?)-3,4-Methylenedioxymethamphetamine hydrochloride

> <TS_CASRN>
64057-70-1

> <CASRN_ChemName_Relationship>
primary

> <TS_Description>
single chemical compound

> <ChemNote>


> <STRUCTURE_Shown>
tested chemical

> <STRUCTURE_Formula>
C11H16ClNO2

> <STRUCTURE_MW>
229.7032

> <STRUCTURE_ChemType>
defined organic

> <STRUCTURE_DefinedOrganicForm>
complex

> <STRUCTURE_IUPAC>
1-(1,3-benzodioxol-5-yl)-N-methylpropan-2-amine hydrochloride (1:1)

> <STRUCTURE_SMILES>
Cl.CC(NC)Cc1ccc2OCOc2c1

> <STRUCTURE_SMILES_Desalt>
CC(NC)Cc1ccc2OCOc2c1

> <Substance_modify_yyyymmdd>
20111204

$$$$
