64092-48-4
ChemmineR-0915142007XD

 21 21  0  0  0  0  0  0  0  0  2 V2000
    2.9609   -2.5908    0.0000 C    0  0  0  0  0  0  0  0  0  0  0  0
    3.2330   -3.8971    0.0000 C    0  0  0  0  0  0  0  0  0  0  0  0
    1.6982   -2.1771    0.0000 C    0  0  0  0  0  0  0  0  0  0  0  0
    2.2533   -4.7897    0.0000 C    0  0  0  0  0  0  0  0  0  0  0  0
    0.7076   -3.0806    0.0000 C    0  0  0  0  0  0  0  0  0  0  0  0
    0.9906   -4.3760    0.0000 C    0  0  0  0  0  0  0  0  0  0  0  0
    3.9515   -1.6982    0.0000 C    0  0  0  0  0  0  0  0  0  0  0  0
    5.2142   -2.1118    0.0000 C    0  0  0  0  0  0  0  0  0  0  0  0
    6.2919   -1.3281    0.0000 N    0  0  0  0  0  0  0  0  0  0  0  0
    5.6170   -3.3746    0.0000 C    0  0  0  0  0  0  0  0  0  0  0  0
    7.3587   -2.1118    0.0000 C    0  0  0  0  0  0  0  0  0  0  0  0
    6.9451   -3.3746    0.0000 C    0  0  0  0  0  0  0  0  0  0  0  0
    4.8550   -4.4522    0.0000 C    0  0  0  0  0  0  0  0  0  0  0  0
    6.2919    0.0000    0.0000 C    0  0  0  0  0  0  0  0  0  0  0  0
    3.6794   -0.4028    0.0000 O    0  0  0  0  0  0  0  0  0  0  0  0
    0.0000   -5.2687    0.0000 Cl   0  0  0  0  0  0  0  0  0  0  0  0
    8.6323   -1.6982    0.0000 C    0  0  0  0  0  0  0  0  0  0  0  0
    9.6229   -2.5908    0.0000 C    0  0  0  0  0  0  0  0  0  0  0  0
    9.3290   -3.8971    0.0000 O    0  0  0  0  0  0  0  0  0  0  0  0
   10.8857   -2.1771    0.0000 O    0  5  0  0  0  0  0  0  0  0  0  0
   10.5700   -4.6264    0.0000 Na   0  3  0  0  0  0  0  0  0  0  0  0
  1  2  1  0  0  0  0
  1  3  2  0  0  0  0
  1  7  1  0  0  0  0
  2  4  2  0  0  0  0
  3  5  1  0  0  0  0
  4  6  1  0  0  0  0
  5  6  2  0  0  0  0
  6 16  1  0  0  0  0
  7  8  1  0  0  0  0
  7 15  2  0  0  0  0
  8  9  1  0  0  0  0
  8 10  2  0  0  0  0
  9 11  1  0  0  0  0
  9 14  1  0  0  0  0
 10 12  1  0  0  0  0
 10 13  1  0  0  0  0
 11 12  2  0  0  0  0
 11 17  1  0  0  0  0
 17 18  1  0  0  0  0
 18 19  2  0  0  0  0
 18 20  1  0  0  0  0
M  END
> <ID>
6654

> <Formula>
C15H13ClNNaO3

> <FW>
313.7114 (290.7222+22.9892)

> <DSSTox_CID>
13989

> <DSSTox_RID>
79106

> <DSSTox_GSID>
33989

> <DSSTox_FileID_Sort>
3788

> <TS_ChemName>
Sodium zomepirac

> <TS_ChemName_Synonyms>


> <TS_CASRN>
64092-48-4

> <CASRN_ChemName_Relationship>
primary

> <TS_Description>
single chemical compound

> <ChemNote>
parent [33369-31-2]

> <STRUCTURE_Shown>
tested chemical

> <STRUCTURE_Formula>
C15H13ClNNaO3

> <STRUCTURE_MW>
313.7114

> <STRUCTURE_ChemType>
defined organic

> <STRUCTURE_DefinedOrganicForm>
salt

> <STRUCTURE_IUPAC>
sodium [5-(4-chlorobenzoyl)-1,4-dimethyl-1H-pyrrol-2-yl]acetate

> <STRUCTURE_SMILES>
[Na+].Cc2cc(CC([O-])=O)n(C)c2C(=O)c1ccc(Cl)cc1

> <STRUCTURE_SMILES_Desalt>
Cc2cc(CC(=O)O)n(C)c2C(=O)c1ccc(Cl)cc1

> <Substance_modify_yyyymmdd>
20080429

$$$$
