6411-75-2
ChemmineR-0915142007XD

 21 18  0  0  0  0  0  0  0  0  1 V2000
    0.0000   -1.9893    0.0000 C   0  0  0  0  0  0  0  0  0  0  0  0
    1.1586   -1.3189    0.0000 C   0  0  0  0  0  0  0  0  0  0  0  0
    2.2954   -1.9893    0.0000 C   0  0  0  0  0  0  0  0  0  0  0  0
    3.4540   -1.3189    0.0000 C   0  0  0  0  0  0  0  0  0  0  0  0
    4.6054   -1.9893    0.0000 C   0  0  0  0  0  0  0  0  0  0  0  0
    5.7494   -1.3189    0.0000 C   0  0  0  0  0  0  0  0  0  0  0  0
    5.7494    0.0000    0.0000 N   0  0  0  0  0  0  0  0  0  0  0  0
    6.9008   -1.9893    0.0000 C   0  0  0  0  0  0  0  0  0  0  0  0
    3.6581   -5.0717    0.0000 O   0  0  0  0  0  0  0  0  0  0  0  0
    3.6581   -3.7382    0.0000 S   0  0  0  0  0  0  0  0  0  0  0  0
    2.3245   -3.7382    0.0000 O   0  0  0  0  0  0  0  0  0  0  0  0
    3.6581   -2.4266    0.0000 O   0  0  0  0  0  0  0  0  0  0  0  0
    4.9916   -3.7382    0.0000 O   0  0  0  0  0  0  0  0  0  0  0  0
    0.3862   -6.9663    0.0000 C   0  0  0  0  0  0  0  0  0  0  0  0
    1.5376   -6.2887    0.0000 C   0  0  0  0  0  0  0  0  0  0  0  0
    2.6816   -6.9663    0.0000 C   0  0  0  0  0  0  0  0  0  0  0  0
    3.8329   -6.2887    0.0000 C   0  0  0  0  0  0  0  0  0  0  0  0
    4.9916   -6.9663    0.0000 C   0  0  0  0  0  0  0  0  0  0  0  0
    6.1283   -6.2887    0.0000 C   0  0  0  0  0  0  0  0  0  0  0  0
    6.1283   -4.9770    0.0000 N   0  0  0  0  0  0  0  0  0  0  0  0
    7.2870   -6.9663    0.0000 C   0  0  0  0  0  0  0  0  0  0  0  0
  1  2  1  0  0  0  0
  2  3  1  0  0  0  0
  3  4  1  0  0  0  0
  4  5  1  0  0  0  0
  5  6  1  0  0  0  0
  6  7  1  0  0  0  0
  6  8  1  0  0  0  0
  9 10  1  0  0  0  0
 10 11  1  0  0  0  0
 10 12  2  0  0  0  0
 10 13  2  0  0  0  0
 14 15  1  0  0  0  0
 15 16  1  0  0  0  0
 16 17  1  0  0  0  0
 17 18  1  0  0  0  0
 18 19  1  0  0  0  0
 19 20  1  0  0  0  0
 19 21  1  0  0  0  0
M  END
> <ID>
11235

> <Formula>
C14H36N2O4S

> <FW>
328.5116 (115.2166+98.0785+115.2166)

> <DSSTox_CID>
25845

> <DSSTox_RID>
81167

> <DSSTox_GSID>
45845

> <DSSTox_FileID_Sort>
5848

> <TS_ChemName>
2-Aminoheptane sulfate

> <TS_ChemName_Synonyms>


> <TS_CASRN>
6411-75-2

> <CASRN_ChemName_Relationship>
primary

> <TS_Description>
single chemical compound

> <ChemNote>
parent [123-82-0]

> <STRUCTURE_Shown>
tested chemical

> <STRUCTURE_Formula>
C14H36N2O4S

> <STRUCTURE_MW>
328.5116

> <STRUCTURE_ChemType>
defined organic

> <STRUCTURE_DefinedOrganicForm>
complex

> <STRUCTURE_IUPAC>
heptan-2-amine sulfate (2:1)

> <STRUCTURE_SMILES>
NC(C)CCCCC.O=S(=O)(O)O.CC(N)CCCCC

> <STRUCTURE_SMILES_Desalt>
CC(N)CCCCC

> <Substance_modify_yyyymmdd>
20110922

$$$$
