6419-19-8
ChemmineR-0915142007XD

 16 15  0  0  0  0  0  0  0  0  1 V2000
    5.1376   -1.3329    0.0000 P   0  0  0  0  0  0  0  0  0  0  0  0
    6.4706   -1.3329    0.0000 O   0  0  0  0  0  0  0  0  0  0  0  0
    5.1376    0.0000    0.0000 O   0  0  0  0  0  0  0  0  0  0  0  0
    5.1376   -2.6659    0.0000 O   0  0  0  0  0  0  0  0  0  0  0  0
    3.0994   -4.7688    0.0000 P   0  0  0  0  0  0  0  0  0  0  0  0
    2.4265   -5.9076    0.0000 O   0  0  0  0  0  0  0  0  0  0  0  0
    4.2576   -5.4417    0.0000 O   0  0  0  0  0  0  0  0  0  0  0  0
    1.9735   -4.0765    0.0000 O   0  0  0  0  0  0  0  0  0  0  0  0
    1.1388   -1.3006    0.0000 P   0  0  0  0  0  0  0  0  0  0  0  0
    0.4982   -0.1424    0.0000 O   0  0  0  0  0  0  0  0  0  0  0  0
    0.0000   -1.9735    0.0000 O   0  0  0  0  0  0  0  0  0  0  0  0
    2.2971   -0.6406    0.0000 O   0  0  0  0  0  0  0  0  0  0  0  0
    3.1318   -2.4588    0.0000 N   0  0  0  0  0  0  0  0  0  0  0  0
    1.7988   -2.4588    0.0000 C   0  0  0  0  0  0  0  0  0  0  0  0
    3.7918   -3.6300    0.0000 C   0  0  0  0  0  0  0  0  0  0  0  0
    3.8047   -1.3329    0.0000 C   0  0  0  0  0  0  0  0  0  0  0  0
  1  2  2  0  0  0  0
  1  3  1  0  0  0  0
  1  4  1  0  0  0  0
  1 16  1  0  0  0  0
  5  6  2  0  0  0  0
  5  7  1  0  0  0  0
  5  8  1  0  0  0  0
  5 15  1  0  0  0  0
  9 10  2  0  0  0  0
  9 11  1  0  0  0  0
  9 12  1  0  0  0  0
  9 14  1  0  0  0  0
 13 14  1  0  0  0  0
 13 15  1  0  0  0  0
 13 16  1  0  0  0  0
M  END
> <ID>
5301

> <Formula>
C3H12NO9P3

> <FW>
299.05

> <DSSTox_CID>
7624

> <DSSTox_RID>
78532

> <DSSTox_GSID>
27624

> <DSSTox_FileID_Sort>
3215

> <TS_ChemName>
Aminotrimethylene phosphonic acid

> <TS_ChemName_Synonyms>
Aminotrimethylene phosphonic acid (Phosphonic acid, [nitrilotris(methylene)]tris-)

> <TS_CASRN>
6419-19-8

> <CASRN_ChemName_Relationship>
primary

> <TS_Description>
single chemical compound

> <ChemNote>


> <STRUCTURE_Shown>
tested chemical

> <STRUCTURE_Formula>
C3H12NO9P3

> <STRUCTURE_MW>
299.05

> <STRUCTURE_ChemType>
defined organic

> <STRUCTURE_DefinedOrganicForm>
parent

> <STRUCTURE_IUPAC>
(nitrilotrimethanediyl)tris(phosphonic acid)

> <STRUCTURE_SMILES>
OP(=O)(O)CN(CP(=O)(O)O)CP(=O)(O)O

> <STRUCTURE_SMILES_Desalt>
OP(=O)(O)CN(CP(=O)(O)O)CP(=O)(O)O

> <Substance_modify_yyyymmdd>
20080429

$$$$
