642-78-4
ChemmineR-0915142007XD

 32 34  0  0  1  0  0  0  0  0  2 V2000
    6.9502   -9.0975    0.0000 Na   0  3  0  0  0  0  0  0  0  0  0  0
    8.3177   -5.2664    0.0000 C    0  0  0  0  0  0  0  0  0  0  0  0
    9.5834   -4.8595    0.0000 S    0  0  0  0  0  0  0  0  0  0  0  0
    8.3177   -6.5773    0.0000 N    0  0  0  0  0  0  0  0  0  0  0  0
   10.3519   -5.9444    0.0000 C    0  0  0  0  0  0  0  0  0  0  0  0
    9.5834   -6.9954    0.0000 C    0  0  0  0  0  0  0  0  0  0  0  0
    6.9841   -6.5773    0.0000 C    0  0  0  0  0  0  0  0  0  0  0  0
    6.9841   -5.2664    0.0000 C    0  0  0  0  0  0  0  0  0  0  0  0
   10.0016   -8.2838    0.0000 C    0  0  0  0  0  0  0  0  0  0  0  0
   11.3012   -8.5550    0.0000 O    0  0  0  0  0  0  0  0  0  0  0  0
    9.0975   -9.2783    0.0000 O    0  5  0  0  0  0  0  0  0  0  0  0
   11.3012   -4.9951    0.0000 C    0  0  0  0  0  0  0  0  0  0  0  0
   11.3012   -6.8711    0.0000 C    0  0  0  0  0  0  0  0  0  0  0  0
    6.9841   -3.9328    0.0000 H    0  0  0  0  0  0  0  0  0  0  0  0
    8.3177   -3.9328    0.0000 H    0  0  0  0  0  0  0  0  0  0  0  0
    5.6506   -5.2664    0.0000 N    0  0  0  0  0  0  0  0  0  0  0  0
    3.4695   -0.6781    0.0000 C    0  0  0  0  0  0  0  0  0  0  0  0
    3.4695   -1.9890    0.0000 C    0  0  0  0  0  0  0  0  0  0  0  0
    2.3167    0.0000    0.0000 C    0  0  0  0  0  0  0  0  0  0  0  0
    2.3167   -2.6671    0.0000 C    0  0  0  0  0  0  0  0  0  0  0  0
    1.1753   -0.6781    0.0000 C    0  0  0  0  0  0  0  0  0  0  0  0
    1.1753   -1.9890    0.0000 C    0  0  0  0  0  0  0  0  0  0  0  0
    0.0000   -2.6671    0.0000 Cl   0  0  0  0  0  0  0  0  0  0  0  0
    2.3167   -4.0006    0.0000 C    0  0  0  0  0  0  0  0  0  0  0  0
    3.4017   -4.7691    0.0000 C    0  0  0  0  0  0  0  0  0  0  0  0
    1.2544   -4.7691    0.0000 N    0  0  0  0  0  0  0  0  0  0  0  0
    2.9835   -6.0461    0.0000 C    0  0  0  0  0  0  0  0  0  0  0  0
    1.6500   -6.0461    0.0000 O    0  0  0  0  0  0  0  0  0  0  0  0
    3.7746   -7.1085    0.0000 C    0  0  0  0  0  0  0  0  0  0  0  0
    4.6561   -4.3623    0.0000 C    0  0  0  0  0  0  0  0  0  0  0  0
    4.9386   -3.0626    0.0000 O    0  0  0  0  0  0  0  0  0  0  0  0
    6.0574   -7.5266    0.0000 O    0  0  0  0  0  0  0  0  0  0  0  0
  2  3  1  0  0  0  0
  2  8  1  0  0  0  0
  2  4  1  0  0  0  0
  2 15  1  6  0  0  0
  3  5  1  0  0  0  0
  4  6  1  0  0  0  0
  4  7  1  0  0  0  0
  5  6  1  0  0  0  0
  5 12  1  0  0  0  0
  5 13  1  0  0  0  0
  6  9  1  6  0  0  0
  7  8  1  0  0  0  0
  7 32  2  0  0  0  0
  8 14  1  6  0  0  0
  8 16  1  1  0  0  0
  9 10  2  0  0  0  0
  9 11  1  0  0  0  0
 16 30  1  0  0  0  0
 17 18  1  0  0  0  0
 17 19  2  0  0  0  0
 18 20  2  0  0  0  0
 19 21  1  0  0  0  0
 20 22  1  0  0  0  0
 20 24  1  0  0  0  0
 21 22  2  0  0  0  0
 22 23  1  0  0  0  0
 24 25  1  0  0  0  0
 24 26  2  0  0  0  0
 25 27  2  0  0  0  0
 25 30  1  0  0  0  0
 26 28  1  0  0  0  0
 27 28  1  0  0  0  0
 27 29  1  0  0  0  0
 30 31  2  0  0  0  0
M  END
> <ID>
11018

> <Formula>
C19H17ClN3NaO5S

> <FW>
457.8631 (22.9892+434.8739)

> <DSSTox_CID>
25551

> <DSSTox_RID>
80950

> <DSSTox_GSID>
45551

> <DSSTox_FileID_Sort>
5631

> <TS_ChemName>
Cloxacillin sodium

> <TS_ChemName_Synonyms>
Cloxacillin Na salt

> <TS_CASRN>
642-78-4

> <CASRN_ChemName_Relationship>
primary

> <TS_Description>
single chemical compound

> <ChemNote>
stereochem; parent [61-72-3]

> <STRUCTURE_Shown>
tested chemical

> <STRUCTURE_Formula>
C19H17ClN3NaO5S

> <STRUCTURE_MW>
457.8631

> <STRUCTURE_ChemType>
defined organic

> <STRUCTURE_DefinedOrganicForm>
salt

> <STRUCTURE_IUPAC>
sodium (2S,5R,6R)-6-({[3-(2-chlorophenyl)-5-methyl-1,2-oxazol-4-yl]carbonyl}amino)-3,3-dimethyl-7-oxo-4-thia-1-azabicyclo[3.2.0]heptane-2-carboxylate

> <STRUCTURE_SMILES>
[Na+].O=C([O-])[C@@H]3N4C(=O)[C@@H](NC(=O)c2c(C)onc2c1ccccc1Cl)[C@H]4SC3(C)C

> <STRUCTURE_SMILES_Desalt>
OC(=O)[C@@H]3N4C(=O)[C@@H](NC(=O)c2c(C)onc2c1ccccc1Cl)[C@H]4SC3(C)C

> <Substance_modify_yyyymmdd>
20100107

$$$$
