64204-55-3
ChemmineR-0915142007XD

 16 17  0  0  0  0  0  0  0  0  1 V2000
    4.6029   -0.6628    0.0000 O   0  0  0  0  0  0  0  0  0  0  0  0
    4.6029   -1.9977    0.0000 C   0  0  0  0  0  0  0  0  0  0  0  0
    5.7537   -2.6605    0.0000 C   0  0  0  0  0  0  0  0  0  0  0  0
    6.9044   -1.9977    0.0000 N   0  0  0  0  0  0  0  0  0  0  0  0
    6.9044   -0.6628    0.0000 C   0  0  0  0  0  0  0  0  0  0  0  0
    8.0551    0.0000    0.0000 C   0  0  0  0  0  0  0  0  0  0  0  0
    9.2059   -0.6628    0.0000 N   0  0  0  0  0  0  0  0  0  0  0  0
    9.2059   -1.9977    0.0000 C   0  0  0  0  0  0  0  0  0  0  0  0
    8.0551   -2.6605    0.0000 C   0  0  0  0  0  0  0  0  0  0  0  0
    3.4522   -2.6605    0.0000 N   0  0  0  0  0  0  0  0  0  0  0  0
    2.3015   -1.9977    0.0000 C   0  0  0  0  0  0  0  0  0  0  0  0
    1.1507   -2.6605    0.0000 C   0  0  0  0  0  0  0  0  0  0  0  0
    0.0000   -1.9977    0.0000 C   0  0  0  0  0  0  0  0  0  0  0  0
    0.0000   -0.6628    0.0000 C   0  0  0  0  0  0  0  0  0  0  0  0
    1.1507    0.0000    0.0000 C   0  0  0  0  0  0  0  0  0  0  0  0
    2.3015   -0.6628    0.0000 C   0  0  0  0  0  0  0  0  0  0  0  0
  1  2  2  0  0  0  0
  2  3  1  0  0  0  0
  2 10  1  0  0  0  0
  3  4  1  0  0  0  0
  4  5  1  0  0  0  0
  4  9  1  0  0  0  0
  5  6  1  0  0  0  0
  6  7  1  0  0  0  0
  7  8  1  0  0  0  0
  8  9  1  0  0  0  0
 10 11  1  0  0  0  0
 11 12  1  0  0  0  0
 11 16  1  0  0  0  0
 12 13  1  0  0  0  0
 13 14  1  0  0  0  0
 14 15  1  0  0  0  0
 15 16  1  0  0  0  0
M  END
> <ID>
11447

> <Formula>
C12H23N3O

> <FW>
225.3305

> <DSSTox_CID>
26147

> <DSSTox_RID>
81379

> <DSSTox_GSID>
46147

> <DSSTox_FileID_Sort>
6060

> <TS_ChemName>
Esaprazole

> <TS_ChemName_Synonyms>


> <TS_CASRN>
64204-55-3

> <CASRN_ChemName_Relationship>
primary

> <TS_Description>
single chemical compound

> <ChemNote>


> <STRUCTURE_Shown>
tested chemical

> <STRUCTURE_Formula>
C12H23N3O

> <STRUCTURE_MW>
225.3305

> <STRUCTURE_ChemType>
defined organic

> <STRUCTURE_DefinedOrganicForm>
parent

> <STRUCTURE_IUPAC>
N-cyclohexyl-2-(piperazin-1-yl)acetamide

> <STRUCTURE_SMILES>
O=C(CN1CCNCC1)NC2CCCCC2

> <STRUCTURE_SMILES_Desalt>
O=C(CN1CCNCC1)NC2CCCCC2

> <Substance_modify_yyyymmdd>
20110818

$$$$
