64211-46-7
ChemmineR-0915142007XD

 30 31  0  0  0  0  0  0  0  0  2 V2000
    7.5851   -8.1440    0.0000 O    0  0  0  0  0  0  0  0  0  0  0  0
    6.9197   -9.2884    0.0000 N    0  3  0  0  0  0  0  0  0  0  0  0
    7.5851  -10.4462    0.0000 O    0  5  0  0  0  0  0  0  0  0  0  0
    5.5890   -9.2884    0.0000 O    0  0  0  0  0  0  0  0  0  0  0  0
   13.3072   -4.4180    0.0000 Cl   0  0  0  0  0  0  0  0  0  0  0  0
   11.9765   -4.4180    0.0000 C    0  0  0  0  0  0  0  0  0  0  0  0
   11.3111   -5.5624    0.0000 C    0  0  0  0  0  0  0  0  0  0  0  0
    9.9804   -5.5624    0.0000 C    0  0  0  0  0  0  0  0  0  0  0  0
    9.3150   -4.4180    0.0000 C    0  0  0  0  0  0  0  0  0  0  0  0
    7.9843   -4.4180    0.0000 C    0  0  0  0  0  0  0  0  0  0  0  0
    7.3190   -5.5624    0.0000 O    0  0  0  0  0  0  0  0  0  0  0  0
    5.9882   -5.5624    0.0000 N    0  0  0  0  0  0  0  0  0  0  0  0
    5.3229   -4.4180    0.0000 C    0  0  0  0  0  0  0  0  0  0  0  0
    5.9882   -3.2603    0.0000 C    0  0  0  0  0  0  0  0  0  0  0  0
    5.3229   -2.1158    0.0000 N    0  0  0  0  0  0  0  0  0  0  0  0
    5.8685   -0.8916    0.0000 C    0  0  0  0  0  0  0  0  0  0  0  0
    4.8704    0.0000    0.0000 C    0  0  0  0  0  0  0  0  0  0  0  0
    3.7260   -0.6654    0.0000 N    0  0  0  0  0  0  0  0  0  0  0  0
    4.0055   -1.9695    0.0000 C    0  0  0  0  0  0  0  0  0  0  0  0
    3.9922   -4.4180    0.0000 C    0  0  0  0  0  0  0  0  0  0  0  0
    3.3268   -3.2603    0.0000 C    0  0  0  0  0  0  0  0  0  0  0  0
    1.9961   -3.2603    0.0000 C    0  0  0  0  0  0  0  0  0  0  0  0
    1.3307   -4.4180    0.0000 C    0  0  0  0  0  0  0  0  0  0  0  0
    0.0000   -4.4180    0.0000 Cl   0  0  0  0  0  0  0  0  0  0  0  0
    1.9961   -5.5624    0.0000 C    0  0  0  0  0  0  0  0  0  0  0  0
    3.3268   -5.5624    0.0000 C    0  0  0  0  0  0  0  0  0  0  0  0
    3.9922   -6.7201    0.0000 Cl   0  0  0  0  0  0  0  0  0  0  0  0
    9.9804   -3.2603    0.0000 C    0  0  0  0  0  0  0  0  0  0  0  0
   11.3111   -3.2603    0.0000 C    0  0  0  0  0  0  0  0  0  0  0  0
    9.3150   -2.1158    0.0000 Cl   0  0  0  0  0  0  0  0  0  0  0  0
  1  2  1  0  0  0  0
  2  3  1  0  0  0  0
  2  4  2  0  0  0  0
  5  6  1  0  0  0  0
  6  7  2  0  0  0  0
  6 29  1  0  0  0  0
  7  8  1  0  0  0  0
  8  9  2  0  0  0  0
  9 10  1  0  0  0  0
  9 28  1  0  0  0  0
 10 11  1  0  0  0  0
 11 12  1  0  0  0  0
 12 13  2  0  0  0  0
 13 14  1  0  0  0  0
 13 20  1  0  0  0  0
 14 15  1  0  0  0  0
 15 16  1  0  0  0  0
 15 19  1  0  0  0  0
 16 17  2  0  0  0  0
 17 18  1  0  0  0  0
 18 19  2  0  0  0  0
 20 21  2  0  0  0  0
 20 26  1  0  0  0  0
 21 22  1  0  0  0  0
 22 23  2  0  0  0  0
 23 24  1  0  0  0  0
 23 25  1  0  0  0  0
 25 26  2  0  0  0  0
 26 27  1  0  0  0  0
 28 29  2  0  0  0  0
 28 30  1  0  0  0  0
M  END
> <ID>
11309

> <Formula>
C18H14Cl4N4O4

> <FW>
492.1402 (63.0128+429.1273)

> <DSSTox_CID>
25943

> <DSSTox_RID>
81241

> <DSSTox_GSID>
45943

> <DSSTox_FileID_Sort>
5922

> <TS_ChemName>
Oxiconazole nitrate

> <TS_ChemName_Synonyms>


> <TS_CASRN>
64211-46-7

> <CASRN_ChemName_Relationship>
primary

> <TS_Description>
single chemical compound

> <ChemNote>
stereochem; parent [64211-45-6]

> <STRUCTURE_Shown>
tested chemical

> <STRUCTURE_Formula>
C18H14Cl4N4O4

> <STRUCTURE_MW>
492.1402

> <STRUCTURE_ChemType>
defined organic

> <STRUCTURE_DefinedOrganicForm>
complex

> <STRUCTURE_IUPAC>
(1Z)-N-[(2,4-dichlorobenzyl)oxy]-1-(2,4-dichlorophenyl)-2-(1H-imidazol-1-yl)ethanimine nitrate (1:1)

> <STRUCTURE_SMILES>
[O-][N+](=O)O.Clc3ccc(C(=N\OCc1ccc(Cl)cc1Cl)\Cn2ccnc2)c(Cl)c3

> <STRUCTURE_SMILES_Desalt>
Clc3ccc(C(=N\OCc1ccc(Cl)cc1Cl)\Cn2ccnc2)c(Cl)c3

> <Substance_modify_yyyymmdd>
20110930

$$$$
