64221-86-9
ChemmineR-0915142007XD

 22 23  0  0  1  0  0  0  0  0  1 V2000
    3.7854   -3.4163    0.0000 N   0  0  0  0  0  0  0  0  0  0  0  0
    5.1561   -3.8592    0.0000 C   0  0  0  0  0  0  0  0  0  0  0  0
    2.3197   -3.4163    0.0000 C   0  0  0  0  0  0  0  0  0  0  0  0
    3.7854   -2.0034    0.0000 C   0  0  0  0  0  0  0  0  0  0  0  0
    2.3197   -2.0034    0.0000 C   0  0  0  0  0  0  0  0  0  0  0  0
    5.9891   -2.6888    0.0000 C   0  0  0  0  0  0  0  0  0  0  0  0
    5.1772   -1.5395    0.0000 C   0  0  0  0  0  0  0  0  0  0  0  0
    5.6095   -5.2299    0.0000 C   0  0  0  0  0  0  0  0  0  0  0  0
    1.5184   -4.3442    0.0000 O   0  0  0  0  0  0  0  0  0  0  0  0
   10.5442   -0.6959    0.0000 C   0  0  0  0  0  0  0  0  0  0  0  0
    9.4371    0.0000    0.0000 N   0  0  0  0  0  0  0  0  0  0  0  0
    1.1177   -1.4235    0.0000 C   0  0  0  0  0  0  0  0  0  0  0  0
    7.1173   -2.6888    0.0000 S   0  0  0  0  0  0  0  0  0  0  0  0
    7.0224   -5.5463    0.0000 O   0  0  0  0  0  0  0  0  0  0  0  0
   10.5442   -2.0245    0.0000 N   0  0  0  0  0  0  0  0  0  0  0  0
    4.6816   -6.3476    0.0000 O   0  0  0  0  0  0  0  0  0  0  0  0
    1.1388   -0.2952    0.0000 O   0  0  0  0  0  0  0  0  0  0  0  0
    8.2667   -2.0245    0.0000 C   0  0  0  0  0  0  0  0  0  0  0  0
    9.4265   -2.6888    0.0000 C   0  0  0  0  0  0  0  0  0  0  0  0
    0.0000   -1.9401    0.0000 C   0  0  0  0  0  0  0  0  0  0  0  0
    2.3408   -0.9279    0.0000 H   0  0  0  0  0  0  0  0  0  0  0  0
    3.7854   -0.9912    0.0000 H   0  0  0  0  0  0  0  0  0  0  0  0
  1  2  1  0  0  0  0
  1  3  1  0  0  0  0
  1  4  1  0  0  0  0
  2  6  2  0  0  0  0
  2  8  1  0  0  0  0
  3  9  2  0  0  0  0
  3  5  1  0  0  0  0
  4  5  1  0  0  0  0
  4  7  1  0  0  0  0
  4 22  1  6  0  0  0
  5 12  1  0  0  0  0
  5 21  1  1  0  0  0
  6 13  1  0  0  0  0
  6  7  1  0  0  0  0
  8 14  2  0  0  0  0
  8 16  1  0  0  0  0
 10 15  1  0  0  0  0
 10 11  2  0  0  0  0
 12 17  1  1  0  0  0
 12 20  1  0  0  0  0
 13 18  1  0  0  0  0
 15 19  1  0  0  0  0
 18 19  1  0  0  0  0
M  END
> <ID>
2821

> <Formula>
C12H17N3O4S

> <FW>
299.3461

> <DSSTox_CID>
3143

> <DSSTox_RID>
76888

> <DSSTox_GSID>
23143

> <DSSTox_FileID_Sort>
1572

> <TS_ChemName>
Imipenem

> <TS_ChemName_Synonyms>


> <TS_CASRN>
64221-86-9

> <CASRN_ChemName_Relationship>
primary

> <TS_Description>
single chemical compound

> <ChemNote>
stereochem; tautomers

> <STRUCTURE_Shown>
tested chemical

> <STRUCTURE_Formula>
C12H17N3O4S

> <STRUCTURE_MW>
299.3461

> <STRUCTURE_ChemType>
defined organic

> <STRUCTURE_DefinedOrganicForm>
parent

> <STRUCTURE_IUPAC>
(5R,6S)-3-{[2-(carbonoimidoylamino)ethyl]sulfanyl}-6-[(1R)-1-hydroxyethyl]-7-oxo-1-azabicyclo[3.2.0]hept-2-ene-2-carboxylic acid

> <STRUCTURE_SMILES>
O[C@H](C)[C@H]2C(=O)N1C(=C(C[C@@H]12)SCCNC=N)C(=O)O

> <STRUCTURE_SMILES_Desalt>
O[C@H](C)[C@H]2C(=O)N1C(=C(C[C@@H]12)SCCNC=N)C(=O)O

> <Substance_modify_yyyymmdd>
20080429

$$$$
