6422-86-2
ChemmineR-0915142007XD

 28 28  0  0  0  0  0  0  0  0  1 V2000
    8.6478   -6.9065    0.0000 C   0  0  0  0  0  0  0  0  0  0  0  0
    7.9747   -8.0625    0.0000 C   0  0  0  0  0  0  0  0  0  0  0  0
    6.6578   -8.0625    0.0000 C   0  0  0  0  0  0  0  0  0  0  0  0
    5.9993   -6.9065    0.0000 C   0  0  0  0  0  0  0  0  0  0  0  0
    6.6578   -5.7506    0.0000 C   0  0  0  0  0  0  0  0  0  0  0  0
    7.9747   -5.7506    0.0000 C   0  0  0  0  0  0  0  0  0  0  0  0
    9.9794   -6.9065    0.0000 C   0  0  0  0  0  0  0  0  0  0  0  0
   10.6378   -8.0625    0.0000 O   0  0  0  0  0  0  0  0  0  0  0  0
   10.6378   -5.7506    0.0000 O   0  0  0  0  0  0  0  0  0  0  0  0
    4.6678   -6.9065    0.0000 C   0  0  0  0  0  0  0  0  0  0  0  0
    3.9947   -5.7506    0.0000 O   0  0  0  0  0  0  0  0  0  0  0  0
    3.9947   -8.0625    0.0000 O   0  0  0  0  0  0  0  0  0  0  0  0
   11.9694   -5.7506    0.0000 C   0  0  0  0  0  0  0  0  0  0  0  0
   12.6425   -4.5946    0.0000 C   0  0  0  0  0  0  0  0  0  0  0  0
   11.9694   -3.4533    0.0000 C   0  0  0  0  0  0  0  0  0  0  0  0
   12.6425   -2.2973    0.0000 C   0  0  0  0  0  0  0  0  0  0  0  0
   11.9694   -1.1560    0.0000 C   0  0  0  0  0  0  0  0  0  0  0  0
   12.6425    0.0000    0.0000 C   0  0  0  0  0  0  0  0  0  0  0  0
   13.9740   -4.5946    0.0000 C   0  0  0  0  0  0  0  0  0  0  0  0
   14.6325   -3.4533    0.0000 C   0  0  0  0  0  0  0  0  0  0  0  0
    2.6631   -8.0625    0.0000 C   0  0  0  0  0  0  0  0  0  0  0  0
    2.0047   -9.2185    0.0000 C   0  0  0  0  0  0  0  0  0  0  0  0
    2.6631  -10.3598    0.0000 C   0  0  0  0  0  0  0  0  0  0  0  0
    2.0047  -11.5158    0.0000 C   0  0  0  0  0  0  0  0  0  0  0  0
    2.6631  -12.6718    0.0000 C   0  0  0  0  0  0  0  0  0  0  0  0
    2.0047  -13.8277    0.0000 C   0  0  0  0  0  0  0  0  0  0  0  0
    0.6731   -9.2185    0.0000 C   0  0  0  0  0  0  0  0  0  0  0  0
    0.0000  -10.3598    0.0000 C   0  0  0  0  0  0  0  0  0  0  0  0
  1  2  2  0  0  0  0
  1  6  1  0  0  0  0
  1  7  1  0  0  0  0
  2  3  1  0  0  0  0
  3  4  2  0  0  0  0
  4  5  1  0  0  0  0
  4 10  1  0  0  0  0
  5  6  2  0  0  0  0
  7  8  2  0  0  0  0
  7  9  1  0  0  0  0
  9 13  1  0  0  0  0
 10 11  2  0  0  0  0
 10 12  1  0  0  0  0
 12 21  1  0  0  0  0
 13 14  1  0  0  0  0
 14 15  1  0  0  0  0
 14 19  1  0  0  0  0
 15 16  1  0  0  0  0
 16 17  1  0  0  0  0
 17 18  1  0  0  0  0
 19 20  1  0  0  0  0
 21 22  1  0  0  0  0
 22 23  1  0  0  0  0
 22 27  1  0  0  0  0
 23 24  1  0  0  0  0
 24 25  1  0  0  0  0
 25 26  1  0  0  0  0
 27 28  1  0  0  0  0
M  END
> <ID>
5302

> <Formula>
C24H38O4

> <FW>
390.5561

> <DSSTox_CID>
7625

> <DSSTox_RID>
78533

> <DSSTox_GSID>
27625

> <DSSTox_FileID_Sort>
3216

> <TS_ChemName>
Bis(2-ethylhexyl) terephthalate

> <TS_ChemName_Synonyms>
N-(3-Amino-4-methoxyphenyl)acetamide (1,4-Benzenedicarboxylic acid, bis(2-ethylhexyl) ester)

> <TS_CASRN>
6422-86-2

> <CASRN_ChemName_Relationship>
primary

> <TS_Description>
single chemical compound

> <ChemNote>


> <STRUCTURE_Shown>
tested chemical

> <STRUCTURE_Formula>
C24H38O4

> <STRUCTURE_MW>
390.5561

> <STRUCTURE_ChemType>
defined organic

> <STRUCTURE_DefinedOrganicForm>
parent

> <STRUCTURE_IUPAC>
bis(2-ethylhexyl) benzene-1,4-dicarboxylate

> <STRUCTURE_SMILES>
CCC(CCCC)COC(=O)c1ccc(cc1)C(=O)OCC(CC)CCCC

> <STRUCTURE_SMILES_Desalt>
CCC(CCCC)COC(=O)c1ccc(cc1)C(=O)OCC(CC)CCCC

> <Substance_modify_yyyymmdd>
20080429

$$$$
