64228-81-5
ChemmineR-0915142007XD

 87 92  0  0  0  0  0  0  0  0  2 V2000
   13.9619  -12.3766    0.0000 O   0  5  0  0  0  0  0  0  0  0  0  0
   13.9619  -13.7116    0.0000 S   0  0  0  0  0  0  0  0  0  0  0  0
   15.2969  -13.7116    0.0000 O   0  0  0  0  0  0  0  0  0  0  0  0
   12.6269  -13.7116    0.0000 O   0  0  0  0  0  0  0  0  0  0  0  0
   13.9619  -15.0187    0.0000 C   0  0  0  0  0  0  0  0  0  0  0  0
   12.8216  -15.6862    0.0000 C   0  0  0  0  0  0  0  0  0  0  0  0
   12.8216  -17.0212    0.0000 C   0  0  0  0  0  0  0  0  0  0  0  0
   13.9619  -17.6887    0.0000 C   0  0  0  0  0  0  0  0  0  0  0  0
   15.1300  -17.0212    0.0000 C   0  0  0  0  0  0  0  0  0  0  0  0
   15.1300  -15.6862    0.0000 C   0  0  0  0  0  0  0  0  0  0  0  0
    9.9847  -12.3766    0.0000 O   0  5  0  0  0  0  0  0  0  0  0  0
    9.9847  -13.7116    0.0000 S   0  0  0  0  0  0  0  0  0  0  0  0
   11.2919  -13.7116    0.0000 O   0  0  0  0  0  0  0  0  0  0  0  0
    8.6497  -13.7116    0.0000 O   0  0  0  0  0  0  0  0  0  0  0  0
    9.9847  -15.0187    0.0000 C   0  0  0  0  0  0  0  0  0  0  0  0
    8.8166  -15.6862    0.0000 C   0  0  0  0  0  0  0  0  0  0  0  0
    8.8166  -17.0212    0.0000 C   0  0  0  0  0  0  0  0  0  0  0  0
    9.9847  -17.6887    0.0000 C   0  0  0  0  0  0  0  0  0  0  0  0
   11.1250  -17.0212    0.0000 C   0  0  0  0  0  0  0  0  0  0  0  0
   11.1250  -15.6862    0.0000 C   0  0  0  0  0  0  0  0  0  0  0  0
   17.4384   -3.0594    0.0000 C   0  0  0  0  0  0  0  0  0  0  0  0
   17.4384   -4.3944    0.0000 O   0  0  0  0  0  0  0  0  0  0  0  0
   18.6066   -5.0619    0.0000 C   0  0  0  0  0  0  0  0  0  0  0  0
   19.7469   -4.3944    0.0000 C   0  0  0  0  0  0  0  0  0  0  0  0
   20.9150   -5.0619    0.0000 C   0  0  0  0  0  0  0  0  0  0  0  0
   20.9150   -6.3969    0.0000 C   0  0  0  0  0  0  0  0  0  0  0  0
   19.7469   -7.0366    0.0000 C   0  0  0  0  0  0  0  0  0  0  0  0
   18.6066   -6.3969    0.0000 C   0  0  0  0  0  0  0  0  0  0  0  0
   17.4384   -7.0366    0.0000 O   0  0  0  0  0  0  0  0  0  0  0  0
   16.2981   -6.3969    0.0000 C   0  0  0  0  0  0  0  0  0  0  0  0
   22.0553   -7.0366    0.0000 C   0  0  0  0  0  0  0  0  0  0  0  0
   22.0553   -8.3716    0.0000 C   0  0  0  0  0  0  0  0  0  0  0  0
   23.1956   -9.0391    0.0000 C   0  0  0  0  0  0  0  0  0  0  0  0
   24.3637   -8.3716    0.0000 C   0  0  0  0  0  0  0  0  0  0  0  0
   25.5041   -9.0391    0.0000 C   0  0  0  0  0  0  0  0  0  0  0  0
   26.6722   -8.3716    0.0000 O   0  0  0  0  0  0  0  0  0  0  0  0
   27.8125   -9.0391    0.0000 C   0  0  0  0  0  0  0  0  0  0  0  0
   25.5041  -10.3741    0.0000 C   0  0  0  0  0  0  0  0  0  0  0  0
   26.6722  -11.0416    0.0000 O   0  0  0  0  0  0  0  0  0  0  0  0
   27.8125  -10.3741    0.0000 C   0  0  0  0  0  0  0  0  0  0  0  0
   24.3637  -11.0416    0.0000 C   0  0  0  0  0  0  0  0  0  0  0  0
   23.1956  -10.3741    0.0000 C   0  0  0  0  0  0  0  0  0  0  0  0
   22.0553  -11.0416    0.0000 C   0  0  0  0  0  0  0  0  0  0  0  0
   20.9150  -10.3741    0.0000 C   0  0  0  0  0  0  0  0  0  0  0  0
   20.9150   -9.0391    0.0000 N   0  3  0  0  0  0  0  0  0  0  0  0
   20.4422   -7.7875    0.0000 C   0  0  0  0  0  0  0  0  0  0  0  0
   19.5800   -9.2616    0.0000 C   0  0  0  0  0  0  0  0  0  0  0  0
   18.7456   -8.2603    0.0000 C   0  0  0  0  0  0  0  0  0  0  0  0
   17.4384   -8.4828    0.0000 C   0  0  0  0  0  0  0  0  0  0  0  0
   16.5762   -7.4816    0.0000 O   0  0  0  0  0  0  0  0  0  0  0  0
   16.9656   -9.7344    0.0000 O   0  0  0  0  0  0  0  0  0  0  0  0
   15.6584   -9.9569    0.0000 C   0  0  0  0  0  0  0  0  0  0  0  0
   14.7962   -8.9556    0.0000 C   0  0  0  0  0  0  0  0  0  0  0  0
   13.4891   -9.1781    0.0000 C   0  0  0  0  0  0  0  0  0  0  0  0
   12.6547   -8.1491    0.0000 C   0  0  0  0  0  0  0  0  0  0  0  0
   11.3197   -8.3994    0.0000 C   0  0  0  0  0  0  0  0  0  0  0  0
   10.4853   -7.3703    0.0000 O   0  0  0  0  0  0  0  0  0  0  0  0
    9.1781   -7.5928    0.0000 C   0  0  0  0  0  0  0  0  0  0  0  0
    8.3159   -6.5916    0.0000 O   0  0  0  0  0  0  0  0  0  0  0  0
    8.7053   -8.8444    0.0000 C   0  0  0  0  0  0  0  0  0  0  0  0
    7.3981   -9.0947    0.0000 C   0  0  0  0  0  0  0  0  0  0  0  0
    6.5359   -8.0656    0.0000 N   0  3  0  0  0  0  0  0  0  0  0  0
    7.7041   -7.3981    0.0000 C   0  0  0  0  0  0  0  0  0  0  0  0
    5.7016   -9.0947    0.0000 C   0  0  0  0  0  0  0  0  0  0  0  0
    4.3944   -8.8444    0.0000 C   0  0  0  0  0  0  0  0  0  0  0  0
    3.9216   -7.5928    0.0000 C   0  0  0  0  0  0  0  0  0  0  0  0
    2.6144   -7.3703    0.0000 C   0  0  0  0  0  0  0  0  0  0  0  0
    2.1694   -6.1187    0.0000 C   0  0  0  0  0  0  0  0  0  0  0  0
    0.8622   -5.8962    0.0000 O   0  0  0  0  0  0  0  0  0  0  0  0
    0.0000   -6.8975    0.0000 C   0  0  0  0  0  0  0  0  0  0  0  0
    3.0316   -5.1175    0.0000 C   0  0  0  0  0  0  0  0  0  0  0  0
    2.5587   -3.8659    0.0000 O   0  0  0  0  0  0  0  0  0  0  0  0
    1.2516   -3.6156    0.0000 C   0  0  0  0  0  0  0  0  0  0  0  0
    4.3387   -5.3400    0.0000 C   0  0  0  0  0  0  0  0  0  0  0  0
    4.7837   -6.5916    0.0000 C   0  0  0  0  0  0  0  0  0  0  0  0
    6.0909   -6.8141    0.0000 C   0  0  0  0  0  0  0  0  0  0  0  0
    6.9531   -5.7850    0.0000 C   0  0  0  0  0  0  0  0  0  0  0  0
    6.4803   -4.5612    0.0000 C   0  0  0  0  0  0  0  0  0  0  0  0
    5.1731   -4.3109    0.0000 C   0  0  0  0  0  0  0  0  0  0  0  0
    4.7281   -3.0594    0.0000 C   0  0  0  0  0  0  0  0  0  0  0  0
    5.5903   -2.0581    0.0000 C   0  0  0  0  0  0  0  0  0  0  0  0
    5.1175   -0.8066    0.0000 O   0  0  0  0  0  0  0  0  0  0  0  0
    3.8103   -0.5562    0.0000 C   0  0  0  0  0  0  0  0  0  0  0  0
    6.8975   -2.2806    0.0000 C   0  0  0  0  0  0  0  0  0  0  0  0
    7.7597   -1.2516    0.0000 O   0  0  0  0  0  0  0  0  0  0  0  0
    7.2869    0.0000    0.0000 C   0  0  0  0  0  0  0  0  0  0  0  0
    7.3425   -3.5322    0.0000 C   0  0  0  0  0  0  0  0  0  0  0  0
  1  2  1  0  0  0  0
  2  3  2  0  0  0  0
  2  4  2  0  0  0  0
  2  5  1  0  0  0  0
  5  6  2  0  0  0  0
  5 10  1  0  0  0  0
  6  7  1  0  0  0  0
  7  8  2  0  0  0  0
  8  9  1  0  0  0  0
  9 10  2  0  0  0  0
 11 12  1  0  0  0  0
 12 13  2  0  0  0  0
 12 14  2  0  0  0  0
 12 15  1  0  0  0  0
 15 16  2  0  0  0  0
 15 20  1  0  0  0  0
 16 17  1  0  0  0  0
 17 18  2  0  0  0  0
 18 19  1  0  0  0  0
 19 20  2  0  0  0  0
 21 22  1  0  0  0  0
 22 23  1  0  0  0  0
 23 24  2  0  0  0  0
 23 28  1  0  0  0  0
 24 25  1  0  0  0  0
 25 26  2  0  0  0  0
 26 27  1  0  0  0  0
 26 31  1  0  0  0  0
 27 28  2  0  0  0  0
 28 29  1  0  0  0  0
 29 30  1  0  0  0  0
 31 32  1  0  0  0  0
 32 33  1  0  0  0  0
 32 45  1  0  0  0  0
 33 34  2  0  0  0  0
 33 42  1  0  0  0  0
 34 35  1  0  0  0  0
 35 36  1  0  0  0  0
 35 38  2  0  0  0  0
 36 37  1  0  0  0  0
 38 39  1  0  0  0  0
 38 41  1  0  0  0  0
 39 40  1  0  0  0  0
 41 42  2  0  0  0  0
 42 43  1  0  0  0  0
 43 44  1  0  0  0  0
 44 45  1  0  0  0  0
 45 46  1  0  0  0  0
 45 47  1  0  0  0  0
 47 48  1  0  0  0  0
 48 49  1  0  0  0  0
 49 50  2  0  0  0  0
 49 51  1  0  0  0  0
 51 52  1  0  0  0  0
 52 53  1  0  0  0  0
 53 54  1  0  0  0  0
 54 55  1  0  0  0  0
 55 56  1  0  0  0  0
 56 57  1  0  0  0  0
 57 58  1  0  0  0  0
 58 59  2  0  0  0  0
 58 60  1  0  0  0  0
 60 61  1  0  0  0  0
 61 62  1  0  0  0  0
 62 63  1  0  0  0  0
 62 64  1  0  0  0  0
 62 76  1  0  0  0  0
 64 65  1  0  0  0  0
 65 66  1  0  0  0  0
 66 67  2  0  0  0  0
 66 75  1  0  0  0  0
 67 68  1  0  0  0  0
 68 69  1  0  0  0  0
 68 71  2  0  0  0  0
 69 70  1  0  0  0  0
 71 72  1  0  0  0  0
 71 74  1  0  0  0  0
 72 73  1  0  0  0  0
 74 75  2  0  0  0  0
 75 76  1  0  0  0  0
 76 77  1  0  0  0  0
 77 78  1  0  0  0  0
 78 79  2  0  0  0  0
 78 87  1  0  0  0  0
 79 80  1  0  0  0  0
 80 81  2  0  0  0  0
 81 82  1  0  0  0  0
 81 84  1  0  0  0  0
 82 83  1  0  0  0  0
 84 85  1  0  0  0  0
 84 87  2  0  0  0  0
 85 86  1  0  0  0  0
M  END
> <ID>
2382

> <Formula>
C65H82N2O18S2

> <FW>
1243.4792 (157.1676+157.1676+929.1439)

> <DSSTox_CID>
2630

> <DSSTox_RID>
76665

> <DSSTox_GSID>
22630

> <DSSTox_FileID_Sort>
1349

> <TS_ChemName>
Atracurium besylate

> <TS_ChemName_Synonyms>


> <TS_CASRN>
64228-81-5

> <CASRN_ChemName_Relationship>
primary

> <TS_Description>
single chemical compound

> <ChemNote>
parent [64228-79-1]

> <STRUCTURE_Shown>
tested chemical

> <STRUCTURE_Formula>
C65H82N2O18S2

> <STRUCTURE_MW>
1243.4792

> <STRUCTURE_ChemType>
defined organic

> <STRUCTURE_DefinedOrganicForm>
complex

> <STRUCTURE_IUPAC>
2,2'-{pentane-1,5-diylbis[oxy(3-oxopropane-3,1-diyl)]}bis[1-(3,4-dimethoxybenzyl)-6,7-dimethoxy-2-methyl-1,2,3,4-tetrahydroisoquinolinium] bisbenzenesulfonate

> <STRUCTURE_SMILES>
[O-]S(=O)(=O)c1ccccc1.[O-]S(=O)(=O)c1ccccc1.COc1ccc(cc1OC)CC5c6cc(OC)c(OC)cc6CC[N+]5(C)CCC(=O)OCCCCCOC(=O)CC[N+]3(C)CCc4cc(OC)c(OC)cc4C3Cc2ccc(OC)c(OC)c2

> <STRUCTURE_SMILES_Desalt>
COc1ccc(cc1OC)CC5c6cc(OC)c(OC)cc6CC[N+]5(C)CCC(=O)OCCCCCOC(=O)CC[N+]3(C)CCc4cc(OC)c(OC)cc4C3Cc2ccc(OC)c(OC)c2

> <Substance_modify_yyyymmdd>
20080429

$$$$
