64241-34-5
ChemmineR-0915142007XD

 20 20  0  0  0  0  0  0  0  0  1 V2000
    5.7564   -5.9982    0.0000 N   0  0  0  0  0  0  0  0  0  0  0  0
    4.6051   -5.3304    0.0000 N   0  0  0  0  0  0  0  0  0  0  0  0
    6.9077   -5.3304    0.0000 C   0  0  0  0  0  0  0  0  0  0  0  0
    1.1398   -3.3387    0.0000 C   0  0  0  0  0  0  0  0  0  0  0  0
    4.6051   -3.9949    0.0000 C   0  0  0  0  0  0  0  0  0  0  0  0
    8.0705   -5.9982    0.0000 N   0  0  0  0  0  0  0  0  0  0  0  0
    2.2911   -3.9949    0.0000 N   0  0  0  0  0  0  0  0  0  0  0  0
    3.4423   -3.3387    0.0000 N   0  0  0  0  0  0  0  0  0  0  0  0
    0.0000   -3.9949    0.0000 O   0  0  0  0  0  0  0  0  0  0  0  0
    9.2218   -5.3304    0.0000 C   0  0  0  0  0  0  0  0  0  0  0  0
    6.9077   -3.9949    0.0000 C   0  0  0  0  0  0  0  0  0  0  0  0
    5.7564   -3.3387    0.0000 C   0  0  0  0  0  0  0  0  0  0  0  0
    1.1398   -2.0147    0.0000 O   0  0  0  0  0  0  0  0  0  0  0  0
   10.3615   -5.9982    0.0000 C   0  0  0  0  0  0  0  0  0  0  0  0
    8.0705   -7.3337    0.0000 C   0  0  0  0  0  0  0  0  0  0  0  0
   11.5128   -5.3304    0.0000 O   0  0  0  0  0  0  0  0  0  0  0  0
    0.0000   -1.3355    0.0000 C   0  0  0  0  0  0  0  0  0  0  0  0
   10.3615   -7.3337    0.0000 C   0  0  0  0  0  0  0  0  0  0  0  0
    6.9077   -7.9899    0.0000 C   0  0  0  0  0  0  0  0  0  0  0  0
    0.0000    0.0000    0.0000 C   0  0  0  0  0  0  0  0  0  0  0  0
  1  2  2  0  0  0  0
  1  3  1  0  0  0  0
  2  5  1  0  0  0  0
  3  6  1  0  0  0  0
  3 11  2  0  0  0  0
  4  7  1  0  0  0  0
  4  9  2  0  0  0  0
  4 13  1  0  0  0  0
  5  8  1  0  0  0  0
  5 12  2  0  0  0  0
  6 10  1  0  0  0  0
  6 15  1  0  0  0  0
  7  8  1  0  0  0  0
 10 14  1  0  0  0  0
 11 12  1  0  0  0  0
 13 17  1  0  0  0  0
 14 16  1  0  0  0  0
 14 18  1  0  0  0  0
 15 19  1  0  0  0  0
 17 20  1  0  0  0  0
M  END
> <ID>
13717

> <Formula>
C12H21N5O3

> <FW>
283.3268

> <DSSTox_CID>
28651

> <DSSTox_RID>
82921

> <DSSTox_GSID>
48725

> <DSSTox_FileID_Sort>
7598

> <TS_ChemName>
Cadralazine

> <TS_ChemName_Synonyms>


> <TS_CASRN>
64241-34-5

> <CASRN_ChemName_Relationship>
primary

> <TS_Description>
single chemical compound

> <ChemNote>


> <STRUCTURE_Shown>
tested chemical

> <STRUCTURE_Formula>
C12H21N5O3

> <STRUCTURE_MW>
283.3268

> <STRUCTURE_ChemType>
defined organic

> <STRUCTURE_DefinedOrganicForm>
parent

> <STRUCTURE_IUPAC>
ethyl 2-{6-[ethyl(2-hydroxypropyl)amino]pyridazin-3-yl}hydrazinecarboxylate

> <STRUCTURE_SMILES>
O=C(OCC)NNc1ccc(nn1)N(CC(C)O)CC

> <STRUCTURE_SMILES_Desalt>
O=C(OCC)NNc1ccc(nn1)N(CC(C)O)CC

> <Substance_modify_yyyymmdd>
20111204

$$$$
