6425-39-4
ChemmineR-0915142007XD

 17 18  0  0  0  0  0  0  0  0  1 V2000
    9.2278   -0.6805    0.0000 C   0  0  0  0  0  0  0  0  0  0  0  0
   10.3812    0.0000    0.0000 C   0  0  0  0  0  0  0  0  0  0  0  0
   11.5347   -0.6805    0.0000 O   0  0  0  0  0  0  0  0  0  0  0  0
   11.5347   -2.0070    0.0000 C   0  0  0  0  0  0  0  0  0  0  0  0
   10.3812   -2.6645    0.0000 C   0  0  0  0  0  0  0  0  0  0  0  0
    9.2278   -2.0070    0.0000 N   0  0  0  0  0  0  0  0  0  0  0  0
    1.1535   -2.6645    0.0000 C   0  0  0  0  0  0  0  0  0  0  0  0
    0.0000   -2.0070    0.0000 C   0  0  0  0  0  0  0  0  0  0  0  0
    0.0000   -0.6805    0.0000 O   0  0  0  0  0  0  0  0  0  0  0  0
    1.1535    0.0000    0.0000 C   0  0  0  0  0  0  0  0  0  0  0  0
    2.3069   -0.6805    0.0000 C   0  0  0  0  0  0  0  0  0  0  0  0
    2.3069   -2.0070    0.0000 N   0  0  0  0  0  0  0  0  0  0  0  0
    3.4604   -2.6645    0.0000 C   0  0  0  0  0  0  0  0  0  0  0  0
    4.6023   -2.0070    0.0000 C   0  0  0  0  0  0  0  0  0  0  0  0
    5.7558   -2.6645    0.0000 O   0  0  0  0  0  0  0  0  0  0  0  0
    6.9093   -2.0070    0.0000 C   0  0  0  0  0  0  0  0  0  0  0  0
    8.0743   -2.6645    0.0000 C   0  0  0  0  0  0  0  0  0  0  0  0
  1  2  1  0  0  0  0
  1  6  1  0  0  0  0
  2  3  1  0  0  0  0
  3  4  1  0  0  0  0
  4  5  1  0  0  0  0
  5  6  1  0  0  0  0
  6 17  1  0  0  0  0
  7  8  1  0  0  0  0
  7 12  1  0  0  0  0
  8  9  1  0  0  0  0
  9 10  1  0  0  0  0
 10 11  1  0  0  0  0
 11 12  1  0  0  0  0
 12 13  1  0  0  0  0
 13 14  1  0  0  0  0
 14 15  1  0  0  0  0
 15 16  1  0  0  0  0
 16 17  1  0  0  0  0
M  END
> <ID>
9100

> <Formula>
C12H24N2O3

> <FW>
244.3306

> <DSSTox_CID>
22170

> <DSSTox_RID>
79943

> <DSSTox_GSID>
42170

> <DSSTox_FileID_Sort>
4625

> <TS_ChemName>
4,4'-(Oxydiethylene)bis(morpholine)

> <TS_ChemName_Synonyms>
Morpholine, 4,4'-(oxydi-2,1-ethanediyl)bis-

> <TS_CASRN>
6425-39-4

> <CASRN_ChemName_Relationship>
primary

> <TS_Description>
single chemical compound

> <ChemNote>


> <STRUCTURE_Shown>
tested chemical

> <STRUCTURE_Formula>
C12H24N2O3

> <STRUCTURE_MW>
244.3306

> <STRUCTURE_ChemType>
defined organic

> <STRUCTURE_DefinedOrganicForm>
parent

> <STRUCTURE_IUPAC>
4,4'-(oxydiethane-2,1-diyl)dimorpholine

> <STRUCTURE_SMILES>
O(CCN1CCOCC1)CCN2CCOCC2

> <STRUCTURE_SMILES_Desalt>
O(CCN1CCOCC1)CCN2CCOCC2

> <Substance_modify_yyyymmdd>
20080825

$$$$
