64275-73-6
ChemmineR-0915142007XD

  9  8  0  0  0  0  0  0  0  0  1 V2000
    1.1784    0.0000    0.0000 C   0  0  0  0  0  0  0  0  0  0  0  0
    2.3359   -0.6585    0.0000 C   0  0  0  0  0  0  0  0  0  0  0  0
    3.4658    0.0000    0.0000 C   0  0  0  0  0  0  0  0  0  0  0  0
    4.6234   -0.6585    0.0000 C   0  0  0  0  0  0  0  0  0  0  0  0
    5.7879    0.0000    0.0000 C   0  0  0  0  0  0  0  0  0  0  0  0
    6.9316   -0.6585    0.0000 C   0  0  0  0  0  0  0  0  0  0  0  0
    6.9316   -1.9824    0.0000 C   0  0  0  0  0  0  0  0  0  0  0  0
    5.7879   -2.6756    0.0000 C   0  0  0  0  0  0  0  0  0  0  0  0
    0.0000   -0.6585    0.0000 O   0  0  0  0  0  0  0  0  0  0  0  0
  1  2  1  0  0  0  0
  1  9  1  0  0  0  0
  2  3  1  0  0  0  0
  3  4  1  0  0  0  0
  4  5  1  0  0  0  0
  5  6  2  0  0  0  0
  6  7  1  0  0  0  0
  7  8  1  0  0  0  0
M  END
> <ID>
12819

> <Formula>
C8H16O

> <FW>
128.212

> <DSSTox_CID>
27698

> <DSSTox_RID>
82507

> <DSSTox_GSID>
47700

> <DSSTox_FileID_Sort>
7188

> <TS_ChemName>
cis-5-Octen-1-ol

> <TS_ChemName_Synonyms>


> <TS_CASRN>
64275-73-6

> <CASRN_ChemName_Relationship>
primary

> <TS_Description>
single chemical compound

> <ChemNote>
stereochem

> <STRUCTURE_Shown>
tested chemical

> <STRUCTURE_Formula>
C8H16O

> <STRUCTURE_MW>
128.212

> <STRUCTURE_ChemType>
defined organic

> <STRUCTURE_DefinedOrganicForm>
parent

> <STRUCTURE_IUPAC>
(5Z)-oct-5-en-1-ol

> <STRUCTURE_SMILES>
CC\C=C/CCCCO

> <STRUCTURE_SMILES_Desalt>
CC\C=C/CCCCO

> <Substance_modify_yyyymmdd>
20101215

$$$$
