643-38-9
ChemmineR-0915142007XD

 16 17  0  0  0  0  0  0  0  0  1 V2000
    3.4783   -1.3293    0.0000 N   0  0  0  0  0  0  0  0  0  0  0  0
    4.6423   -1.9905    0.0000 C   0  0  0  0  0  0  0  0  0  0  0  0
    4.6423   -3.3474    0.0000 C   0  0  0  0  0  0  0  0  0  0  0  0
    2.2936   -1.9905    0.0000 C   0  0  0  0  0  0  0  0  0  0  0  0
    5.7581   -1.3293    0.0000 C   0  0  0  0  0  0  0  0  0  0  0  0
    5.7581   -4.0086    0.0000 C   0  0  0  0  0  0  0  0  0  0  0  0
    3.4783   -4.0086    0.0000 C   0  0  0  0  0  0  0  0  0  0  0  0
    2.2936   -3.3474    0.0000 C   0  0  0  0  0  0  0  0  0  0  0  0
    6.8877   -3.3474    0.0000 C   0  0  0  0  0  0  0  0  0  0  0  0
    6.8877   -1.9905    0.0000 C   0  0  0  0  0  0  0  0  0  0  0  0
    1.1640   -1.3293    0.0000 C   0  0  0  0  0  0  0  0  0  0  0  0
    1.1640    0.0000    0.0000 O   0  0  0  0  0  0  0  0  0  0  0  0
    0.0000   -1.9905    0.0000 O   0  0  0  0  0  0  0  0  0  0  0  0
    1.1640   -4.0086    0.0000 C   0  0  0  0  0  0  0  0  0  0  0  0
    0.0000   -3.3130    0.0000 O   0  0  0  0  0  0  0  0  0  0  0  0
    1.1640   -5.3035    0.0000 O   0  0  0  0  0  0  0  0  0  0  0  0
  1  2  2  0  0  0  0
  1  4  1  0  0  0  0
  2  3  1  0  0  0  0
  2  5  1  0  0  0  0
  3  6  1  0  0  0  0
  3  7  2  0  0  0  0
  4  8  2  0  0  0  0
  4 11  1  0  0  0  0
  5 10  2  0  0  0  0
  6  9  2  0  0  0  0
  7  8  1  0  0  0  0
  8 14  1  0  0  0  0
  9 10  1  0  0  0  0
 11 12  2  0  0  0  0
 11 13  1  0  0  0  0
 14 15  2  0  0  0  0
 14 16  1  0  0  0  0
M  END
> <ID>
5045

> <Formula>
C11H7NO4

> <FW>
217.1776

> <DSSTox_CID>
7281

> <DSSTox_RID>
78384

> <DSSTox_GSID>
27281

> <DSSTox_FileID_Sort>
3067

> <TS_ChemName>
2,3-Quinolinedicarboxylic acid

> <TS_ChemName_Synonyms>


> <TS_CASRN>
643-38-9

> <CASRN_ChemName_Relationship>
primary

> <TS_Description>
single chemical compound

> <ChemNote>


> <STRUCTURE_Shown>
tested chemical

> <STRUCTURE_Formula>
C11H7NO4

> <STRUCTURE_MW>
217.1776

> <STRUCTURE_ChemType>
defined organic

> <STRUCTURE_DefinedOrganicForm>
parent

> <STRUCTURE_IUPAC>
quinoline-2,3-dicarboxylic acid

> <STRUCTURE_SMILES>
O=C(O)c1cc2ccccc2nc1C(=O)O

> <STRUCTURE_SMILES_Desalt>
O=C(O)c1cc2ccccc2nc1C(=O)O

> <Substance_modify_yyyymmdd>
20080429

$$$$
