643-79-8
ChemmineR-0915142007XD

 10 10  0  0  0  0  0  0  0  0  1 V2000
    2.2994   -3.3426    0.0000 C   0  0  0  0  0  0  0  0  0  0  0  0
    1.1603   -4.0026    0.0000 C   0  0  0  0  0  0  0  0  0  0  0  0
    0.0000   -3.3426    0.0000 C   0  0  0  0  0  0  0  0  0  0  0  0
    0.0000   -2.0120    0.0000 C   0  0  0  0  0  0  0  0  0  0  0  0
    1.1603   -1.3360    0.0000 C   0  0  0  0  0  0  0  0  0  0  0  0
    2.2994   -2.0120    0.0000 C   0  0  0  0  0  0  0  0  0  0  0  0
    3.4437   -4.0026    0.0000 C   0  0  0  0  0  0  0  0  0  0  0  0
    3.4437   -5.3226    0.0000 O   0  0  0  0  0  0  0  0  0  0  0  0
    3.4597   -1.3360    0.0000 C   0  0  0  0  0  0  0  0  0  0  0  0
    3.4597    0.0000    0.0000 O   0  0  0  0  0  0  0  0  0  0  0  0
  1  2  2  0  0  0  0
  1  6  1  0  0  0  0
  1  7  1  0  0  0  0
  2  3  1  0  0  0  0
  3  4  2  0  0  0  0
  4  5  1  0  0  0  0
  5  6  2  0  0  0  0
  6  9  1  0  0  0  0
  7  8  2  0  0  0  0
  9 10  2  0  0  0  0
M  END
> <ID>
6486

> <Formula>
C8H6O2

> <FW>
134.132

> <DSSTox_CID>
12514

> <DSSTox_RID>
78962

> <DSSTox_GSID>
32514

> <DSSTox_FileID_Sort>
3644

> <TS_ChemName>
1,2-Benzenedicarboxaldehyde

> <TS_ChemName_Synonyms>
1,2-Benzenedicarboxaldehyde (Phthaldialdehyde)

> <TS_CASRN>
643-79-8

> <CASRN_ChemName_Relationship>
primary

> <TS_Description>
single chemical compound

> <ChemNote>


> <STRUCTURE_Shown>
tested chemical

> <STRUCTURE_Formula>
C8H6O2

> <STRUCTURE_MW>
134.132

> <STRUCTURE_ChemType>
defined organic

> <STRUCTURE_DefinedOrganicForm>
parent

> <STRUCTURE_IUPAC>
benzene-1,2-dicarbaldehyde

> <STRUCTURE_SMILES>
O=Cc1ccccc1C=O

> <STRUCTURE_SMILES_Desalt>
O=Cc1ccccc1C=O

> <Substance_modify_yyyymmdd>
20080429

$$$$
