64359-81-5
ChemmineR-0915142007XD

 16 16  0  0  0  0  0  0  0  0  1 V2000
    3.5229   -8.7685    0.0000 C    0  0  0  0  0  0  0  0  0  0  0  0
    4.6009   -7.9905    0.0000 N    0  0  0  0  0  0  0  0  0  0  0  0
    3.9453  -10.0354    0.0000 C    0  0  0  0  0  0  0  0  0  0  0  0
    5.6789   -8.7685    0.0000 S    0  0  0  0  0  0  0  0  0  0  0  0
    5.2789  -10.0354    0.0000 C    0  0  0  0  0  0  0  0  0  0  0  0
    2.2560   -8.3684    0.0000 O    0  0  0  0  0  0  0  0  0  0  0  0
    4.6009   -6.6569    0.0000 C    0  0  0  0  0  0  0  0  0  0  0  0
    3.4452   -6.0012    0.0000 C    0  0  0  0  0  0  0  0  0  0  0  0
    1.1336   -0.6779    0.0000 C    0  0  0  0  0  0  0  0  0  0  0  0
    1.1336   -2.0004    0.0000 C    0  0  0  0  0  0  0  0  0  0  0  0
    2.2894   -2.6672    0.0000 C    0  0  0  0  0  0  0  0  0  0  0  0
    3.4452   -4.6676    0.0000 C    0  0  0  0  0  0  0  0  0  0  0  0
    2.2894   -3.9897    0.0000 C    0  0  0  0  0  0  0  0  0  0  0  0
    0.0000    0.0000    0.0000 C    0  0  0  0  0  0  0  0  0  0  0  0
    6.0457  -11.1134    0.0000 Cl   0  0  0  0  0  0  0  0  0  0  0  0
    3.1562  -11.1134    0.0000 Cl   0  0  0  0  0  0  0  0  0  0  0  0
  1  2  1  0  0  0  0
  1  3  1  0  0  0  0
  1  6  2  0  0  0  0
  2  4  1  0  0  0  0
  2  7  1  0  0  0  0
  3  5  2  0  0  0  0
  3 16  1  0  0  0  0
  4  5  1  0  0  0  0
  5 15  1  0  0  0  0
  7  8  1  0  0  0  0
  8 12  1  0  0  0  0
  9 10  1  0  0  0  0
  9 14  1  0  0  0  0
 10 11  1  0  0  0  0
 11 13  1  0  0  0  0
 12 13  1  0  0  0  0
M  END
> <ID>
6415

> <Formula>
C11H17Cl2NOS

> <FW>
282.2298

> <DSSTox_CID>
12315

> <DSSTox_RID>
78912

> <DSSTox_GSID>
32315

> <DSSTox_FileID_Sort>
3594

> <TS_ChemName>
4,5-Dichloro-2-octyl-3(2H)-isothiazolone

> <TS_ChemName_Synonyms>
4,5-Dichloro-2-octyl-3(2H)-isothiazolone (4,5-Dichloro-2-n-octyl-3(2H)-isothiazolone)

> <TS_CASRN>
64359-81-5

> <CASRN_ChemName_Relationship>
primary

> <TS_Description>
single chemical compound

> <ChemNote>


> <STRUCTURE_Shown>
tested chemical

> <STRUCTURE_Formula>
C11H17Cl2NOS

> <STRUCTURE_MW>
282.2298

> <STRUCTURE_ChemType>
defined organic

> <STRUCTURE_DefinedOrganicForm>
parent

> <STRUCTURE_IUPAC>
4,5-dichloro-2-octyl-1,2-thiazol-3(2H)-one

> <STRUCTURE_SMILES>
ClC=1SN(CCCCCCCC)C(=O)C=1Cl

> <STRUCTURE_SMILES_Desalt>
ClC=1SN(CCCCCCCC)C(=O)C=1Cl

> <Substance_modify_yyyymmdd>
20080429

$$$$
