64379-93-7
ChemmineR-0915142007XD

 15 16  0  0  0  0  0  0  0  0  1 V2000
    2.2963   -2.0045    0.0000 C   0  0  0  0  0  0  0  0  0  0  0  0
    2.2963   -3.3315    0.0000 C   0  0  0  0  0  0  0  0  0  0  0  0
    1.1481   -1.3364    0.0000 C   0  0  0  0  0  0  0  0  0  0  0  0
    1.1481   -3.9903    0.0000 C   0  0  0  0  0  0  0  0  0  0  0  0
    0.0000   -2.0045    0.0000 C   0  0  0  0  0  0  0  0  0  0  0  0
    0.0000   -3.3315    0.0000 C   0  0  0  0  0  0  0  0  0  0  0  0
    1.1481   -5.3266    0.0000 F   0  0  0  0  0  0  0  0  0  0  0  0
    3.4632   -1.3364    0.0000 C   0  0  0  0  0  0  0  0  0  0  0  0
    4.6114   -1.9951    0.0000 C   0  0  0  0  0  0  0  0  0  0  0  0
    5.7784   -1.3364    0.0000 C   0  0  0  0  0  0  0  0  0  0  0  0
    6.9265   -1.9951    0.0000 N   0  0  0  0  0  0  0  0  0  0  0  0
    5.7784    0.0000    0.0000 O   0  0  0  0  0  0  0  0  0  0  0  0
    8.0746   -1.3364    0.0000 C   0  0  0  0  0  0  0  0  0  0  0  0
    8.7428   -0.1882    0.0000 C   0  0  0  0  0  0  0  0  0  0  0  0
    9.4110   -1.3364    0.0000 C   0  0  0  0  0  0  0  0  0  0  0  0
  1  2  1  0  0  0  0
  1  3  2  0  0  0  0
  1  8  1  0  0  0  0
  2  4  2  0  0  0  0
  3  5  1  0  0  0  0
  4  6  1  0  0  0  0
  4  7  1  0  0  0  0
  5  6  2  0  0  0  0
  8  9  2  0  0  0  0
  9 10  1  0  0  0  0
 10 11  1  0  0  0  0
 10 12  2  0  0  0  0
 11 13  1  0  0  0  0
 13 14  1  0  0  0  0
 13 15  1  0  0  0  0
 14 15  1  0  0  0  0
M  END
> <ID>
11453

> <Formula>
C12H12FNO

> <FW>
205.2282

> <DSSTox_CID>
26154

> <DSSTox_RID>
81385

> <DSSTox_GSID>
46154

> <DSSTox_FileID_Sort>
6066

> <TS_ChemName>
Cinflumide

> <TS_ChemName_Synonyms>


> <TS_CASRN>
64379-93-7

> <CASRN_ChemName_Relationship>
primary

> <TS_Description>
single chemical compound

> <ChemNote>
stereochem

> <STRUCTURE_Shown>
tested chemical

> <STRUCTURE_Formula>
C12H12FNO

> <STRUCTURE_MW>
205.2282

> <STRUCTURE_ChemType>
defined organic

> <STRUCTURE_DefinedOrganicForm>
parent

> <STRUCTURE_IUPAC>
(2E)-N-cyclopropyl-3-(3-fluorophenyl)prop-2-enamide

> <STRUCTURE_SMILES>
O=C(/C=C/c1cccc(F)c1)NC2CC2

> <STRUCTURE_SMILES_Desalt>
O=C(/C=C/c1cccc(F)c1)NC2CC2

> <Substance_modify_yyyymmdd>
20110818

$$$$
