644-64-4
ChemmineR-0915142007XD

 17 17  0  0  0  0  0  0  0  0  1 V2000
    5.9581   -3.3669    0.0000 N   0  0  0  0  0  0  0  0  0  0  0  0
    7.2449   -2.9702    0.0000 C   0  0  0  0  0  0  0  0  0  0  0  0
    4.8828   -2.5824    0.0000 N   0  0  0  0  0  0  0  0  0  0  0  0
    3.7987   -3.3669    0.0000 C   0  0  0  0  0  0  0  0  0  0  0  0
    5.5439   -4.6272    0.0000 C   0  0  0  0  0  0  0  0  0  0  0  0
    4.2130   -4.6272    0.0000 C   0  0  0  0  0  0  0  0  0  0  0  0
    2.2387   -1.6922    0.0000 C   0  0  0  0  0  0  0  0  0  0  0  0
    2.5207   -2.9702    0.0000 O   0  0  0  0  0  0  0  0  0  0  0  0
    7.5358   -1.6746    0.0000 N   0  0  0  0  0  0  0  0  0  0  0  0
    0.9783   -1.2780    0.0000 N   0  0  0  0  0  0  0  0  0  0  0  0
    8.2232   -3.8604    0.0000 O   0  0  0  0  0  0  0  0  0  0  0  0
    3.2082   -0.7844    0.0000 O   0  0  0  0  0  0  0  0  0  0  0  0
    6.3195   -5.7466    0.0000 C   0  0  0  0  0  0  0  0  0  0  0  0
    8.8138   -1.2780    0.0000 C   0  0  0  0  0  0  0  0  0  0  0  0
    6.5663   -0.7668    0.0000 C   0  0  0  0  0  0  0  0  0  0  0  0
    0.0000   -2.1682    0.0000 C   0  0  0  0  0  0  0  0  0  0  0  0
    0.7051    0.0000    0.0000 C   0  0  0  0  0  0  0  0  0  0  0  0
  1  2  1  0  0  0  0
  1  3  1  0  0  0  0
  1  5  1  0  0  0  0
  2  9  1  0  0  0  0
  2 11  2  0  0  0  0
  3  4  2  0  0  0  0
  4  8  1  0  0  0  0
  4  6  1  0  0  0  0
  5  6  2  0  0  0  0
  5 13  1  0  0  0  0
  7  8  1  0  0  0  0
  7 10  1  0  0  0  0
  7 12  2  0  0  0  0
  9 14  1  0  0  0  0
  9 15  1  0  0  0  0
 10 16  1  0  0  0  0
 10 17  1  0  0  0  0
M  END
> <ID>
8826

> <Formula>
C10H16N4O3

> <FW>
240.259

> <DSSTox_CID>
21880

> <DSSTox_RID>
79863

> <DSSTox_GSID>
41880

> <DSSTox_FileID_Sort>
4545

> <TS_ChemName>
Dimetilan

> <TS_ChemName_Synonyms>


> <TS_CASRN>
644-64-4

> <CASRN_ChemName_Relationship>
primary

> <TS_Description>
single chemical compound

> <ChemNote>


> <STRUCTURE_Shown>
tested chemical

> <STRUCTURE_Formula>
C10H16N4O3

> <STRUCTURE_MW>
240.259

> <STRUCTURE_ChemType>
defined organic

> <STRUCTURE_DefinedOrganicForm>
parent

> <STRUCTURE_IUPAC>
1-(dimethylcarbamoyl)-5-methyl-1H-pyrazol-3-yl dimethylcarbamate

> <STRUCTURE_SMILES>
O=C(N(C)C)n1nc(OC(=O)N(C)C)cc1C

> <STRUCTURE_SMILES_Desalt>
O=C(N(C)C)n1nc(OC(=O)N(C)C)cc1C

> <Substance_modify_yyyymmdd>
20080825

$$$$
