644-35-9
ChemmineR-0915142007XD

 10 10  0  0  0  0  0  0  0  0  1 V2000
    1.1519   -1.9880    0.0000 C   0  0  0  0  0  0  0  0  0  0  0  0
    1.1519   -0.6549    0.0000 O   0  0  0  0  0  0  0  0  0  0  0  0
    2.3085   -2.6569    0.0000 C   0  0  0  0  0  0  0  0  0  0  0  0
    0.0000   -2.6569    0.0000 C   0  0  0  0  0  0  0  0  0  0  0  0
    0.0000   -3.9900    0.0000 C   0  0  0  0  0  0  0  0  0  0  0  0
    2.3085   -3.9900    0.0000 C   0  0  0  0  0  0  0  0  0  0  0  0
    1.1519   -4.6450    0.0000 C   0  0  0  0  0  0  0  0  0  0  0  0
    3.4419   -1.9880    0.0000 C   0  0  0  0  0  0  0  0  0  0  0  0
    3.4419   -0.6549    0.0000 C   0  0  0  0  0  0  0  0  0  0  0  0
    4.5985    0.0000    0.0000 C   0  0  0  0  0  0  0  0  0  0  0  0
  1  2  1  0  0  0  0
  1  3  2  0  0  0  0
  1  4  1  0  0  0  0
  3  6  1  0  0  0  0
  3  8  1  0  0  0  0
  4  5  2  0  0  0  0
  5  7  1  0  0  0  0
  6  7  2  0  0  0  0
  8  9  1  0  0  0  0
  9 10  1  0  0  0  0
M  END
> <ID>
12821

> <Formula>
C9H12O

> <FW>
136.191

> <DSSTox_CID>
27700

> <DSSTox_RID>
82508

> <DSSTox_GSID>
47702

> <DSSTox_FileID_Sort>
7189

> <TS_ChemName>
2-Propylphenol

> <TS_ChemName_Synonyms>


> <TS_CASRN>
644-35-9

> <CASRN_ChemName_Relationship>
primary

> <TS_Description>
single chemical compound

> <ChemNote>


> <STRUCTURE_Shown>
tested chemical

> <STRUCTURE_Formula>
C9H12O

> <STRUCTURE_MW>
136.191

> <STRUCTURE_ChemType>
defined organic

> <STRUCTURE_DefinedOrganicForm>
parent

> <STRUCTURE_IUPAC>
2-propylphenol

> <STRUCTURE_SMILES>
Oc1ccccc1CCC

> <STRUCTURE_SMILES_Desalt>
Oc1ccccc1CCC

> <Substance_modify_yyyymmdd>
20101215

$$$$
