644-97-3
ChemmineR-0915142007XD

  9  9  0  0  0  0  0  0  0  0  1 V2000
    3.9880   -1.1560    0.0000 P    0  0  0  0  0  0  0  0  0  0  0  0
    4.6426   -2.3074    0.0000 Cl   0  0  0  0  0  0  0  0  0  0  0  0
    4.6426    0.0000    0.0000 Cl   0  0  0  0  0  0  0  0  0  0  0  0
    2.6556   -1.1560    0.0000 C    0  0  0  0  0  0  0  0  0  0  0  0
    1.9870   -2.3074    0.0000 C    0  0  0  0  0  0  0  0  0  0  0  0
    1.9870    0.0000    0.0000 C    0  0  0  0  0  0  0  0  0  0  0  0
    0.6546   -2.3074    0.0000 C    0  0  0  0  0  0  0  0  0  0  0  0
    0.6546    0.0000    0.0000 C    0  0  0  0  0  0  0  0  0  0  0  0
    0.0000   -1.1560    0.0000 C    0  0  0  0  0  0  0  0  0  0  0  0
  1  2  1  0  0  0  0
  1  3  1  0  0  0  0
  1  4  1  0  0  0  0
  4  5  2  0  0  0  0
  4  6  1  0  0  0  0
  5  7  1  0  0  0  0
  6  8  2  0  0  0  0
  7  9  2  0  0  0  0
  8  9  1  0  0  0  0
M  END
> <ID>
5046

> <Formula>
C6H5Cl2P

> <FW>
178.9837

> <DSSTox_CID>
7282

> <DSSTox_RID>
78385

> <DSSTox_GSID>
27282

> <DSSTox_FileID_Sort>
3068

> <TS_ChemName>
Phenyl phosphorus dichloride

> <TS_ChemName_Synonyms>
Phosphonous dichloride, phenyl-

> <TS_CASRN>
644-97-3

> <CASRN_ChemName_Relationship>
primary

> <TS_Description>
single chemical compound

> <ChemNote>


> <STRUCTURE_Shown>
tested chemical

> <STRUCTURE_Formula>
C6H5Cl2P

> <STRUCTURE_MW>
178.9837

> <STRUCTURE_ChemType>
defined organic

> <STRUCTURE_DefinedOrganicForm>
parent

> <STRUCTURE_IUPAC>
phenylphosphonous dichloride

> <STRUCTURE_SMILES>
ClP(Cl)c1ccccc1

> <STRUCTURE_SMILES_Desalt>
ClP(Cl)c1ccccc1

> <Substance_modify_yyyymmdd>
20080429

$$$$
