644-08-6
ChemmineR-0915142007XD

 13 14  0  0  0  0  0  0  0  0  1 V2000
    4.6554    0.0000    0.0000 C   0  0  0  0  0  0  0  0  0  0  0  0
    4.0006   -1.1579    0.0000 C   0  0  0  0  0  0  0  0  0  0  0  0
    4.6714   -2.3077    0.0000 C   0  0  0  0  0  0  0  0  0  0  0  0
    5.9889   -2.3077    0.0000 C   0  0  0  0  0  0  0  0  0  0  0  0
    6.6597   -1.1099    0.0000 C   0  0  0  0  0  0  0  0  0  0  0  0
    5.9809    0.0000    0.0000 C   0  0  0  0  0  0  0  0  0  0  0  0
    7.9852   -1.1099    0.0000 C   0  0  0  0  0  0  0  0  0  0  0  0
    0.6548   -0.0160    0.0000 C   0  0  0  0  0  0  0  0  0  0  0  0
    0.0000   -1.1738    0.0000 C   0  0  0  0  0  0  0  0  0  0  0  0
    0.6548   -2.3237    0.0000 C   0  0  0  0  0  0  0  0  0  0  0  0
    1.9724   -2.3237    0.0000 C   0  0  0  0  0  0  0  0  0  0  0  0
    2.6751   -1.1579    0.0000 C   0  0  0  0  0  0  0  0  0  0  0  0
    1.9724   -0.0160    0.0000 C   0  0  0  0  0  0  0  0  0  0  0  0
  1  6  2  0  0  0  0
  1  2  1  0  0  0  0
  2  3  2  0  0  0  0
  2 12  1  0  0  0  0
  3  4  1  0  0  0  0
  4  5  2  0  0  0  0
  5  6  1  0  0  0  0
  5  7  1  0  0  0  0
  8 13  2  0  0  0  0
  8  9  1  0  0  0  0
  9 10  2  0  0  0  0
 10 11  1  0  0  0  0
 11 12  2  0  0  0  0
 12 13  1  0  0  0  0
M  END
> <ID>
12324

> <Formula>
C13H12

> <FW>
168.2344

> <DSSTox_CID>
27177

> <DSSTox_RID>
82174

> <DSSTox_GSID>
47177

> <DSSTox_FileID_Sort>
6855

> <TS_ChemName>
4-Phenyltoluene

> <TS_ChemName_Synonyms>


> <TS_CASRN>
644-08-6

> <CASRN_ChemName_Relationship>
primary

> <TS_Description>
single chemical compound

> <ChemNote>


> <STRUCTURE_Shown>
tested chemical

> <STRUCTURE_Formula>
C13H12

> <STRUCTURE_MW>
168.2344

> <STRUCTURE_ChemType>
defined organic

> <STRUCTURE_DefinedOrganicForm>
parent

> <STRUCTURE_IUPAC>
4-methylbiphenyl

> <STRUCTURE_SMILES>
Cc1ccc(cc1)c2ccccc2

> <STRUCTURE_SMILES_Desalt>
Cc1ccc(cc1)c2ccccc2

> <Substance_modify_yyyymmdd>
20100503

$$$$
