64486-18-6
ChemmineR-0915142007XD

 17 17  0  0  0  0  0  0  0  0  1 V2000
    3.6706   -7.2685    0.0000 C    0  0  0  0  0  0  0  0  0  0  0  0
    4.5646   -6.2800    0.0000 O    0  0  0  0  0  0  0  0  0  0  0  0
    4.1503   -5.0153    0.0000 N    0  0  0  0  0  0  0  0  0  0  0  0
    5.0443   -4.0268    0.0000 C    0  0  0  0  0  0  0  0  0  0  0  0
    6.3454   -4.3030    0.0000 C    0  0  0  0  0  0  0  0  0  0  0  0
    6.7524   -5.5677    0.0000 O    0  0  0  0  0  0  0  0  0  0  0  0
    7.2322   -3.3144    0.0000 O    0  0  0  0  0  0  0  0  0  0  0  0
    4.6300   -2.7620    0.0000 C    0  0  0  0  0  0  0  0  0  0  0  0
    5.4078   -1.6863    0.0000 C    0  0  0  0  0  0  0  0  0  0  0  0
    4.6300   -0.6106    0.0000 S    0  0  0  0  0  0  0  0  0  0  0  0
    3.3653   -1.0249    0.0000 C    0  0  0  0  0  0  0  0  0  0  0  0
    3.3653   -2.3550    0.0000 N    0  0  0  0  0  0  0  0  0  0  0  0
    2.2896   -0.2399    0.0000 N    0  0  0  0  0  0  0  0  0  0  0  0
    1.0757   -0.7850    0.0000 C    0  0  0  0  0  0  0  0  0  0  0  0
    0.0000    0.0000    0.0000 O    0  0  0  0  0  0  0  0  0  0  0  0
    0.9376   -2.1079    0.0000 C    0  0  0  0  0  0  0  0  0  0  0  0
    2.0134   -2.8856    0.0000 Cl   0  0  0  0  0  0  0  0  0  0  0  0
  1  2  1  0  0  0  0
  2  3  1  0  0  0  0
  3  4  2  0  0  0  0
  4  5  1  0  0  0  0
  4  8  1  0  0  0  0
  5  6  1  0  0  0  0
  5  7  2  0  0  0  0
  8  9  2  0  0  0  0
  8 12  1  0  0  0  0
  9 10  1  0  0  0  0
 10 11  1  0  0  0  0
 11 12  2  0  0  0  0
 11 13  1  0  0  0  0
 13 14  1  0  0  0  0
 14 15  2  0  0  0  0
 14 16  1  0  0  0  0
 16 17  1  0  0  0  0
M  END
> <ID>
16190

> <Formula>
C8H8ClN3O4S

> <FW>
277.6848

> <DSSTox_CID>
31580

> <DSSTox_RID>
97465

> <DSSTox_GSID>
57791

> <DSSTox_FileID_Sort>
8532

> <TS_ChemName>
4-Thiazoleacetic acid, 2-[(chloroacetyl)amino]-.-(methoxyimino)-, (Z)-

> <TS_ChemName_Synonyms>


> <TS_CASRN>
64486-18-6

> <CASRN_ChemName_Relationship>
primary

> <TS_Description>
single chemical compound

> <ChemNote>


> <STRUCTURE_Shown>
tested chemical

> <STRUCTURE_Formula>
C8H8ClN3O4S

> <STRUCTURE_MW>
277.6848

> <STRUCTURE_ChemType>
defined organic

> <STRUCTURE_DefinedOrganicForm>
parent

> <STRUCTURE_IUPAC>
(2Z)-{2-[(chloroacetyl)amino]-1,3-thiazol-4-yl}(methoxyimino)acetic acid

> <STRUCTURE_SMILES>
O=C(Nc1nc(cs1)\C(=N\OC)C(=O)O)CCl

> <STRUCTURE_SMILES_Desalt>
O=C(Nc1nc(cs1)\C(=N\OC)C(=O)O)CCl

> <Substance_modify_yyyymmdd>
20131018

$$$$
