64485-93-4
ChemmineR-0915142007XD

 33 34  0  0  1  0  0  0  0  0  2 V2000
    7.4303   -4.8527    0.0000 N    0  0  0  0  0  0  0  0  0  0  0  0
    6.0757   -4.8527    0.0000 C    0  0  0  0  0  0  0  0  0  0  0  0
    6.0757   -3.4850    0.0000 C    0  0  0  0  0  0  0  0  0  0  0  0
    7.4303   -3.4850    0.0000 C    0  0  0  0  0  0  0  0  0  0  0  0
    8.5481   -5.5102    0.0000 C    0  0  0  0  0  0  0  0  0  0  0  0
    1.9989   -3.4324    0.0000 C    0  0  0  0  0  0  0  0  0  0  0  0
    2.6565   -2.3014    0.0000 C    0  0  0  0  0  0  0  0  0  0  0  0
    2.4066   -4.7080    0.0000 N    0  0  0  0  0  0  0  0  0  0  0  0
    4.6686   -3.4587    0.0000 N    0  0  0  0  0  0  0  0  0  0  0  0
    3.9716   -2.3014    0.0000 C    0  0  0  0  0  0  0  0  0  0  0  0
    8.5481   -2.8537    0.0000 S    0  0  0  0  0  0  0  0  0  0  0  0
    9.7054   -4.8527    0.0000 C    0  0  0  0  0  0  0  0  0  0  0  0
    1.3151   -5.4971    0.0000 C    0  0  0  0  0  0  0  0  0  0  0  0
    0.6575   -3.4324    0.0000 C    0  0  0  0  0  0  0  0  0  0  0  0
    0.2630   -4.7080    0.0000 S    0  0  0  0  0  0  0  0  0  0  0  0
    8.5481   -6.8253    0.0000 C    0  0  0  0  0  0  0  0  0  0  0  0
    9.7054   -3.4850    0.0000 C    0  0  0  0  0  0  0  0  0  0  0  0
    1.9989   -1.1441    0.0000 N    0  0  0  0  0  0  0  0  0  0  0  0
    5.1289   -5.7996    0.0000 O    0  0  0  0  0  0  0  0  0  0  0  0
   10.8627   -5.5102    0.0000 C    0  0  0  0  0  0  0  0  0  0  0  0
   12.0068   -7.4960    0.0000 C    0  0  0  0  0  0  0  0  0  0  0  0
    4.6686   -1.1441    0.0000 O    0  0  0  0  0  0  0  0  0  0  0  0
    9.7054   -7.4960    0.0000 O    0  0  0  0  0  0  0  0  0  0  0  0
   10.8627   -6.8253    0.0000 O    0  0  0  0  0  0  0  0  0  0  0  0
   12.0068   -8.8374    0.0000 O    0  0  0  0  0  0  0  0  0  0  0  0
    1.3151   -6.8253    0.0000 N    0  0  0  0  0  0  0  0  0  0  0  0
    7.4303   -7.4960    0.0000 O    0  5  0  0  0  0  0  0  0  0  0  0
    0.6575   -1.1441    0.0000 O    0  0  0  0  0  0  0  0  0  0  0  0
   13.1509   -6.8253    0.0000 C    0  0  0  0  0  0  0  0  0  0  0  0
    0.0000    0.0000    0.0000 C    0  0  0  0  0  0  0  0  0  0  0  0
    7.4303   -2.2357    0.0000 H    0  0  0  0  0  0  0  0  0  0  0  0
    6.0757   -2.2225    0.0000 H    0  0  0  0  0  0  0  0  0  0  0  0
    8.0878   -8.8637    0.0000 Na   0  3  0  0  0  0  0  0  0  0  0  0
  1  2  1  0  0  0  0
  1  4  1  0  0  0  0
  1  5  1  0  0  0  0
  2 19  2  0  0  0  0
  2  3  1  0  0  0  0
  3  4  1  0  0  0  0
  3  9  1  1  0  0  0
  3 32  1  6  0  0  0
  4 11  1  0  0  0  0
  4 31  1  6  0  0  0
  5 12  2  0  0  0  0
  5 16  1  0  0  0  0
  6  7  1  0  0  0  0
  6  8  1  0  0  0  0
  6 14  2  0  0  0  0
  7 10  1  0  0  0  0
  7 18  2  0  0  0  0
  8 13  2  0  0  0  0
  9 10  1  0  0  0  0
 10 22  2  0  0  0  0
 11 17  1  0  0  0  0
 12 17  1  0  0  0  0
 12 20  1  0  0  0  0
 13 26  1  0  0  0  0
 13 15  1  0  0  0  0
 14 15  1  0  0  0  0
 16 23  2  0  0  0  0
 16 27  1  0  0  0  0
 18 28  1  0  0  0  0
 20 24  1  0  0  0  0
 21 24  1  0  0  0  0
 21 25  2  0  0  0  0
 21 29  1  0  0  0  0
 28 30  1  0  0  0  0
M  END
> <ID>
12147

> <Formula>
C16H16N5NaO7S2

> <FW>
477.4473 (454.4581+22.9892)

> <DSSTox_CID>
26991

> <DSSTox_RID>
82039

> <DSSTox_GSID>
46991

> <DSSTox_FileID_Sort>
6720

> <TS_ChemName>
Cefotaxime sodium

> <TS_ChemName_Synonyms>
Cefotaxine sodium salt

> <TS_CASRN>
64485-93-4

> <CASRN_ChemName_Relationship>
primary

> <TS_Description>
single chemical compound

> <ChemNote>
stereochem; parent [63527-52-6]

> <STRUCTURE_Shown>
tested chemical

> <STRUCTURE_Formula>
C16H16N5NaO7S2

> <STRUCTURE_MW>
477.4473

> <STRUCTURE_ChemType>
defined organic

> <STRUCTURE_DefinedOrganicForm>
salt

> <STRUCTURE_IUPAC>
sodium (6R,7R)-3-[(acetyloxy)methyl]-7-{[(2E)-2-(2-amino-1,3-thiazol-4-yl)-2-(methoxyimino)acetyl]amino}-8-oxo-5-thia-1-azabicyclo[4.2.0]oct-2-ene-2-carboxylate

> <STRUCTURE_SMILES>
[Na+].Nc1scc(n1)/C(=N\OC)C(=O)N[C@@H]3C(=O)N2C(=C(COC(C)=O)CS[C@@H]23)C([O-])=O

> <STRUCTURE_SMILES_Desalt>
Nc1scc(n1)/C(=N\OC)C(=O)N[C@@H]3C(=O)N2C(=C(COC(C)=O)CS[C@@H]23)C(=O)O

> <Substance_modify_yyyymmdd>
20100316

$$$$
