64490-92-2
ChemmineR-0915142007XD

 22 20  0  0  0  0  0  0  0  0  2 V2000
    6.7892   -6.1033    0.0000 O    0  0  0  0  0  0  0  0  0  0  0  0
    4.2549   -5.9406    0.0000 O    0  0  0  0  0  0  0  0  0  0  0  0
   11.6254   -4.3363    0.0000 Na   0  3  0  0  0  0  0  0  0  0  0  0
    7.2542   -0.1511    0.0000 C    0  0  0  0  0  0  0  0  0  0  0  0
    6.9636   -1.4415    0.0000 N    0  0  0  0  0  0  0  0  0  0  0  0
    7.8587   -2.4413    0.0000 C    0  0  0  0  0  0  0  0  0  0  0  0
    7.1845   -3.5922    0.0000 C    0  0  0  0  0  0  0  0  0  0  0  0
    5.8941   -3.3132    0.0000 C    0  0  0  0  0  0  0  0  0  0  0  0
    5.7429   -1.9879    0.0000 C    0  0  0  0  0  0  0  0  0  0  0  0
    4.5920   -1.3137    0.0000 C    0  0  0  0  0  0  0  0  0  0  0  0
    4.5920    0.0000    0.0000 O    0  0  0  0  0  0  0  0  0  0  0  0
    3.4644   -1.9879    0.0000 C    0  0  0  0  0  0  0  0  0  0  0  0
    3.4644   -3.3132    0.0000 C    0  0  0  0  0  0  0  0  0  0  0  0
    2.3018   -3.9759    0.0000 C    0  0  0  0  0  0  0  0  0  0  0  0
    1.1509   -3.3132    0.0000 C    0  0  0  0  0  0  0  0  0  0  0  0
    0.0000   -3.9759    0.0000 C    0  0  0  0  0  0  0  0  0  0  0  0
    1.1509   -1.9879    0.0000 C    0  0  0  0  0  0  0  0  0  0  0  0
    2.3018   -1.3137    0.0000 C    0  0  0  0  0  0  0  0  0  0  0  0
    9.1724   -2.2902    0.0000 C    0  0  0  0  0  0  0  0  0  0  0  0
    9.9746   -3.3597    0.0000 C    0  0  0  0  0  0  0  0  0  0  0  0
   11.2766   -3.1737    0.0000 O    0  5  0  0  0  0  0  0  0  0  0  0
    9.4747   -4.6153    0.0000 O    0  0  0  0  0  0  0  0  0  0  0  0
  4  5  1  0  0  0  0
  5  6  1  0  0  0  0
  5  9  1  0  0  0  0
  6  7  2  0  0  0  0
  6 19  1  0  0  0  0
  7  8  1  0  0  0  0
  8  9  2  0  0  0  0
  9 10  1  0  0  0  0
 10 11  2  0  0  0  0
 10 12  1  0  0  0  0
 12 13  2  0  0  0  0
 12 18  1  0  0  0  0
 13 14  1  0  0  0  0
 14 15  2  0  0  0  0
 15 16  1  0  0  0  0
 15 17  1  0  0  0  0
 17 18  2  0  0  0  0
 19 20  1  0  0  0  0
 20 21  1  0  0  0  0
 20 22  2  0  0  0  0
M  END
> <ID>
11055

> <Formula>
C15H18NNaO5

> <FW>
315.2969 (18.0153+18.0153+22.9892+256.2771)

> <DSSTox_CID>
25594

> <DSSTox_RID>
80987

> <DSSTox_GSID>
45594

> <DSSTox_FileID_Sort>
5668

> <TS_ChemName>
Tolmetin sodium

> <TS_ChemName_Synonyms>
Tolmetin sodium salt dihydrate

> <TS_CASRN>
64490-92-2

> <CASRN_ChemName_Relationship>
primary

> <TS_Description>
single chemical compound

> <ChemNote>
parent [26171-23-3]

> <STRUCTURE_Shown>
tested chemical

> <STRUCTURE_Formula>
C15H18NNaO5

> <STRUCTURE_MW>
315.2969

> <STRUCTURE_ChemType>
defined organic

> <STRUCTURE_DefinedOrganicForm>
salt complex

> <STRUCTURE_IUPAC>
sodium [1-methyl-5-(4-methylbenzoyl)-1H-pyrrol-2-yl]acetate hydrate (1:1:2)

> <STRUCTURE_SMILES>
[Na+].O.O.O=C([O-])Cc2ccc(C(=O)c1ccc(C)cc1)n2C

> <STRUCTURE_SMILES_Desalt>
OC(=O)Cc2ccc(C(=O)c1ccc(C)cc1)n2C

> <Substance_modify_yyyymmdd>
20110615

$$$$
