645-09-0
ChemmineR-0915142007XD

 12 12  0  0  0  0  0  0  0  0  2 V2000
    1.1537   -2.6597    0.0000 C   0  0  0  0  0  0  0  0  0  0  0  0
    0.0000   -1.9896    0.0000 N   0  0  0  0  0  0  0  0  0  0  0  0
    1.1537   -3.9861    0.0000 O   0  0  0  0  0  0  0  0  0  0  0  0
    2.3004   -1.9896    0.0000 C   0  0  0  0  0  0  0  0  0  0  0  0
    2.3004   -0.6632    0.0000 C   0  0  0  0  0  0  0  0  0  0  0  0
    3.4541    0.0000    0.0000 C   0  0  0  0  0  0  0  0  0  0  0  0
    4.6078   -0.6632    0.0000 C   0  0  0  0  0  0  0  0  0  0  0  0
    4.6078   -1.9896    0.0000 C   0  0  0  0  0  0  0  0  0  0  0  0
    3.4541   -2.6597    0.0000 C   0  0  0  0  0  0  0  0  0  0  0  0
    5.7546   -2.6597    0.0000 N   0  3  0  0  0  0  0  0  0  0  0  0
    5.7546   -3.9861    0.0000 O   0  0  0  0  0  0  0  0  0  0  0  0
    6.9082   -1.9896    0.0000 O   0  5  0  0  0  0  0  0  0  0  0  0
  1  2  1  0  0  0  0
  1  3  2  0  0  0  0
  1  4  1  0  0  0  0
  4  5  2  0  0  0  0
  4  9  1  0  0  0  0
  5  6  1  0  0  0  0
  6  7  2  0  0  0  0
  7  8  1  0  0  0  0
  8  9  2  0  0  0  0
  8 10  1  0  0  0  0
 10 11  2  0  0  0  0
 10 12  1  0  0  0  0
M  END
> <ID>
4372

> <Formula>
C7H6N2O3

> <FW>
166.1341

> <DSSTox_CID>
5732

> <DSSTox_RID>
77897

> <DSSTox_GSID>
25732

> <DSSTox_FileID_Sort>
2580

> <TS_ChemName>
3-Nitrobenzamide

> <TS_ChemName_Synonyms>
3-Nitrobenzamide (m-Nitrobenzamide)

> <TS_CASRN>
645-09-0

> <CASRN_ChemName_Relationship>
primary

> <TS_Description>
single chemical compound

> <ChemNote>


> <STRUCTURE_Shown>
tested chemical

> <STRUCTURE_Formula>
C7H6N2O3

> <STRUCTURE_MW>
166.1341

> <STRUCTURE_ChemType>
defined organic

> <STRUCTURE_DefinedOrganicForm>
parent

> <STRUCTURE_IUPAC>
3-nitrobenzamide

> <STRUCTURE_SMILES>
O=[N+]([O-])c1cc(ccc1)C(N)=O

> <STRUCTURE_SMILES_Desalt>
O=[N+]([O-])c1cc(ccc1)C(N)=O

> <Substance_modify_yyyymmdd>
20080429

$$$$
