645-00-1
ChemmineR-0915142007XD

 10 10  0  0  0  0  0  0  0  0  2 V2000
    4.6545    0.0000    0.0000 I   0  0  0  0  0  0  0  0  0  0  0  0
    3.9889   -1.1497    0.0000 C   0  0  0  0  0  0  0  0  0  0  0  0
    4.6545   -2.3040    0.0000 C   0  0  0  0  0  0  0  0  0  0  0  0
    3.9889   -3.4536    0.0000 C   0  0  0  0  0  0  0  0  0  0  0  0
    2.6577   -3.4536    0.0000 C   0  0  0  0  0  0  0  0  0  0  0  0
    1.9968   -2.3040    0.0000 C   0  0  0  0  0  0  0  0  0  0  0  0
    2.6577   -1.1497    0.0000 C   0  0  0  0  0  0  0  0  0  0  0  0
    0.6656   -2.3040    0.0000 N   0  3  0  0  0  0  0  0  0  0  0  0
    0.0000   -3.4536    0.0000 O   0  5  0  0  0  0  0  0  0  0  0  0
    0.0000   -1.1497    0.0000 O   0  0  0  0  0  0  0  0  0  0  0  0
  1  2  1  0  0  0  0
  2  3  2  0  0  0  0
  2  7  1  0  0  0  0
  3  4  1  0  0  0  0
  4  5  2  0  0  0  0
  5  6  1  0  0  0  0
  6  7  2  0  0  0  0
  6  8  1  0  0  0  0
  8  9  1  0  0  0  0
  8 10  2  0  0  0  0
M  END
> <ID>
4203

> <Formula>
C6H4INO2

> <FW>
249.0059

> <DSSTox_CID>
5449

> <DSSTox_RID>
77790

> <DSSTox_GSID>
25449

> <DSSTox_FileID_Sort>
2473

> <TS_ChemName>
1-Iodo-3-nitrobenzene

> <TS_ChemName_Synonyms>


> <TS_CASRN>
645-00-1

> <CASRN_ChemName_Relationship>
primary

> <TS_Description>
single chemical compound

> <ChemNote>


> <STRUCTURE_Shown>
tested chemical

> <STRUCTURE_Formula>
C6H4INO2

> <STRUCTURE_MW>
249.0059

> <STRUCTURE_ChemType>
defined organic

> <STRUCTURE_DefinedOrganicForm>
parent

> <STRUCTURE_IUPAC>
1-iodo-3-nitrobenzene

> <STRUCTURE_SMILES>
Ic1cccc(c1)[N+](=O)[O-]

> <STRUCTURE_SMILES_Desalt>
Ic1cccc(c1)[N+](=O)[O-]

> <Substance_modify_yyyymmdd>
20080429

$$$$
