645-56-7
ChemmineR-0915142007XD

 10 10  0  0  0  0  0  0  0  0  1 V2000
    7.3120   -1.1553    0.0000 O   0  0  0  0  0  0  0  0  0  0  0  0
    5.9812   -1.1553    0.0000 C   0  0  0  0  0  0  0  0  0  0  0  0
    5.3158   -2.3033    0.0000 C   0  0  0  0  0  0  0  0  0  0  0  0
    3.9850   -2.3033    0.0000 C   0  0  0  0  0  0  0  0  0  0  0  0
    3.3270   -1.1553    0.0000 C   0  0  0  0  0  0  0  0  0  0  0  0
    1.9962   -1.1553    0.0000 C   0  0  0  0  0  0  0  0  0  0  0  0
    1.3308    0.0000    0.0000 C   0  0  0  0  0  0  0  0  0  0  0  0
    0.0000    0.0000    0.0000 C   0  0  0  0  0  0  0  0  0  0  0  0
    3.9850    0.0000    0.0000 C   0  0  0  0  0  0  0  0  0  0  0  0
    5.3158    0.0000    0.0000 C   0  0  0  0  0  0  0  0  0  0  0  0
  1  2  1  0  0  0  0
  2  3  2  0  0  0  0
  2 10  1  0  0  0  0
  3  4  1  0  0  0  0
  4  5  2  0  0  0  0
  5  6  1  0  0  0  0
  5  9  1  0  0  0  0
  6  7  1  0  0  0  0
  7  8  1  0  0  0  0
  9 10  2  0  0  0  0
M  END
> <ID>
1943

> <Formula>
C9H12O

> <FW>
136.191

> <DSSTox_CID>
2100

> <DSSTox_RID>
76488

> <DSSTox_GSID>
22100

> <DSSTox_FileID_Sort>
1172

> <TS_ChemName>
4-Propylphenol

> <TS_ChemName_Synonyms>


> <TS_CASRN>
645-56-7

> <CASRN_ChemName_Relationship>
primary

> <TS_Description>
single chemical compound

> <ChemNote>


> <STRUCTURE_Shown>
tested chemical

> <STRUCTURE_Formula>
C9H12O

> <STRUCTURE_MW>
136.191

> <STRUCTURE_ChemType>
defined organic

> <STRUCTURE_DefinedOrganicForm>
parent

> <STRUCTURE_IUPAC>
4-propylphenol

> <STRUCTURE_SMILES>
Oc1ccc(CCC)cc1

> <STRUCTURE_SMILES_Desalt>
Oc1ccc(CCC)cc1

> <Substance_modify_yyyymmdd>
20080429

$$$$
