64506-49-6
ChemmineR-0915142007XD

 33 34  0  0  0  0  0  0  0  0  1 V2000
   18.4192   -5.3231    0.0000 C   0  0  0  0  0  0  0  0  0  0  0  0
   17.2588   -5.9862    0.0000 C   0  0  0  0  0  0  0  0  0  0  0  0
   17.2588   -7.3124    0.0000 C   0  0  0  0  0  0  0  0  0  0  0  0
   16.1168   -5.3231    0.0000 C   0  0  0  0  0  0  0  0  0  0  0  0
   16.1168   -3.9970    0.0000 C   0  0  0  0  0  0  0  0  0  0  0  0
   14.9748   -3.3155    0.0000 O   0  0  0  0  0  0  0  0  0  0  0  0
   13.8144   -3.9970    0.0000 C   0  0  0  0  0  0  0  0  0  0  0  0
   13.8144   -5.3231    0.0000 C   0  0  0  0  0  0  0  0  0  0  0  0
   12.6540   -5.9862    0.0000 C   0  0  0  0  0  0  0  0  0  0  0  0
   11.5120   -5.3231    0.0000 C   0  0  0  0  0  0  0  0  0  0  0  0
   10.3516   -5.9862    0.0000 C   0  0  0  0  0  0  0  0  0  0  0  0
    9.2096   -5.3231    0.0000 C   0  0  0  0  0  0  0  0  0  0  0  0
    8.0492   -5.9862    0.0000 C   0  0  0  0  0  0  0  0  0  0  0  0
    8.0492   -7.3124    0.0000 O   0  0  0  0  0  0  0  0  0  0  0  0
    6.9256   -5.3231    0.0000 C   0  0  0  0  0  0  0  0  0  0  0  0
    5.7652   -5.9862    0.0000 C   0  0  0  0  0  0  0  0  0  0  0  0
    4.6048   -5.3231    0.0000 C   0  0  0  0  0  0  0  0  0  0  0  0
    4.6048   -3.9970    0.0000 C   0  0  0  0  0  0  0  0  0  0  0  0
    3.4444   -3.3155    0.0000 O   0  0  0  0  0  0  0  0  0  0  0  0
    2.3024   -3.9970    0.0000 C   0  0  0  0  0  0  0  0  0  0  0  0
    2.3024   -5.3231    0.0000 C   0  0  0  0  0  0  0  0  0  0  0  0
    1.1604   -5.9862    0.0000 C   0  0  0  0  0  0  0  0  0  0  0  0
    1.1604   -7.3124    0.0000 C   0  0  0  0  0  0  0  0  0  0  0  0
    0.0000   -5.3231    0.0000 C   0  0  0  0  0  0  0  0  0  0  0  0
    5.7652   -3.3155    0.0000 C   0  0  0  0  0  0  0  0  0  0  0  0
    6.9256   -3.9970    0.0000 C   0  0  0  0  0  0  0  0  0  0  0  0
    8.0492   -3.3155    0.0000 O   0  0  0  0  0  0  0  0  0  0  0  0
    8.0492   -1.9893    0.0000 C   0  0  0  0  0  0  0  0  0  0  0  0
    9.2096   -1.3446    0.0000 C   0  0  0  0  0  0  0  0  0  0  0  0
   10.3516   -1.9893    0.0000 O   0  0  0  0  0  0  0  0  0  0  0  0
    9.2096    0.0000    0.0000 O   0  0  0  0  0  0  0  0  0  0  0  0
   11.5120   -3.9970    0.0000 C   0  0  0  0  0  0  0  0  0  0  0  0
   12.6540   -3.3155    0.0000 C   0  0  0  0  0  0  0  0  0  0  0  0
  1  2  1  0  0  0  0
  2  3  1  0  0  0  0
  2  4  2  0  0  0  0
  4  5  1  0  0  0  0
  5  6  1  0  0  0  0
  6  7  1  0  0  0  0
  7  8  2  0  0  0  0
  7 33  1  0  0  0  0
  8  9  1  0  0  0  0
  9 10  2  0  0  0  0
 10 11  1  0  0  0  0
 10 32  1  0  0  0  0
 11 12  2  0  0  0  0
 12 13  1  0  0  0  0
 13 14  2  0  0  0  0
 13 15  1  0  0  0  0
 15 16  2  0  0  0  0
 15 26  1  0  0  0  0
 16 17  1  0  0  0  0
 17 18  2  0  0  0  0
 18 19  1  0  0  0  0
 18 25  1  0  0  0  0
 19 20  1  0  0  0  0
 20 21  1  0  0  0  0
 21 22  2  0  0  0  0
 22 23  1  0  0  0  0
 22 24  1  0  0  0  0
 25 26  2  0  0  0  0
 26 27  1  0  0  0  0
 27 28  1  0  0  0  0
 28 29  1  0  0  0  0
 29 30  1  0  0  0  0
 29 31  2  0  0  0  0
 32 33  2  0  0  0  0
M  END
> <ID>
3206

> <Formula>
C27H30O6

> <FW>
450.5235

> <DSSTox_CID>
3586

> <DSSTox_RID>
77093

> <DSSTox_GSID>
23586

> <DSSTox_FileID_Sort>
1776

> <TS_ChemName>
Sofalcone

> <TS_ChemName_Synonyms>


> <TS_CASRN>
64506-49-6

> <CASRN_ChemName_Relationship>
primary

> <TS_Description>
single chemical compound

> <ChemNote>


> <STRUCTURE_Shown>
tested chemical

> <STRUCTURE_Formula>
C27H30O6

> <STRUCTURE_MW>
450.5235

> <STRUCTURE_ChemType>
defined organic

> <STRUCTURE_DefinedOrganicForm>
parent

> <STRUCTURE_IUPAC>
{5-[(3-methylbut-2-en-1-yl)oxy]-2-[(2E)-3-{4-[(3-methylbut-2-en-1-yl)oxy]phenyl}prop-2-enoyl]phenoxy}acetic acid

> <STRUCTURE_SMILES>
C/C(C)=C\COc1ccc(cc1)/C=C/C(=O)c2ccc(cc2OCC(=O)O)OC\C=C(/C)C

> <STRUCTURE_SMILES_Desalt>
C/C(C)=C\COc1ccc(cc1)/C=C/C(=O)c2ccc(cc2OCC(=O)O)OC\C=C(/C)C

> <Substance_modify_yyyymmdd>
20080429

$$$$
