64519-82-0
ChemmineR-0915142007XD

 23 23  0  0  1  0  0  0  0  0  1 V2000
    4.6305   -1.9885    0.0000 C   0  0  0  0  0  0  0  0  0  0  0  0
    4.6305   -3.3234    0.0000 C   0  0  0  0  0  0  0  0  0  0  0  0
    3.4902   -1.3071    0.0000 O   0  0  0  0  0  0  0  0  0  0  0  0
    3.4624   -3.9908    0.0000 C   0  0  0  0  0  0  0  0  0  0  0  0
    2.3083   -1.9745    0.0000 C   0  0  0  0  0  0  0  0  0  0  0  0
    2.3083   -3.3095    0.0000 C   0  0  0  0  0  0  0  0  0  0  0  0
    5.7846   -1.3210    0.0000 O   0  0  0  0  0  0  0  0  0  0  0  0
    5.7707   -4.0047    0.0000 O   0  0  0  0  0  0  0  0  0  0  0  0
    3.4485   -5.3257    0.0000 O   0  0  0  0  0  0  0  0  0  0  0  0
    1.1263   -3.9769    0.0000 O   0  0  0  0  0  0  0  0  0  0  0  0
    1.1680   -1.3071    0.0000 C   0  0  0  0  0  0  0  0  0  0  0  0
    0.0000   -1.9745    0.0000 O   0  0  0  0  0  0  0  0  0  0  0  0
   11.5970   -2.0302    0.0000 C   0  0  0  0  0  0  0  0  0  0  0  0
   10.4429   -1.3627    0.0000 C   0  0  0  0  0  0  0  0  0  0  0  0
    9.2609   -2.0163    0.0000 C   0  0  0  0  0  0  0  0  0  0  0  0
    8.1207   -1.3349    0.0000 C   0  0  0  0  0  0  0  0  0  0  0  0
    6.9526   -2.0024    0.0000 C   0  0  0  0  0  0  0  0  0  0  0  0
   12.7650   -1.3766    0.0000 C   0  0  0  0  0  0  0  0  0  0  0  0
   10.4429   -0.0139    0.0000 O   0  0  0  0  0  0  0  0  0  0  0  0
    9.2609   -3.3512    0.0000 O   0  0  0  0  0  0  0  0  0  0  0  0
    8.1207    0.0000    0.0000 O   0  0  0  0  0  0  0  0  0  0  0  0
   13.9053   -2.0441    0.0000 O   0  0  0  0  0  0  0  0  0  0  0  0
   11.6248   -3.1704    0.0000 O   0  0  0  0  0  0  0  0  0  0  0  0
  1  2  1  0  0  0  0
  1  3  1  0  0  0  0
  1  7  1  6  0  0  0
  2  4  1  0  0  0  0
  2  8  1  6  0  0  0
  3  5  1  0  0  0  0
  4  6  1  0  0  0  0
  4  9  1  1  0  0  0
  5  6  1  0  0  0  0
  5 11  1  1  0  0  0
  6 10  1  6  0  0  0
  7 17  1  0  0  0  0
 11 12  1  0  0  0  0
 13 14  1  0  0  0  0
 13 18  1  0  0  0  0
 13 23  1  1  0  0  0
 14 15  1  0  0  0  0
 14 19  1  6  0  0  0
 15 16  1  0  0  0  0
 15 20  1  6  0  0  0
 16 17  1  0  0  0  0
 16 21  1  1  0  0  0
 18 22  1  0  0  0  0
M  END
> <ID>
723

> <Formula>
C12H24O11

> <FW>
344.3124

> <DSSTox_CID>
753

> <DSSTox_RID>
75770

> <DSSTox_GSID>
20753

> <DSSTox_FileID_Sort>
454

> <TS_ChemName>
Isomalt

> <TS_ChemName_Synonyms>


> <TS_CASRN>
64519-82-0

> <CASRN_ChemName_Relationship>
primary

> <TS_Description>
mixture or formulation

> <ChemNote>
1:1 mixture of 6-O-alpha-D-glucopyranosyl-D-glucitol and 6-O-alpha-D-glucopyranosyl-D-mannitol; structure shown glu-man

> <STRUCTURE_Shown>
representative component

> <STRUCTURE_Formula>
C12H24O11

> <STRUCTURE_MW>
344.3124

> <STRUCTURE_ChemType>
defined organic

> <STRUCTURE_DefinedOrganicForm>
parent

> <STRUCTURE_IUPAC>
1-O-alpha-D-glucopyranosyl-D-mannitol

> <STRUCTURE_SMILES>
OC[C@@H](O)[C@@H](O)[C@H](O)[C@H](O)CO[C@H]1O[C@H](CO)[C@@H](O)[C@H](O)[C@H]1O

> <STRUCTURE_SMILES_Desalt>
OC[C@@H](O)[C@@H](O)[C@H](O)[C@H](O)CO[C@H]1O[C@H](CO)[C@@H](O)[C@H](O)[C@H]1O

> <Substance_modify_yyyymmdd>
20110517

$$$$
