6459-94-5
ChemmineR-0915142007XD

 56 59  0  0  0  0  0  0  0  0  2 V2000
    5.8436   -6.7426    0.0000 N    0  0  0  0  0  0  0  0  0  0  0  0
    7.1657   -6.7426    0.0000 N    0  0  0  0  0  0  0  0  0  0  0  0
    8.5142   -6.7426    0.0000 C    0  0  0  0  0  0  0  0  0  0  0  0
    9.1488   -5.5792    0.0000 C    0  0  0  0  0  0  0  0  0  0  0  0
   10.4973   -5.5792    0.0000 C    0  0  0  0  0  0  0  0  0  0  0  0
   11.1583   -6.7426    0.0000 C    0  0  0  0  0  0  0  0  0  0  0  0
   10.4973   -7.8796    0.0000 C    0  0  0  0  0  0  0  0  0  0  0  0
    9.1488   -7.8796    0.0000 C    0  0  0  0  0  0  0  0  0  0  0  0
    8.5142   -9.0430    0.0000 C    0  0  0  0  0  0  0  0  0  0  0  0
   12.4804   -6.7426    0.0000 C    0  0  0  0  0  0  0  0  0  0  0  0
   13.1414   -5.5792    0.0000 C    0  0  0  0  0  0  0  0  0  0  0  0
   14.4900   -5.5792    0.0000 C    0  0  0  0  0  0  0  0  0  0  0  0
   15.1510   -6.7426    0.0000 C    0  0  0  0  0  0  0  0  0  0  0  0
   14.4900   -7.8796    0.0000 C    0  0  0  0  0  0  0  0  0  0  0  0
   13.1414   -7.8796    0.0000 C    0  0  0  0  0  0  0  0  0  0  0  0
   16.4731   -6.7426    0.0000 N    0  0  0  0  0  0  0  0  0  0  0  0
   17.8216   -6.7426    0.0000 N    0  0  0  0  0  0  0  0  0  0  0  0
   19.1437   -6.7426    0.0000 C    0  0  0  0  0  0  0  0  0  0  0  0
   19.8047   -5.5792    0.0000 C    0  0  0  0  0  0  0  0  0  0  0  0
   21.1268   -5.5792    0.0000 C    0  0  0  0  0  0  0  0  0  0  0  0
   21.7878   -6.7426    0.0000 C    0  0  0  0  0  0  0  0  0  0  0  0
   21.1268   -7.8796    0.0000 C    0  0  0  0  0  0  0  0  0  0  0  0
   19.8047   -7.8796    0.0000 C    0  0  0  0  0  0  0  0  0  0  0  0
   23.1363   -6.7426    0.0000 O    0  0  0  0  0  0  0  0  0  0  0  0
   23.7709   -5.5792    0.0000 S    0  0  0  0  0  0  0  0  0  0  0  0
   24.9343   -6.2666    0.0000 O    0  0  0  0  0  0  0  0  0  0  0  0
   22.6339   -4.9181    0.0000 O    0  0  0  0  0  0  0  0  0  0  0  0
   24.4584   -4.4422    0.0000 C    0  0  0  0  0  0  0  0  0  0  0  0
   23.7709   -3.2787    0.0000 C    0  0  0  0  0  0  0  0  0  0  0  0
   24.4584   -2.1418    0.0000 C    0  0  0  0  0  0  0  0  0  0  0  0
   25.7805   -2.1418    0.0000 C    0  0  0  0  0  0  0  0  0  0  0  0
   26.4415   -3.2787    0.0000 C    0  0  0  0  0  0  0  0  0  0  0  0
   25.7805   -4.4422    0.0000 C    0  0  0  0  0  0  0  0  0  0  0  0
   26.4415   -0.9783    0.0000 C    0  0  0  0  0  0  0  0  0  0  0  0
   15.1510   -4.4422    0.0000 C    0  0  0  0  0  0  0  0  0  0  0  0
    4.5215   -6.7426    0.0000 C    0  0  0  0  0  0  0  0  0  0  0  0
    3.8340   -7.8796    0.0000 C    0  0  0  0  0  0  0  0  0  0  0  0
    2.5119   -7.8796    0.0000 C    0  0  0  0  0  0  0  0  0  0  0  0
    1.8509   -6.7426    0.0000 C    0  0  0  0  0  0  0  0  0  0  0  0
    2.5119   -5.5792    0.0000 C    0  0  0  0  0  0  0  0  0  0  0  0
    1.8509   -4.4422    0.0000 C    0  0  0  0  0  0  0  0  0  0  0  0
    2.5119   -3.2787    0.0000 C    0  0  0  0  0  0  0  0  0  0  0  0
    3.8340   -3.2787    0.0000 C    0  0  0  0  0  0  0  0  0  0  0  0
    4.5215   -4.4422    0.0000 C    0  0  0  0  0  0  0  0  0  0  0  0
    3.8340   -5.5792    0.0000 C    0  0  0  0  0  0  0  0  0  0  0  0
    5.8436   -4.4422    0.0000 S    0  0  0  0  0  0  0  0  0  0  0  0
    5.8436   -3.0937    0.0000 O    0  0  0  0  0  0  0  0  0  0  0  0
    5.8436   -5.7643    0.0000 O    0  0  0  0  0  0  0  0  0  0  0  0
    7.1657   -4.4422    0.0000 O    0  5  0  0  0  0  0  0  0  0  0  0
    1.8509   -2.1418    0.0000 S    0  0  0  0  0  0  0  0  0  0  0  0
    3.0143   -1.4807    0.0000 O    0  0  0  0  0  0  0  0  0  0  0  0
    0.7139   -2.8028    0.0000 O    0  0  0  0  0  0  0  0  0  0  0  0
    1.1899   -0.9783    0.0000 O    0  5  0  0  0  0  0  0  0  0  0  0
    4.5215   -9.0430    0.0000 O    0  0  0  0  0  0  0  0  0  0  0  0
    0.0000    0.0000    0.0000 Na   0  3  0  0  0  0  0  0  0  0  0  0
    8.8050   -4.1513    0.0000 Na   0  3  0  0  0  0  0  0  0  0  0  0
  1  2  2  0  0  0  0
  1 36  1  0  0  0  0
  2  3  1  0  0  0  0
  3  4  2  0  0  0  0
  3  8  1  0  0  0  0
  4  5  1  0  0  0  0
  5  6  2  0  0  0  0
  6  7  1  0  0  0  0
  6 10  1  0  0  0  0
  7  8  2  0  0  0  0
  8  9  1  0  0  0  0
 10 11  2  0  0  0  0
 10 15  1  0  0  0  0
 11 12  1  0  0  0  0
 12 13  2  0  0  0  0
 12 35  1  0  0  0  0
 13 14  1  0  0  0  0
 13 16  1  0  0  0  0
 14 15  2  0  0  0  0
 16 17  2  0  0  0  0
 17 18  1  0  0  0  0
 18 19  2  0  0  0  0
 18 23  1  0  0  0  0
 19 20  1  0  0  0  0
 20 21  2  0  0  0  0
 21 22  1  0  0  0  0
 21 24  1  0  0  0  0
 22 23  2  0  0  0  0
 24 25  1  0  0  0  0
 25 26  2  0  0  0  0
 25 27  2  0  0  0  0
 25 28  1  0  0  0  0
 28 29  2  0  0  0  0
 28 33  1  0  0  0  0
 29 30  1  0  0  0  0
 30 31  2  0  0  0  0
 31 32  1  0  0  0  0
 31 34  1  0  0  0  0
 32 33  2  0  0  0  0
 36 37  2  0  0  0  0
 36 45  1  0  0  0  0
 37 38  1  0  0  0  0
 37 54  1  0  0  0  0
 38 39  2  0  0  0  0
 39 40  1  0  0  0  0
 40 41  2  0  0  0  0
 40 45  1  0  0  0  0
 41 42  1  0  0  0  0
 42 43  2  0  0  0  0
 42 50  1  0  0  0  0
 43 44  1  0  0  0  0
 44 45  2  0  0  0  0
 44 46  1  0  0  0  0
 46 47  2  0  0  0  0
 46 48  2  0  0  0  0
 46 49  1  0  0  0  0
 50 51  2  0  0  0  0
 50 52  2  0  0  0  0
 50 53  1  0  0  0  0
M  END
> <ID>
1177

> <Formula>
C37H28N4Na2O10S3

> <FW>
830.8136 (784.8351+22.9892+22.9892)

> <DSSTox_CID>
1224

> <DSSTox_RID>
76022

> <DSSTox_GSID>
21224

> <DSSTox_FileID_Sort>
706

> <TS_ChemName>
C.I. Acid Red 114

> <TS_ChemName_Synonyms>
C.I. Acid Red 114 (C.I. Acid Red 114, disodium salt)

> <TS_CASRN>
6459-94-5

> <CASRN_ChemName_Relationship>
primary

> <TS_Description>
single chemical compound

> <ChemNote>
C.I. 23635; parent [25317-45-7]

> <STRUCTURE_Shown>
tested chemical

> <STRUCTURE_Formula>
C37H28N4Na2O10S3

> <STRUCTURE_MW>
830.8136

> <STRUCTURE_ChemType>
defined organic

> <STRUCTURE_DefinedOrganicForm>
salt

> <STRUCTURE_IUPAC>
disodium 8-({3,3'-dimethyl-4'-[(4-{[(4-methylphenyl)sulfonyl]oxy}phenyl)diazenyl]biphenyl-4-yl}diazenyl)-7-hydroxynaphthalene-1,3-disulfonate

> <STRUCTURE_SMILES>
[Na+].[Na+].[O-]S(=O)(=O)c5cc(cc6ccc(O)c(/N=N/c1ccc(cc1C)c4ccc(/N=N/c3ccc(OS(=O)(=O)c2ccc(C)cc2)cc3)c(C)c4)c56)S([O-])(=O)=O

> <STRUCTURE_SMILES_Desalt>
O=S(=O)(O)c5cc(cc6ccc(O)c(/N=N/c1ccc(cc1C)c4ccc(/N=N/c3ccc(OS(=O)(=O)c2ccc(C)cc2)cc3)c(C)c4)c56)S(=O)(=O)O

> <Substance_modify_yyyymmdd>
20080429

$$$$
