646-06-0
ChemmineR-0915142007XD

  5  5  0  0  0  0  0  0  0  0  1 V2000
    0.0000   -0.7837    0.0000 O   0  0  0  0  0  0  0  0  0  0  0  0
    1.0736    0.0000    0.0000 C   0  0  0  0  0  0  0  0  0  0  0  0
    2.1472   -0.7837    0.0000 O   0  0  0  0  0  0  0  0  0  0  0  0
    1.7456   -2.0505    0.0000 C   0  0  0  0  0  0  0  0  0  0  0  0
    0.4166   -2.0505    0.0000 C   0  0  0  0  0  0  0  0  0  0  0  0
  1  2  1  0  0  0  0
  1  5  1  0  0  0  0
  2  3  1  0  0  0  0
  3  4  1  0  0  0  0
  4  5  1  0  0  0  0
M  END
> <ID>
5047

> <Formula>
C3H6O2

> <FW>
74.0785

> <DSSTox_CID>
7284

> <DSSTox_RID>
78386

> <DSSTox_GSID>
27284

> <DSSTox_FileID_Sort>
3069

> <TS_ChemName>
1,3-Dioxolane

> <TS_ChemName_Synonyms>


> <TS_CASRN>
646-06-0

> <CASRN_ChemName_Relationship>
primary

> <TS_Description>
single chemical compound

> <ChemNote>


> <STRUCTURE_Shown>
tested chemical

> <STRUCTURE_Formula>
C3H6O2

> <STRUCTURE_MW>
74.0785

> <STRUCTURE_ChemType>
defined organic

> <STRUCTURE_DefinedOrganicForm>
parent

> <STRUCTURE_IUPAC>
1,3-dioxolane

> <STRUCTURE_SMILES>
C1COCO1

> <STRUCTURE_SMILES_Desalt>
C1COCO1

> <Substance_modify_yyyymmdd>
20080429

$$$$
