64622-45-3
ChemmineR-0915142007XD

 22 23  0  0  0  0  0  0  0  0  1 V2000
    9.2103   -3.3319    0.0000 C   0  0  0  0  0  0  0  0  0  0  0  0
   10.3631   -3.9907    0.0000 C   0  0  0  0  0  0  0  0  0  0  0  0
   11.5160   -3.3319    0.0000 C   0  0  0  0  0  0  0  0  0  0  0  0
   12.6688   -3.9907    0.0000 C   0  0  0  0  0  0  0  0  0  0  0  0
   11.5160   -2.0017    0.0000 C   0  0  0  0  0  0  0  0  0  0  0  0
    8.0574   -3.9907    0.0000 C   0  0  0  0  0  0  0  0  0  0  0  0
    6.9045   -3.3319    0.0000 C   0  0  0  0  0  0  0  0  0  0  0  0
    6.9045   -2.0017    0.0000 C   0  0  0  0  0  0  0  0  0  0  0  0
    5.7643   -1.3302    0.0000 C   0  0  0  0  0  0  0  0  0  0  0  0
    5.7643    0.0000    0.0000 C   0  0  0  0  0  0  0  0  0  0  0  0
    4.6115   -2.0017    0.0000 C   0  0  0  0  0  0  0  0  0  0  0  0
    3.4586   -1.3302    0.0000 O   0  0  0  0  0  0  0  0  0  0  0  0
    4.6115   -3.3319    0.0000 O   0  0  0  0  0  0  0  0  0  0  0  0
    3.4586   -3.9907    0.0000 C   0  0  0  0  0  0  0  0  0  0  0  0
    2.3057   -3.3319    0.0000 C   0  0  0  0  0  0  0  0  0  0  0  0
    1.1529   -3.9907    0.0000 N   0  0  0  0  0  0  0  0  0  0  0  0
    0.0000   -3.3319    0.0000 C   0  0  0  0  0  0  0  0  0  0  0  0
    0.0000   -2.0017    0.0000 C   0  0  0  0  0  0  0  0  0  0  0  0
    1.1529   -1.3302    0.0000 C   0  0  0  0  0  0  0  0  0  0  0  0
    2.3057   -2.0017    0.0000 C   0  0  0  0  0  0  0  0  0  0  0  0
    8.0574   -1.3302    0.0000 C   0  0  0  0  0  0  0  0  0  0  0  0
    9.2103   -2.0017    0.0000 C   0  0  0  0  0  0  0  0  0  0  0  0
  1  2  1  0  0  0  0
  1  6  2  0  0  0  0
  1 22  1  0  0  0  0
  2  3  1  0  0  0  0
  3  4  1  0  0  0  0
  3  5  1  0  0  0  0
  6  7  1  0  0  0  0
  7  8  2  0  0  0  0
  8  9  1  0  0  0  0
  8 21  1  0  0  0  0
  9 10  1  0  0  0  0
  9 11  1  0  0  0  0
 11 12  2  0  0  0  0
 11 13  1  0  0  0  0
 13 14  1  0  0  0  0
 14 15  1  0  0  0  0
 15 16  2  0  0  0  0
 15 20  1  0  0  0  0
 16 17  1  0  0  0  0
 17 18  2  0  0  0  0
 18 19  1  0  0  0  0
 19 20  2  0  0  0  0
 21 22  2  0  0  0  0
M  END
> <ID>
2819

> <Formula>
C19H23NO2

> <FW>
297.3914

> <DSSTox_CID>
3140

> <DSSTox_RID>
97273

> <DSSTox_GSID>
23140

> <DSSTox_FileID_Sort>
8320

> <TS_ChemName>
Ibuprofen piconol

> <TS_ChemName_Synonyms>
Pimeprofen

> <TS_CASRN>
64622-45-3

> <CASRN_ChemName_Relationship>
primary

> <TS_Description>
single chemical compound

> <ChemNote>


> <STRUCTURE_Shown>
tested chemical

> <STRUCTURE_Formula>
C19H23NO2

> <STRUCTURE_MW>
297.3914

> <STRUCTURE_ChemType>
defined organic

> <STRUCTURE_DefinedOrganicForm>
parent

> <STRUCTURE_IUPAC>
pyridin-2-ylmethyl 2-[4-(2-methylpropyl)phenyl]propanoate

> <STRUCTURE_SMILES>
CC(C)Cc1ccc(cc1)C(C)C(=O)OCc2ccccn2

> <STRUCTURE_SMILES_Desalt>
CC(C)Cc1ccc(cc1)C(C)C(=O)OCc2ccccn2

> <Substance_modify_yyyymmdd>
20131121

$$$$
