647-42-7
ChemmineR-0915142007XD

 22 21  0  0  0  0  0  0  0  0  1 V2000
    1.1373   -1.3028    0.0000 C   0  0  0  0  0  0  0  0  0  0  0  0
    2.3161   -1.9955    0.0000 C   0  0  0  0  0  0  0  0  0  0  0  0
    3.4534   -1.3028    0.0000 C   0  0  0  0  0  0  0  0  0  0  0  0
    4.5907   -1.9955    0.0000 C   0  0  0  0  0  0  0  0  0  0  0  0
    5.7178   -1.3028    0.0000 C   0  0  0  0  0  0  0  0  0  0  0  0
    6.8861   -1.9955    0.0000 C   0  0  0  0  0  0  0  0  0  0  0  0
    8.0235   -1.3028    0.0000 C   0  0  0  0  0  0  0  0  0  0  0  0
    9.1608   -1.9955    0.0000 C   0  0  0  0  0  0  0  0  0  0  0  0
    0.0000   -1.9955    0.0000 O   0  0  0  0  0  0  0  0  0  0  0  0
    3.4534    0.0000    0.0000 F   0  0  0  0  0  0  0  0  0  0  0  0
    3.4534   -2.6469    0.0000 F   0  0  0  0  0  0  0  0  0  0  0  0
    4.5907   -3.3086    0.0000 F   0  0  0  0  0  0  0  0  0  0  0  0
    4.5907   -0.6617    0.0000 F   0  0  0  0  0  0  0  0  0  0  0  0
    5.7178    0.0000    0.0000 F   0  0  0  0  0  0  0  0  0  0  0  0
    5.7178   -2.6469    0.0000 F   0  0  0  0  0  0  0  0  0  0  0  0
    6.8861   -3.3086    0.0000 F   0  0  0  0  0  0  0  0  0  0  0  0
    6.8861   -0.6617    0.0000 F   0  0  0  0  0  0  0  0  0  0  0  0
    8.0235    0.0000    0.0000 F   0  0  0  0  0  0  0  0  0  0  0  0
    9.1608   -0.6617    0.0000 F   0  0  0  0  0  0  0  0  0  0  0  0
   10.3395   -1.3028    0.0000 F   0  0  0  0  0  0  0  0  0  0  0  0
    9.1608   -3.3086    0.0000 F   0  0  0  0  0  0  0  0  0  0  0  0
   10.3395   -2.6469    0.0000 F   0  0  0  0  0  0  0  0  0  0  0  0
  1  2  1  0  0  0  0
  1  9  1  0  0  0  0
  2  3  1  0  0  0  0
  3  4  1  0  0  0  0
  3 10  1  0  0  0  0
  3 11  1  0  0  0  0
  4  5  1  0  0  0  0
  4 12  1  0  0  0  0
  4 13  1  0  0  0  0
  5  6  1  0  0  0  0
  5 14  1  0  0  0  0
  5 15  1  0  0  0  0
  6  7  1  0  0  0  0
  6 16  1  0  0  0  0
  6 17  1  0  0  0  0
  7  8  1  0  0  0  0
  7 18  1  0  0  0  0
  7 19  1  0  0  0  0
  8 20  1  0  0  0  0
  8 21  1  0  0  0  0
  8 22  1  0  0  0  0
M  END
> <ID>
10226

> <Formula>
C8H5F13O

> <FW>
364.1039

> <DSSTox_CID>
24572

> <DSSTox_RID>
80321

> <DSSTox_GSID>
44572

> <DSSTox_FileID_Sort>
5003

> <TS_ChemName>
3,3,4,4,5,5,6,6,7,7,8,8,8-Tridecafluorooctan-1-ol

> <TS_ChemName_Synonyms>
3,3,4,4,5,5,6,6,7,7,8,8,8-Tridecafluorooctan-1-ol (1-Octanol, 3,3,4,4,5,5,6,6,7,7,8,8,8-tridecafluoro-)

> <TS_CASRN>
647-42-7

> <CASRN_ChemName_Relationship>
primary

> <TS_Description>
single chemical compound

> <ChemNote>


> <STRUCTURE_Shown>
tested chemical

> <STRUCTURE_Formula>
C8H5F13O

> <STRUCTURE_MW>
364.1039

> <STRUCTURE_ChemType>
defined organic

> <STRUCTURE_DefinedOrganicForm>
parent

> <STRUCTURE_IUPAC>
3,3,4,4,5,5,6,6,7,7,8,8,8-tridecafluorooctan-1-ol

> <STRUCTURE_SMILES>
FC(F)(C(F)(F)CCO)C(F)(F)C(F)(F)C(F)(F)C(F)(F)F

> <STRUCTURE_SMILES_Desalt>
FC(F)(C(F)(F)CCO)C(F)(F)C(F)(F)C(F)(F)C(F)(F)F

> <Substance_modify_yyyymmdd>
20091116

$$$$
