64700-56-7
ChemmineR-0915142007XD

 21 21  0  0  0  0  0  0  0  0  1 V2000
    6.8984   -2.6756    0.0000 C    0  0  0  0  0  0  0  0  0  0  0  0
    6.8984   -4.0133    0.0000 O    0  0  0  0  0  0  0  0  0  0  0  0
    8.0589   -2.0147    0.0000 O    0  0  0  0  0  0  0  0  0  0  0  0
    5.7541   -2.0147    0.0000 C    0  0  0  0  0  0  0  0  0  0  0  0
    4.5936   -2.6756    0.0000 O    0  0  0  0  0  0  0  0  0  0  0  0
    2.3048   -2.6756    0.0000 N    0  0  0  0  0  0  0  0  0  0  0  0
    1.1605   -2.0147    0.0000 C    0  0  0  0  0  0  0  0  0  0  0  0
    3.4492   -2.0147    0.0000 C    0  0  0  0  0  0  0  0  0  0  0  0
    3.4492   -0.6769    0.0000 C    0  0  0  0  0  0  0  0  0  0  0  0
    1.1605   -0.6769    0.0000 C    0  0  0  0  0  0  0  0  0  0  0  0
    2.3048    0.0000    0.0000 C    0  0  0  0  0  0  0  0  0  0  0  0
    4.5936    0.0000    0.0000 Cl   0  0  0  0  0  0  0  0  0  0  0  0
    0.0000    0.0000    0.0000 Cl   0  0  0  0  0  0  0  0  0  0  0  0
    0.0000   -2.6756    0.0000 Cl   0  0  0  0  0  0  0  0  0  0  0  0
    9.2194   -2.6756    0.0000 C    0  0  0  0  0  0  0  0  0  0  0  0
   10.3638   -2.0147    0.0000 C    0  0  0  0  0  0  0  0  0  0  0  0
   11.5242   -2.6756    0.0000 O    0  0  0  0  0  0  0  0  0  0  0  0
   12.6686   -2.0147    0.0000 C    0  0  0  0  0  0  0  0  0  0  0  0
   13.8130   -2.6756    0.0000 C    0  0  0  0  0  0  0  0  0  0  0  0
   14.9573   -2.0147    0.0000 C    0  0  0  0  0  0  0  0  0  0  0  0
   16.1178   -2.6756    0.0000 C    0  0  0  0  0  0  0  0  0  0  0  0
  1  2  2  0  0  0  0
  1  3  1  0  0  0  0
  1  4  1  0  0  0  0
  3 15  1  0  0  0  0
  4  5  1  0  0  0  0
  5  8  1  0  0  0  0
  6  7  2  0  0  0  0
  6  8  1  0  0  0  0
  7 10  1  0  0  0  0
  7 14  1  0  0  0  0
  8  9  2  0  0  0  0
  9 11  1  0  0  0  0
  9 12  1  0  0  0  0
 10 11  2  0  0  0  0
 10 13  1  0  0  0  0
 15 16  1  0  0  0  0
 16 17  1  0  0  0  0
 17 18  1  0  0  0  0
 18 19  1  0  0  0  0
 19 20  1  0  0  0  0
 20 21  1  0  0  0  0
M  END
> <ID>
6528

> <Formula>
C13H16Cl3NO4

> <FW>
356.6294

> <DSSTox_CID>
12579

> <DSSTox_RID>
78994

> <DSSTox_GSID>
32579

> <DSSTox_FileID_Sort>
3676

> <TS_ChemName>
Triclopyr-butotyl

> <TS_ChemName_Synonyms>
Triclopyr-butotyl (Acetic acid, ((3,5,6-trichloro-2-pyridinyl)oxy)-, 2-butoxyethyl ester) (Triclopyr BEE)

> <TS_CASRN>
64700-56-7

> <CASRN_ChemName_Relationship>
primary

> <TS_Description>
single chemical compound

> <ChemNote>


> <STRUCTURE_Shown>
tested chemical

> <STRUCTURE_Formula>
C13H16Cl3NO4

> <STRUCTURE_MW>
356.6294

> <STRUCTURE_ChemType>
defined organic

> <STRUCTURE_DefinedOrganicForm>
parent

> <STRUCTURE_IUPAC>
2-butoxyethyl [(3,5,6-trichloropyridin-2-yl)oxy]acetate

> <STRUCTURE_SMILES>
Clc1cc(Cl)c(Cl)nc1OCC(=O)OCCOCCCC

> <STRUCTURE_SMILES_Desalt>
Clc1cc(Cl)c(Cl)nc1OCC(=O)OCCOCCCC

> <Substance_modify_yyyymmdd>
20080429

$$$$
