64795-35-3
ChemmineR-0915142007XD

 28 31  0  0  1  0  0  0  0  0  1 V2000
    6.6852   -1.9921    0.0000 S   0  0  0  0  0  0  0  0  0  0  0  0
    3.3202   -6.5327    0.0000 C   0  0  0  0  0  0  0  0  0  0  0  0
    2.2164   -5.8866    0.0000 C   0  0  0  0  0  0  0  0  0  0  0  0
    3.3202   -3.9304    0.0000 C   0  0  0  0  0  0  0  0  0  0  0  0
    2.2164   -4.5944    0.0000 C   0  0  0  0  0  0  0  0  0  0  0  0
    1.1037   -7.7889    0.0000 N   0  0  0  0  0  0  0  0  0  0  0  0
    4.3790   -4.5944    0.0000 C   0  0  0  0  0  0  0  0  0  0  0  0
    5.5187   -3.9304    0.0000 N   0  0  0  0  0  0  0  0  0  0  0  0
    3.3202   -7.7889    0.0000 C   0  0  0  0  0  0  0  0  0  0  0  0
    1.1037   -6.5327    0.0000 C   0  0  0  0  0  0  0  0  0  0  0  0
    4.3790   -5.8866    0.0000 C   0  0  0  0  0  0  0  0  0  0  0  0
    5.5276   -1.3281    0.0000 N   0  0  0  0  0  0  0  0  0  0  0  0
    4.3790   -2.0459    0.0000 C   0  0  0  0  0  0  0  0  0  0  0  0
    7.8248   -1.3281    0.0000 N   0  0  0  0  0  0  0  0  0  0  0  0
    5.5187   -2.6831    0.0000 C   0  0  0  0  0  0  0  0  0  0  0  0
    3.3202   -2.6831    0.0000 C   0  0  0  0  0  0  0  0  0  0  0  0
    1.1037   -3.9304    0.0000 C   0  0  0  0  0  0  0  0  0  0  0  0
    0.1256   -8.5696    0.0000 C   0  0  0  0  0  0  0  0  0  0  0  0
    6.6403   -4.5944    0.0000 C   0  0  0  0  0  0  0  0  0  0  0  0
    0.0000   -5.8866    0.0000 C   0  0  0  0  0  0  0  0  0  0  0  0
    0.0000   -4.5944    0.0000 C   0  0  0  0  0  0  0  0  0  0  0  0
    8.9734   -1.9921    0.0000 C   0  0  0  0  0  0  0  0  0  0  0  0
    7.8248    0.0000    0.0000 C   0  0  0  0  0  0  0  0  0  0  0  0
    4.3431   -3.1497    0.0000 H   0  0  0  0  0  0  0  0  0  0  0  0
    3.3022   -5.2674    0.0000 H   0  0  0  0  0  0  0  0  0  0  0  0
    3.1766   -1.2653    0.0000 H   0  0  0  0  0  0  0  0  0  0  0  0
    6.0302   -3.1497    0.0000 O   0  0  0  0  0  0  0  0  0  0  0  0
    7.3403   -3.1138    0.0000 O   0  0  0  0  0  0  0  0  0  0  0  0
  1 12  1  0  0  0  0
  1 14  1  0  0  0  0
  1 27  2  0  0  0  0
  1 28  2  0  0  0  0
  2 11  1  0  0  0  0
  2  9  2  0  0  0  0
  2  3  1  0  0  0  0
  3  5  2  0  0  0  0
  3 10  1  0  0  0  0
  4 16  1  0  0  0  0
  4  5  1  0  0  0  0
  4  7  1  0  0  0  0
  4 25  1  6  0  0  0
  5 17  1  0  0  0  0
  6 10  1  0  0  0  0
  6 18  1  0  0  0  0
  6  9  1  0  0  0  0
  7 11  1  0  0  0  0
  7 24  1  1  0  0  0
  7  8  1  0  0  0  0
  8 15  1  0  0  0  0
  8 19  1  0  0  0  0
 10 20  2  0  0  0  0
 13 12  1  6  0  0  0
 13 15  1  0  0  0  0
 13 16  1  0  0  0  0
 13 26  1  1  0  0  0
 14 22  1  0  0  0  0
 14 23  1  0  0  0  0
 17 21  2  0  0  0  0
 20 21  1  0  0  0  0
M  END
> <ID>
11607

> <Formula>
C18H26N4O2S

> <FW>
362.4896

> <DSSTox_CID>
26324

> <DSSTox_RID>
81540

> <DSSTox_GSID>
46324

> <DSSTox_FileID_Sort>
6221

> <TS_ChemName>
Mesulergine

> <TS_ChemName_Synonyms>


> <TS_CASRN>
64795-35-3

> <CASRN_ChemName_Relationship>
primary

> <TS_Description>
single chemical compound

> <ChemNote>
stereochem

> <STRUCTURE_Shown>
tested chemical

> <STRUCTURE_Formula>
C18H26N4O2S

> <STRUCTURE_MW>
362.4896

> <STRUCTURE_ChemType>
defined organic

> <STRUCTURE_DefinedOrganicForm>
parent

> <STRUCTURE_IUPAC>
N'-[(8alpha)-1,6-dimethylergolin-8-yl]-N,N-dimethylsulfuric diamide

> <STRUCTURE_SMILES>
CN(C)S(=O)(=O)N[C@H]2C[C@@H]3c4cccc1c4c(cn1C)C[C@H]3N(C)C2

> <STRUCTURE_SMILES_Desalt>
CN(C)S(=O)(=O)N[C@H]2C[C@@H]3c4cccc1c4c(cn1C)C[C@H]3N(C)C2

> <Substance_modify_yyyymmdd>
20110815

$$$$
