6484-52-2
ChemmineR-0915142007XD

  5  3  0  0  0  0  0  0  0  0  2 V2000
    1.3252   -1.1339    0.0000 N   0  3  0  0  0  0  0  0  0  0  0  0
    1.9831   -2.3004    0.0000 O   0  5  0  0  0  0  0  0  0  0  0  0
    2.0111    0.0000    0.0000 O   0  0  0  0  0  0  0  0  0  0  0  0
    0.0000   -1.1012    0.0000 O   0  5  0  0  0  0  0  0  0  0  0  0
    4.6661   -1.1479    0.0000 N   0  3  0  0  0  0  0  0  0  0  0  0
  1  2  1  0  0  0  0
  1  3  2  0  0  0  0
  1  4  1  0  0  0  0
M  END
> <ID>
6117

> <Formula>
H4N2O3

> <FW>
80.0434 (62.0054+18.0379)

> <DSSTox_CID>
9668

> <DSSTox_RID>
78802

> <DSSTox_GSID>
29668

> <DSSTox_FileID_Sort>
3484

> <TS_ChemName>
Ammonium nitrate

> <TS_ChemName_Synonyms>
Ammonium nitrate (Divosan MH) (NH4NO3)

> <TS_CASRN>
6484-52-2

> <CASRN_ChemName_Relationship>
primary

> <TS_Description>
single chemical compound

> <ChemNote>


> <STRUCTURE_Shown>
tested chemical

> <STRUCTURE_Formula>
H4N2O3

> <STRUCTURE_MW>
80.0434

> <STRUCTURE_ChemType>
inorganic

> <STRUCTURE_DefinedOrganicForm>


> <STRUCTURE_IUPAC>
ammonium nitrate

> <STRUCTURE_SMILES>
[NH4+].[O-][N+]([O-])=O

> <STRUCTURE_SMILES_Desalt>
[O-][N+](=O)O

> <Substance_modify_yyyymmdd>
20080429

$$$$
