64872-77-1
ChemmineR-0915142007XD

 29 30  0  0  0  0  0  0  0  0  2 V2000
    2.3108   -3.4349    0.0000 C    0  0  0  0  0  0  0  0  0  0  0  0
    7.3695    0.0000    0.0000 N    0  0  0  0  0  0  0  0  0  0  0  0
    5.7707   -1.4489    0.0000 N    0  0  0  0  0  0  0  0  0  0  0  0
    3.4724   -4.0969    0.0000 S    0  0  0  0  0  0  0  0  0  0  0  0
    6.0580   -0.1374    0.0000 C    0  0  0  0  0  0  0  0  0  0  0  0
    2.3108   -2.0984    0.0000 C    0  0  0  0  0  0  0  0  0  0  0  0
    1.1741   -4.0969    0.0000 C    0  0  0  0  0  0  0  0  0  0  0  0
    7.9066   -1.1866    0.0000 C    0  0  0  0  0  0  0  0  0  0  0  0
    6.9198   -2.0984    0.0000 C    0  0  0  0  0  0  0  0  0  0  0  0
    4.6340   -2.0984    0.0000 C    0  0  0  0  0  0  0  0  0  0  0  0
    4.6340   -3.4474    0.0000 C    0  0  0  0  0  0  0  0  0  0  0  0
   10.3923   -5.4584    0.0000 C    0  0  0  0  0  0  0  0  0  0  0  0
    1.1741   -5.4210    0.0000 Cl   0  0  0  0  0  0  0  0  0  0  0  0
    3.4724   -1.4114    0.0000 Cl   0  0  0  0  0  0  0  0  0  0  0  0
    8.0815   -4.1344    0.0000 C    0  0  0  0  0  0  0  0  0  0  0  0
   11.5664   -6.1204    0.0000 Cl   0  0  0  0  0  0  0  0  0  0  0  0
    5.7832   -4.1219    0.0000 C    0  0  0  0  0  0  0  0  0  0  0  0
    6.9323   -3.4599    0.0000 C    0  0  0  0  0  0  0  0  0  0  0  0
   10.3923   -4.1344    0.0000 C    0  0  0  0  0  0  0  0  0  0  0  0
    9.2556   -6.1204    0.0000 C    0  0  0  0  0  0  0  0  0  0  0  0
    9.2556   -3.4724    0.0000 C    0  0  0  0  0  0  0  0  0  0  0  0
    8.0815   -5.4584    0.0000 C    0  0  0  0  0  0  0  0  0  0  0  0
    0.0000   -2.0984    0.0000 C    0  0  0  0  0  0  0  0  0  0  0  0
    1.1741   -1.4489    0.0000 C    0  0  0  0  0  0  0  0  0  0  0  0
    0.0000   -3.4349    0.0000 C    0  0  0  0  0  0  0  0  0  0  0  0
   11.8162   -1.9236    0.0000 N    0  3  0  0  0  0  0  0  0  0  0  0
   12.4782   -3.0727    0.0000 O    0  5  0  0  0  0  0  0  0  0  0  0
   12.4907   -0.7869    0.0000 O    0  0  0  0  0  0  0  0  0  0  0  0
   10.4922   -1.8986    0.0000 O    0  0  0  0  0  0  0  0  0  0  0  0
  1  4  1  0  0  0  0
  1  6  1  0  0  0  0
  1  7  2  0  0  0  0
  2  5  2  0  0  0  0
  2  8  1  0  0  0  0
  3 10  1  0  0  0  0
  3  5  1  0  0  0  0
  3  9  1  0  0  0  0
  4 11  1  0  0  0  0
  6 14  1  0  0  0  0
  6 24  2  0  0  0  0
  7 13  1  0  0  0  0
  7 25  1  0  0  0  0
  8  9  2  0  0  0  0
 10 11  1  0  0  0  0
 11 17  1  0  0  0  0
 12 20  1  0  0  0  0
 12 16  1  0  0  0  0
 12 19  2  0  0  0  0
 15 18  1  0  0  0  0
 15 21  2  0  0  0  0
 15 22  1  0  0  0  0
 17 18  1  0  0  0  0
 19 21  1  0  0  0  0
 20 22  2  0  0  0  0
 23 25  2  0  0  0  0
 23 24  1  0  0  0  0
 26 27  1  0  0  0  0
 26 28  2  0  0  0  0
 26 29  1  0  0  0  0
M  END
> <ID>
10956

> <Formula>
C19H18Cl3N3O3S

> <FW>
474.7885 (411.7757+63.0128)

> <DSSTox_CID>
25452

> <DSSTox_RID>
80888

> <DSSTox_GSID>
45452

> <DSSTox_FileID_Sort>
5569

> <TS_ChemName>
Butoconazole nitrate

> <TS_ChemName_Synonyms>


> <TS_CASRN>
64872-77-1

> <CASRN_ChemName_Relationship>
primary

> <TS_Description>
single chemical compound

> <ChemNote>
parent[ 64872-76-0]

> <STRUCTURE_Shown>
tested chemical

> <STRUCTURE_Formula>
C19H18Cl3N3O3S

> <STRUCTURE_MW>
474.7885

> <STRUCTURE_ChemType>
defined organic

> <STRUCTURE_DefinedOrganicForm>
complex

> <STRUCTURE_IUPAC>
1-{4-(4-chlorophenyl)-2-[(2,6-dichlorophenyl)sulfanyl]butyl}-1H-imidazole nitrate (1:1)

> <STRUCTURE_SMILES>
[O-][N+](=O)O.Clc1ccc(cc1)CCC(Sc2c(Cl)cccc2Cl)Cn3ccnc3

> <STRUCTURE_SMILES_Desalt>
Clc1ccc(cc1)CCC(Sc2c(Cl)cccc2Cl)Cn3ccnc3

> <Substance_modify_yyyymmdd>
20100107

$$$$
