64887-14-5
ChemmineR-0915142007XD

 29 30  0  0  0  0  0  0  0  0  1 V2000
    5.9434   -6.1679    0.0000 Cl   0  0  0  0  0  0  0  0  0  0  0  0
   13.8179   -4.6559    0.0000 C    0  0  0  0  0  0  0  0  0  0  0  0
   12.6502   -3.9972    0.0000 N    0  0  0  0  0  0  0  0  0  0  0  0
   13.8179   -5.9883    0.0000 N    0  0  0  0  0  0  0  0  0  0  0  0
   11.4975   -4.6559    0.0000 C    0  0  0  0  0  0  0  0  0  0  0  0
   12.6502   -6.6620    0.0000 C    0  0  0  0  0  0  0  0  0  0  0  0
   11.4975   -5.9883    0.0000 C    0  0  0  0  0  0  0  0  0  0  0  0
    3.4582   -2.6648    0.0000 N    0  0  0  0  0  0  0  0  0  0  0  0
    2.3055   -1.9911    0.0000 C    0  0  0  0  0  0  0  0  0  0  0  0
    5.7487   -3.9822    0.0000 N    0  0  0  0  0  0  0  0  0  0  0  0
   14.9707   -3.9822    0.0000 O    0  0  0  0  0  0  0  0  0  0  0  0
   12.6502   -8.0093    0.0000 O    0  0  0  0  0  0  0  0  0  0  0  0
   10.3447   -3.9822    0.0000 N    0  0  0  0  0  0  0  0  0  0  0  0
    3.4582   -3.9822    0.0000 C    0  0  0  0  0  0  0  0  0  0  0  0
    4.5810   -1.9911    0.0000 C    0  0  0  0  0  0  0  0  0  0  0  0
    1.1378   -2.6648    0.0000 C    0  0  0  0  0  0  0  0  0  0  0  0
   12.6502   -2.6648    0.0000 C    0  0  0  0  0  0  0  0  0  0  0  0
   14.9707   -6.6919    0.0000 C    0  0  0  0  0  0  0  0  0  0  0  0
    4.5810   -4.6409    0.0000 C    0  0  0  0  0  0  0  0  0  0  0  0
    5.7487   -2.6648    0.0000 C    0  0  0  0  0  0  0  0  0  0  0  0
    1.1378   -3.9672    0.0000 O    0  0  0  0  0  0  0  0  0  0  0  0
    6.8865   -4.6409    0.0000 C    0  0  0  0  0  0  0  0  0  0  0  0
    8.0542   -3.9822    0.0000 C    0  0  0  0  0  0  0  0  0  0  0  0
    2.3055   -0.6587    0.0000 C    0  0  0  0  0  0  0  0  0  0  0  0
    9.1920   -4.6409    0.0000 C    0  0  0  0  0  0  0  0  0  0  0  0
    0.0000   -1.9911    0.0000 C    0  0  0  0  0  0  0  0  0  0  0  0
    0.0000   -4.6409    0.0000 C    0  0  0  0  0  0  0  0  0  0  0  0
    1.1378    0.0000    0.0000 C    0  0  0  0  0  0  0  0  0  0  0  0
    0.0000   -0.6587    0.0000 C    0  0  0  0  0  0  0  0  0  0  0  0
  2  3  1  0  0  0  0
  2  4  1  0  0  0  0
  2 11  2  0  0  0  0
  3  5  1  0  0  0  0
  3 17  1  0  0  0  0
  4  6  1  0  0  0  0
  4 18  1  0  0  0  0
  5 13  1  0  0  0  0
  5  7  2  0  0  0  0
  6  7  1  0  0  0  0
  6 12  2  0  0  0  0
  8 15  1  0  0  0  0
  8  9  1  0  0  0  0
  8 14  1  0  0  0  0
  9 16  2  0  0  0  0
  9 24  1  0  0  0  0
 10 22  1  0  0  0  0
 10 19  1  0  0  0  0
 10 20  1  0  0  0  0
 13 25  1  0  0  0  0
 14 19  1  0  0  0  0
 15 20  1  0  0  0  0
 16 21  1  0  0  0  0
 16 26  1  0  0  0  0
 21 27  1  0  0  0  0
 22 23  1  0  0  0  0
 23 25  1  0  0  0  0
 24 28  2  0  0  0  0
 26 29  2  0  0  0  0
 28 29  1  0  0  0  0
M  END
> <ID>
11217

> <Formula>
C20H30ClN5O3

> <FW>
423.9369 (36.4609+387.4760)

> <DSSTox_CID>
25812

> <DSSTox_RID>
81149

> <DSSTox_GSID>
45812

> <DSSTox_FileID_Sort>
5830

> <TS_ChemName>
Urapidil hydrochloride

> <TS_ChemName_Synonyms>


> <TS_CASRN>
64887-14-5

> <CASRN_ChemName_Relationship>
primary

> <TS_Description>
single chemical compound

> <ChemNote>
parent [34661-75-1]

> <STRUCTURE_Shown>
tested chemical

> <STRUCTURE_Formula>
C20H30ClN5O3

> <STRUCTURE_MW>
423.9369

> <STRUCTURE_ChemType>
defined organic

> <STRUCTURE_DefinedOrganicForm>
complex

> <STRUCTURE_IUPAC>
6-({3-[4-(2-methoxyphenyl)piperazin-1-yl]propyl}amino)-1,3-dimethylpyrimidine-2,4(1H,3H)-dione hydrochloride (1:1)

> <STRUCTURE_SMILES>
Cl.COc3ccccc3N2CCN(CCCNC1=CC(=O)N(C)C(=O)N1C)CC2

> <STRUCTURE_SMILES_Desalt>
COc3ccccc3N2CCN(CCCNC1=CC(=O)N(C)C(=O)N1C)CC2

> <Substance_modify_yyyymmdd>
20110909

$$$$
