6489-61-8
ChemmineR-0915142007XD

 28 29  0  0  1  0  0  0  0  0  2 V2000
    9.3858   -9.0314    0.0000 Na   0  3  0  0  0  0  0  0  0  0  0  0
   10.1249   -6.2774    0.0000 C    0  0  0  0  0  0  0  0  0  0  0  0
    9.1428   -5.3864    0.0000 C    0  0  0  0  0  0  0  0  0  0  0  0
   10.1249   -4.4853    0.0000 C    0  0  0  0  0  0  0  0  0  0  0  0
    8.3530   -4.2930    0.0000 S    0  0  0  0  0  0  0  0  0  0  0  0
    7.0773   -4.7081    0.0000 C    0  0  0  0  0  0  0  0  0  0  0  0
    5.7408   -4.7081    0.0000 C    0  0  0  0  0  0  0  0  0  0  0  0
    4.6271   -4.0196    0.0000 N    0  0  0  0  0  0  0  0  0  0  0  0
    3.4627   -4.6777    0.0000 C    0  0  0  0  0  0  0  0  0  0  0  0
    3.4627   -6.0142    0.0000 O    0  0  0  0  0  0  0  0  0  0  0  0
    2.3085   -4.0196    0.0000 C    0  0  0  0  0  0  0  0  0  0  0  0
    1.1644   -4.6777    0.0000 N    0  0  0  0  0  0  0  0  0  0  0  0
    0.0000   -3.9993    0.0000 C    0  0  0  0  0  0  0  0  0  0  0  0
    2.3085   -2.6831    0.0000 C    0  0  0  0  0  0  0  0  0  0  0  0
    3.4627   -2.0047    0.0000 C    0  0  0  0  0  0  0  0  0  0  0  0
    3.4627   -0.6784    0.0000 C    0  0  0  0  0  0  0  0  0  0  0  0
    2.3186    0.0000    0.0000 C    0  0  0  0  0  0  0  0  0  0  0  0
    1.1644   -0.6682    0.0000 C    0  0  0  0  0  0  0  0  0  0  0  0
    1.1644   -2.0047    0.0000 C    0  0  0  0  0  0  0  0  0  0  0  0
    5.7408   -6.0446    0.0000 C    0  0  0  0  0  0  0  0  0  0  0  0
    4.8093   -6.9862    0.0000 O    0  0  0  0  0  0  0  0  0  0  0  0
    7.0773   -6.0446    0.0000 N    0  0  0  0  0  0  0  0  0  0  0  0
    8.3530   -6.4496    0.0000 C    0  0  0  0  0  0  0  0  0  0  0  0
    8.7682   -7.7253    0.0000 C    0  0  0  0  0  0  0  0  0  0  0  0
    7.8164   -8.6770    0.0000 O    0  5  0  0  0  0  0  0  0  0  0  0
   10.0743   -7.9987    0.0000 O    0  0  0  0  0  0  0  0  0  0  0  0
    5.8218   -3.3513    0.0000 H    0  0  0  0  0  0  0  0  0  0  0  0
    7.0773   -3.5133    0.0000 H    0  0  0  0  0  0  0  0  0  0  0  0
  2  3  1  0  0  0  0
  3  4  1  0  0  0  0
  3  5  1  0  0  0  0
  3 23  1  0  0  0  0
  5  6  1  0  0  0  0
  6  7  1  0  0  0  0
  6 22  1  0  0  0  0
  6 28  1  6  0  0  0
  7  8  1  1  0  0  0
  7 20  1  0  0  0  0
  7 27  1  6  0  0  0
  8  9  1  0  0  0  0
  9 10  2  0  0  0  0
  9 11  1  0  0  0  0
 11 12  1  0  0  0  0
 11 14  1  6  0  0  0
 12 13  2  0  0  0  0
 14 15  2  0  0  0  0
 14 19  1  0  0  0  0
 15 16  1  0  0  0  0
 16 17  2  0  0  0  0
 17 18  1  0  0  0  0
 18 19  2  0  0  0  0
 20 21  2  0  0  0  0
 20 22  1  0  0  0  0
 22 23  1  0  0  0  0
 23 24  1  6  0  0  0
 24 25  1  0  0  0  0
 24 26  2  0  0  0  0
M  END
> <ID>
11258

> <Formula>
C17H18N3NaO4S

> <FW>
383.3973 (22.9892+360.4081)

> <DSSTox_CID>
25872

> <DSSTox_RID>
81190

> <DSSTox_GSID>
45872

> <DSSTox_FileID_Sort>
5871

> <TS_ChemName>
Metampicillin sodium

> <TS_ChemName_Synonyms>


> <TS_CASRN>
6489-61-8

> <CASRN_ChemName_Relationship>
primary

> <TS_Description>
single chemical compound

> <ChemNote>
stereochem; parent [6489-97-0]

> <STRUCTURE_Shown>
tested chemical

> <STRUCTURE_Formula>
C17H18N3NaO4S

> <STRUCTURE_MW>
383.3973

> <STRUCTURE_ChemType>
defined organic

> <STRUCTURE_DefinedOrganicForm>
salt

> <STRUCTURE_IUPAC>
sodium (2S,5R,6R)-3,3-dimethyl-6-{[(2R)-2-(methylideneamino)-2-phenylacetyl]amino}-7-oxo-4-thia-1-azabicyclo[3.2.0]heptane-2-carboxylate

> <STRUCTURE_SMILES>
[Na+].O=C([O-])[C@@H]2N3C(=O)[C@@H](NC(=O)[C@H](N=C)c1ccccc1)[C@H]3SC2(C)C

> <STRUCTURE_SMILES_Desalt>
OC(=O)[C@@H]2N3C(=O)[C@@H](NC(=O)[C@H](N=C)c1ccccc1)[C@H]3SC2(C)C

> <Substance_modify_yyyymmdd>
20110922

$$$$
