648917-13-9
ChemmineR-0915142007XD

 31 33  0  0  0  0  0  0  0  0  1 V2000
    9.2184   -6.6684    0.0000 C    0  0  0  0  0  0  0  0  0  0  0  0
    9.2184   -7.9973    0.0000 C    0  0  0  0  0  0  0  0  0  0  0  0
    8.0571   -5.9980    0.0000 C    0  0  0  0  0  0  0  0  0  0  0  0
    8.0571   -8.6557    0.0000 C    0  0  0  0  0  0  0  0  0  0  0  0
    6.9078   -6.6684    0.0000 C    0  0  0  0  0  0  0  0  0  0  0  0
    6.9078   -7.9973    0.0000 C    0  0  0  0  0  0  0  0  0  0  0  0
    5.7585   -8.6557    0.0000 N    0  0  0  0  0  0  0  0  0  0  0  0
    5.7585   -9.9846    0.0000 C    0  0  0  0  0  0  0  0  0  0  0  0
    4.5972   -7.9853    0.0000 C    0  0  0  0  0  0  0  0  0  0  0  0
    4.5972  -10.6431    0.0000 C    0  0  0  0  0  0  0  0  0  0  0  0
    3.4479   -8.6557    0.0000 C    0  0  0  0  0  0  0  0  0  0  0  0
    3.4479   -9.9846    0.0000 C    0  0  0  0  0  0  0  0  0  0  0  0
    2.3106  -10.6431    0.0000 C    0  0  0  0  0  0  0  0  0  0  0  0
    1.1493   -9.9846    0.0000 O    0  0  0  0  0  0  0  0  0  0  0  0
    2.3106  -11.9720    0.0000 O    0  0  0  0  0  0  0  0  0  0  0  0
    5.7585   -5.9980    0.0000 N    0  0  0  0  0  0  0  0  0  0  0  0
    5.7585   -4.6691    0.0000 C    0  0  0  0  0  0  0  0  0  0  0  0
    4.5972   -4.0106    0.0000 N    0  0  0  0  0  0  0  0  0  0  0  0
    6.9078   -4.0106    0.0000 O    0  0  0  0  0  0  0  0  0  0  0  0
    4.5972   -2.6817    0.0000 C    0  0  0  0  0  0  0  0  0  0  0  0
    3.4479   -1.9993    0.0000 C    0  0  0  0  0  0  0  0  0  0  0  0
    5.7585   -1.9993    0.0000 O    0  0  0  0  0  0  0  0  0  0  0  0
    3.4479   -0.6704    0.0000 C    0  0  0  0  0  0  0  0  0  0  0  0
    2.3106    0.0000    0.0000 C    0  0  0  0  0  0  0  0  0  0  0  0
    2.3106   -2.6578    0.0000 C    0  0  0  0  0  0  0  0  0  0  0  0
    1.1493   -0.6704    0.0000 C    0  0  0  0  0  0  0  0  0  0  0  0
    1.1493   -1.9993    0.0000 C    0  0  0  0  0  0  0  0  0  0  0  0
    0.0000   -2.6578    0.0000 F    0  0  0  0  0  0  0  0  0  0  0  0
    0.0000   -0.0120    0.0000 F    0  0  0  0  0  0  0  0  0  0  0  0
    4.5972    0.0000    0.0000 Cl   0  0  0  0  0  0  0  0  0  0  0  0
   10.3677   -5.9980    0.0000 F    0  0  0  0  0  0  0  0  0  0  0  0
  1  2  1  0  0  0  0
  1  3  2  0  0  0  0
  1 31  1  0  0  0  0
  2  4  2  0  0  0  0
  3  5  1  0  0  0  0
  4  6  1  0  0  0  0
  5  6  2  0  0  0  0
  5 16  1  0  0  0  0
  6  7  1  0  0  0  0
  7  8  1  0  0  0  0
  7  9  1  0  0  0  0
  8 10  1  0  0  0  0
  9 11  1  0  0  0  0
 10 12  1  0  0  0  0
 11 12  1  0  0  0  0
 12 13  1  0  0  0  0
 13 14  1  0  0  0  0
 13 15  2  0  0  0  0
 16 17  1  0  0  0  0
 17 18  1  0  0  0  0
 17 19  2  0  0  0  0
 18 20  1  0  0  0  0
 20 21  1  0  0  0  0
 20 22  2  0  0  0  0
 21 23  1  0  0  0  0
 21 25  2  0  0  0  0
 23 24  2  0  0  0  0
 23 30  1  0  0  0  0
 24 26  1  0  0  0  0
 25 27  1  0  0  0  0
 26 27  2  0  0  0  0
 26 29  1  0  0  0  0
 27 28  1  0  0  0  0
M  END
> <ID>
12518

> <Formula>
C20H17ClF3N3O4

> <FW>
455.8149

> <DSSTox_CID>
27376

> <DSSTox_RID>
82307

> <DSSTox_GSID>
47376

> <DSSTox_FileID_Sort>
6988

> <TS_ChemName>
AVE2865

> <TS_ChemName_Synonyms>
A002928656

> <TS_CASRN>
648917-13-9

> <CASRN_ChemName_Relationship>
primary

> <TS_Description>
single chemical compound

> <ChemNote>


> <STRUCTURE_Shown>
tested chemical

> <STRUCTURE_Formula>
C20H17ClF3N3O4

> <STRUCTURE_MW>
455.8149

> <STRUCTURE_ChemType>
defined organic

> <STRUCTURE_DefinedOrganicForm>
parent

> <STRUCTURE_IUPAC>
1-(2-{[(2-chloro-4,5-difluorobenzoyl)carbamoyl]amino}-4-fluorophenyl)piperidine-4-carboxylic acid

> <STRUCTURE_SMILES>
Fc1cc(c(Cl)cc1F)C(=O)NC(=O)Nc2cc(F)ccc2N3CCC(CC3)C(=O)O

> <STRUCTURE_SMILES_Desalt>
Fc1cc(c(Cl)cc1F)C(=O)NC(=O)Nc2cc(F)ccc2N3CCC(CC3)C(=O)O

> <Substance_modify_yyyymmdd>
20130910

$$$$
