64902-72-3
ChemmineR-0915142007XD

 23 24  0  0  0  0  0  0  0  0  1 V2000
    3.4595   -1.1532    0.0000 S    0  0  0  0  0  0  0  0  0  0  0  0
    8.0722   -1.1152    0.0000 C    0  0  0  0  0  0  0  0  0  0  0  0
    4.6000   -0.4815    0.0000 N    0  0  0  0  0  0  0  0  0  0  0  0
    9.2127   -0.4435    0.0000 N    0  0  0  0  0  0  0  0  0  0  0  0
    8.0722   -2.4331    0.0000 N    0  0  0  0  0  0  0  0  0  0  0  0
    2.2937   -1.8375    0.0000 C    0  0  0  0  0  0  0  0  0  0  0  0
   10.3658   -2.4331    0.0000 N    0  0  0  0  0  0  0  0  0  0  0  0
    5.7785   -1.1532    0.0000 C    0  0  0  0  0  0  0  0  0  0  0  0
   10.3658   -1.1152    0.0000 C    0  0  0  0  0  0  0  0  0  0  0  0
    6.9190   -0.4562    0.0000 N    0  0  0  0  0  0  0  0  0  0  0  0
    9.2127   -3.1047    0.0000 C    0  0  0  0  0  0  0  0  0  0  0  0
    2.7625    0.0000    0.0000 O    0  0  0  0  0  0  0  0  0  0  0  0
    4.1185   -2.3063    0.0000 O    0  0  0  0  0  0  0  0  0  0  0  0
    2.2937   -3.1680    0.0000 C    0  0  0  0  0  0  0  0  0  0  0  0
    5.7785   -2.4711    0.0000 O    0  0  0  0  0  0  0  0  0  0  0  0
   11.5190   -0.4309    0.0000 O    0  0  0  0  0  0  0  0  0  0  0  0
    3.4595   -3.8270    0.0000 Cl   0  0  0  0  0  0  0  0  0  0  0  0
    1.1532   -1.1785    0.0000 C    0  0  0  0  0  0  0  0  0  0  0  0
    9.2127   -4.4226    0.0000 C    0  0  0  0  0  0  0  0  0  0  0  0
    1.1532   -3.8270    0.0000 C    0  0  0  0  0  0  0  0  0  0  0  0
   12.6722   -1.0898    0.0000 C    0  0  0  0  0  0  0  0  0  0  0  0
    0.0000   -1.8375    0.0000 C    0  0  0  0  0  0  0  0  0  0  0  0
    0.0000   -3.1680    0.0000 C    0  0  0  0  0  0  0  0  0  0  0  0
  1  3  1  0  0  0  0
  1  6  1  0  0  0  0
  1 12  2  0  0  0  0
  1 13  2  0  0  0  0
  2 10  1  0  0  0  0
  2  4  2  0  0  0  0
  2  5  1  0  0  0  0
  3  8  1  0  0  0  0
  4  9  1  0  0  0  0
  5 11  2  0  0  0  0
  6 14  2  0  0  0  0
  6 18  1  0  0  0  0
  7 11  1  0  0  0  0
  7  9  2  0  0  0  0
  8 10  1  0  0  0  0
  8 15  2  0  0  0  0
  9 16  1  0  0  0  0
 11 19  1  0  0  0  0
 14 17  1  0  0  0  0
 14 20  1  0  0  0  0
 16 21  1  0  0  0  0
 18 22  2  0  0  0  0
 20 23  2  0  0  0  0
 22 23  1  0  0  0  0
M  END
> <ID>
3451

> <Formula>
C12H12ClN5O4S

> <FW>
357.7728

> <DSSTox_CID>
3980

> <DSSTox_RID>
77247

> <DSSTox_GSID>
23980

> <DSSTox_FileID_Sort>
1930

> <TS_ChemName>
Chlorsulfuron

> <TS_ChemName_Synonyms>
Chlorsulfuron (2-Chloro-N-[[(4-methoxy-6-methyl-1,3,5-triazin-2-yl)amino]carbonyl]benzensulfonamide)

> <TS_CASRN>
64902-72-3

> <CASRN_ChemName_Relationship>
primary

> <TS_Description>
single chemical compound

> <ChemNote>


> <STRUCTURE_Shown>
tested chemical

> <STRUCTURE_Formula>
C12H12ClN5O4S

> <STRUCTURE_MW>
357.7728

> <STRUCTURE_ChemType>
defined organic

> <STRUCTURE_DefinedOrganicForm>
parent

> <STRUCTURE_IUPAC>
2-chloro-N-[(4-methoxy-6-methyl-1,3,5-triazin-2-yl)carbamoyl]benzenesulfonamide

> <STRUCTURE_SMILES>
Cc2nc(NC(=O)NS(=O)(=O)c1ccccc1Cl)nc(OC)n2

> <STRUCTURE_SMILES_Desalt>
Cc2nc(NC(=O)NS(=O)(=O)c1ccccc1Cl)nc(OC)n2

> <Substance_modify_yyyymmdd>
20080429

$$$$
