6493-05-6
ChemmineR-0915142007XD

 20 21  0  0  0  0  0  0  0  0  1 V2000
    4.2744   -3.5133    0.0000 N   0  0  0  0  0  0  0  0  0  0  0  0
    5.2231   -4.4516    0.0000 C   0  0  0  0  0  0  0  0  0  0  0  0
    6.5263   -4.1701    0.0000 C   0  0  0  0  0  0  0  0  0  0  0  0
    6.9328   -2.9087    0.0000 C   0  0  0  0  0  0  0  0  0  0  0  0
    8.2360   -2.6376    0.0000 C   0  0  0  0  0  0  0  0  0  0  0  0
    9.1222   -3.6176    0.0000 C   0  0  0  0  0  0  0  0  0  0  0  0
   10.4253   -3.3465    0.0000 C   0  0  0  0  0  0  0  0  0  0  0  0
    8.7156   -4.8895    0.0000 O   0  0  0  0  0  0  0  0  0  0  0  0
    4.6184   -2.2206    0.0000 C   0  0  0  0  0  0  0  0  0  0  0  0
    5.9112   -1.8766    0.0000 O   0  0  0  0  0  0  0  0  0  0  0  0
    3.6801   -1.2823    0.0000 N   0  0  0  0  0  0  0  0  0  0  0  0
    4.0242    0.0000    0.0000 C   0  0  0  0  0  0  0  0  0  0  0  0
    2.3978   -1.6264    0.0000 C   0  0  0  0  0  0  0  0  0  0  0  0
    2.0538   -2.9087    0.0000 C   0  0  0  0  0  0  0  0  0  0  0  0
    2.9921   -3.8574    0.0000 C   0  0  0  0  0  0  0  0  0  0  0  0
    2.6480   -5.1397    0.0000 O   0  0  0  0  0  0  0  0  0  0  0  0
    0.7298   -2.9816    0.0000 N   0  0  0  0  0  0  0  0  0  0  0  0
    0.0000   -4.0972    0.0000 C   0  0  0  0  0  0  0  0  0  0  0  0
    0.2502   -1.7410    0.0000 C   0  0  0  0  0  0  0  0  0  0  0  0
    1.2823   -0.9070    0.0000 N   0  0  0  0  0  0  0  0  0  0  0  0
  1  2  1  0  0  0  0
  1  9  1  0  0  0  0
  1 15  1  0  0  0  0
  2  3  1  0  0  0  0
  3  4  1  0  0  0  0
  4  5  1  0  0  0  0
  5  6  1  0  0  0  0
  6  7  1  0  0  0  0
  6  8  2  0  0  0  0
  9 10  2  0  0  0  0
  9 11  1  0  0  0  0
 11 12  1  0  0  0  0
 11 13  1  0  0  0  0
 13 14  2  0  0  0  0
 13 20  1  0  0  0  0
 14 15  1  0  0  0  0
 14 17  1  0  0  0  0
 15 16  2  0  0  0  0
 17 18  1  0  0  0  0
 17 19  1  0  0  0  0
 19 20  2  0  0  0  0
M  END
> <ID>
3083

> <Formula>
C13H18N4O3

> <FW>
278.307

> <DSSTox_CID>
3437

> <DSSTox_RID>
77028

> <DSSTox_GSID>
23437

> <DSSTox_FileID_Sort>
1712

> <TS_ChemName>
Pentoxifylline

> <TS_ChemName_Synonyms>


> <TS_CASRN>
6493-05-6

> <CASRN_ChemName_Relationship>
primary

> <TS_Description>
single chemical compound

> <ChemNote>


> <STRUCTURE_Shown>
tested chemical

> <STRUCTURE_Formula>
C13H18N4O3

> <STRUCTURE_MW>
278.307

> <STRUCTURE_ChemType>
defined organic

> <STRUCTURE_DefinedOrganicForm>
parent

> <STRUCTURE_IUPAC>
3,7-dimethyl-1-(5-oxohexyl)-3,7-dihydro-1H-purine-2,6-dione

> <STRUCTURE_SMILES>
CC(=O)CCCCN2C(=O)c1n(C)cnc1N(C)C2=O

> <STRUCTURE_SMILES_Desalt>
CC(=O)CCCCN2C(=O)c1n(C)cnc1N(C)C2=O

> <Substance_modify_yyyymmdd>
20080429

$$$$
