6493-06-7
ChemmineR-0915142007XD

 20 21  0  0  0  0  0  0  0  0  1 V2000
    2.0353   -2.0015    0.0000 C   0  0  0  0  0  0  0  0  0  0  0  0
    2.0353   -3.3284    0.0000 C   0  0  0  0  0  0  0  0  0  0  0  0
    3.1822   -1.3269    0.0000 C   0  0  0  0  0  0  0  0  0  0  0  0
    0.7646   -1.5855    0.0000 N   0  0  0  0  0  0  0  0  0  0  0  0
    3.1822   -3.9918    0.0000 N   0  0  0  0  0  0  0  0  0  0  0  0
    0.7646   -3.7332    0.0000 N   0  0  0  0  0  0  0  0  0  0  0  0
    4.3404   -2.0015    0.0000 N   0  0  0  0  0  0  0  0  0  0  0  0
    3.1822    0.0000    0.0000 O   0  0  0  0  0  0  0  0  0  0  0  0
    0.0000   -2.6650    0.0000 C   0  0  0  0  0  0  0  0  0  0  0  0
    0.3711   -0.3261    0.0000 C   0  0  0  0  0  0  0  0  0  0  0  0
    4.3404   -3.3284    0.0000 C   0  0  0  0  0  0  0  0  0  0  0  0
    3.1822   -5.3187    0.0000 C   0  0  0  0  0  0  0  0  0  0  0  0
    5.4986   -1.3269    0.0000 C   0  0  0  0  0  0  0  0  0  0  0  0
    5.4986   -3.9918    0.0000 O   0  0  0  0  0  0  0  0  0  0  0  0
    6.6456   -2.0015    0.0000 C   0  0  0  0  0  0  0  0  0  0  0  0
    7.8038   -1.3269    0.0000 C   0  0  0  0  0  0  0  0  0  0  0  0
    8.9507   -2.0015    0.0000 C   0  0  0  0  0  0  0  0  0  0  0  0
   10.1089   -1.3269    0.0000 C   0  0  0  0  0  0  0  0  0  0  0  0
   11.2446   -2.0015    0.0000 C   0  0  0  0  0  0  0  0  0  0  0  0
   10.1089    0.0000    0.0000 O   0  0  0  0  0  0  0  0  0  0  0  0
  1  2  2  0  0  0  0
  1  3  1  0  0  0  0
  1  4  1  0  0  0  0
  2  5  1  0  0  0  0
  2  6  1  0  0  0  0
  3  7  1  0  0  0  0
  3  8  2  0  0  0  0
  4  9  1  0  0  0  0
  4 10  1  0  0  0  0
  5 11  1  0  0  0  0
  5 12  1  0  0  0  0
  6  9  2  0  0  0  0
  7 13  1  0  0  0  0
  7 11  1  0  0  0  0
 11 14  2  0  0  0  0
 13 15  1  0  0  0  0
 15 16  1  0  0  0  0
 16 17  1  0  0  0  0
 17 18  1  0  0  0  0
 18 19  1  0  0  0  0
 18 20  1  0  0  0  0
M  END
> <ID>
11614

> <Formula>
C13H20N4O3

> <FW>
280.3229

> <DSSTox_CID>
26343

> <DSSTox_RID>
81547

> <DSSTox_GSID>
46343

> <DSSTox_FileID_Sort>
6228

> <TS_ChemName>
Lisofylline

> <TS_ChemName_Synonyms>


> <TS_CASRN>
6493-06-7

> <CASRN_ChemName_Relationship>
primary

> <TS_Description>
single chemical compound

> <ChemNote>


> <STRUCTURE_Shown>
tested chemical

> <STRUCTURE_Formula>
C13H20N4O3

> <STRUCTURE_MW>
280.3229

> <STRUCTURE_ChemType>
defined organic

> <STRUCTURE_DefinedOrganicForm>
parent

> <STRUCTURE_IUPAC>
1-(5-hydroxyhexyl)-3,7-dimethyl-3,7-dihydro-1H-purine-2,6-dione

> <STRUCTURE_SMILES>
CC(O)CCCCN2C(=O)c1n(C)cnc1N(C)C2=O

> <STRUCTURE_SMILES_Desalt>
CC(O)CCCCN2C(=O)c1n(C)cnc1N(C)C2=O

> <Substance_modify_yyyymmdd>
20110814

$$$$
