64953-12-4
ChemmineR-0915142007XD

 39 40  0  0  1  0  0  0  0  0  2 V2000
    8.8477   -7.0343    0.0000 Na   0  3  0  0  0  0  0  0  0  0  0  0
    0.0000   -0.7166    0.0000 Na   0  3  0  0  0  0  0  0  0  0  0  0
    6.2738   -2.1790    0.0000 C    0  0  0  0  0  0  0  0  0  0  0  0
    7.7801   -3.6122    0.0000 N    0  0  0  0  0  0  0  0  0  0  0  0
    6.2738   -3.6122    0.0000 C    0  0  0  0  0  0  0  0  0  0  0  0
    7.7801   -2.1790    0.0000 C    0  0  0  0  0  0  0  0  0  0  0  0
    5.1185   -2.1790    0.0000 N    0  0  0  0  0  0  0  0  0  0  0  0
   12.4892   -2.2229    0.0000 C    0  0  0  0  0  0  0  0  0  0  0  0
    8.9208   -4.2703    0.0000 C    0  0  0  0  0  0  0  0  0  0  0  0
   13.5860   -1.5063    0.0000 N    0  0  0  0  0  0  0  0  0  0  0  0
   11.4509   -1.4917    0.0000 N    0  0  0  0  0  0  0  0  0  0  0  0
    3.9924   -1.4039    0.0000 C    0  0  0  0  0  0  0  0  0  0  0  0
   11.8603   -0.1755    0.0000 N    0  0  0  0  0  0  0  0  0  0  0  0
   13.1619   -0.1609    0.0000 N    0  0  0  0  0  0  0  0  0  0  0  0
   10.1639   -3.5976    0.0000 C    0  0  0  0  0  0  0  0  0  0  0  0
    8.9208   -1.5063    0.0000 O    0  0  0  0  0  0  0  0  0  0  0  0
    2.9249   -2.0182    0.0000 C    0  0  0  0  0  0  0  0  0  0  0  0
    8.9208   -5.6304    0.0000 C    0  0  0  0  0  0  0  0  0  0  0  0
    1.7842   -1.3308    0.0000 C    0  0  0  0  0  0  0  0  0  0  0  0
   12.4892   -3.5537    0.0000 S    0  0  0  0  0  0  0  0  0  0  0  0
   10.1639   -2.1790    0.0000 C    0  0  0  0  0  0  0  0  0  0  0  0
    5.4403   -4.5482    0.0000 O    0  0  0  0  0  0  0  0  0  0  0  0
   11.3192   -4.1826    0.0000 C    0  0  0  0  0  0  0  0  0  0  0  0
    2.9249   -3.4075    0.0000 C    0  0  0  0  0  0  0  0  0  0  0  0
    6.2738   -1.0676    0.0000 O    0  0  0  0  0  0  0  0  0  0  0  0
    3.9924   -0.0585    0.0000 O    0  0  0  0  0  0  0  0  0  0  0  0
   10.0615   -6.3031    0.0000 O    0  0  0  0  0  0  0  0  0  0  0  0
    0.5703   -1.9304    0.0000 O    0  0  0  0  0  0  0  0  0  0  0  0
    1.7549   -4.0509    0.0000 C    0  0  0  0  0  0  0  0  0  0  0  0
    4.1094   -4.0217    0.0000 C    0  0  0  0  0  0  0  0  0  0  0  0
   14.6243   -2.1790    0.0000 C    0  0  0  0  0  0  0  0  0  0  0  0
    7.8240   -6.3031    0.0000 O    0  5  0  0  0  0  0  0  0  0  0  0
    1.7842    0.0000    0.0000 O    0  5  0  0  0  0  0  0  0  0  0  0
    2.9249   -6.0983    0.0000 C    0  0  0  0  0  0  0  0  0  0  0  0
    4.1094   -5.3818    0.0000 C    0  0  0  0  0  0  0  0  0  0  0  0
    1.7549   -5.4110    0.0000 C    0  0  0  0  0  0  0  0  0  0  0  0
    2.9249   -7.5315    0.0000 O    0  0  0  0  0  0  0  0  0  0  0  0
    5.3086   -0.4826    0.0000 C    0  0  0  0  0  0  0  0  0  0  0  0
    7.7801   -1.1407    0.0000 H    0  0  0  0  0  0  0  0  0  0  0  0
  3  5  1  0  0  0  0
  3  6  1  0  0  0  0
  3  7  1  1  0  0  0
  3 25  1  6  0  0  0
  4  6  1  0  0  0  0
  4  9  1  0  0  0  0
  4  5  1  0  0  0  0
  5 22  2  0  0  0  0
  6 16  1  0  0  0  0
  6 39  1  6  0  0  0
  7 12  1  0  0  0  0
  8 20  1  0  0  0  0
  8 10  1  0  0  0  0
  8 11  2  0  0  0  0
  9 18  1  0  0  0  0
  9 15  2  0  0  0  0
 10 14  1  0  0  0  0
 10 31  1  0  0  0  0
 11 13  1  0  0  0  0
 12 17  1  0  0  0  0
 12 26  2  0  0  0  0
 13 14  2  0  0  0  0
 15 21  1  0  0  0  0
 15 23  1  0  0  0  0
 16 21  1  0  0  0  0
 17 19  1  0  0  0  0
 17 24  1  0  0  0  0
 18 27  2  0  0  0  0
 18 32  1  0  0  0  0
 19 28  2  0  0  0  0
 19 33  1  0  0  0  0
 20 23  1  0  0  0  0
 24 29  2  0  0  0  0
 24 30  1  0  0  0  0
 25 38  1  0  0  0  0
 29 36  1  0  0  0  0
 30 35  2  0  0  0  0
 34 35  1  0  0  0  0
 34 37  1  0  0  0  0
 34 36  2  0  0  0  0
M  END
> <ID>
11056

> <Formula>
C20H18N6Na2O9S

> <FW>
564.4363 (22.9892+22.9892+518.4578)

> <DSSTox_CID>
25595

> <DSSTox_RID>
80988

> <DSSTox_GSID>
45595

> <DSSTox_FileID_Sort>
5669

> <TS_ChemName>
Moxalactam disodium

> <TS_ChemName_Synonyms>


> <TS_CASRN>
64953-12-4

> <CASRN_ChemName_Relationship>
primary

> <TS_Description>
single chemical compound

> <ChemNote>
stereochem; parent [64952-97-2]

> <STRUCTURE_Shown>
tested chemical

> <STRUCTURE_Formula>
C20H18N6Na2O9S

> <STRUCTURE_MW>
564.4363

> <STRUCTURE_ChemType>
defined organic

> <STRUCTURE_DefinedOrganicForm>
salt

> <STRUCTURE_IUPAC>
disodium (6R,7R)-7-{[carboxylato(4-hydroxyphenyl)acetyl]amino}-7-methoxy-3-{[(1-methyl-1H-tetrazol-5-yl)sulfanyl]methyl}-8-oxo-5-oxa-1-azabicyclo[4.2.0]oct-2-ene-2-carboxylate

> <STRUCTURE_SMILES>
[Na+].[Na+].O=C3N1C(=C(CO[C@@H]1[C@]3(OC)NC(=O)C(c2ccc(O)cc2)C([O-])=O)CSc4nnnn4C)C([O-])=O

> <STRUCTURE_SMILES_Desalt>
O=C3N1C(=C(CO[C@@H]1[C@]3(OC)NC(=O)C(c2ccc(O)cc2)C(=O)O)CSc4nnnn4C)C(=O)O

> <Substance_modify_yyyymmdd>
20100107

$$$$
