64987-03-7
ChemmineR-0915142007XD

 15 15  0  0  0  0  0  0  0  0  1 V2000
    0.6599   -5.4507    0.0000 C   0  0  0  0  0  0  0  0  0  0  0  0
    1.9607   -5.7299    0.0000 C   0  0  0  0  0  0  0  0  0  0  0  0
    2.8555   -4.7401    0.0000 O   0  0  0  0  0  0  0  0  0  0  0  0
    4.1563   -5.0193    0.0000 C   0  0  0  0  0  0  0  0  0  0  0  0
    4.5624   -6.2820    0.0000 O   0  0  0  0  0  0  0  0  0  0  0  0
    5.0446   -4.0294    0.0000 C   0  0  0  0  0  0  0  0  0  0  0  0
    6.3455   -4.3022    0.0000 O   0  0  0  0  0  0  0  0  0  0  0  0
    4.6322   -2.7603    0.0000 C   0  0  0  0  0  0  0  0  0  0  0  0
    5.4127   -1.6879    0.0000 C   0  0  0  0  0  0  0  0  0  0  0  0
    4.6322   -0.6092    0.0000 S   0  0  0  0  0  0  0  0  0  0  0  0
    3.3694   -1.0216    0.0000 C   0  0  0  0  0  0  0  0  0  0  0  0
    3.3694   -2.3542    0.0000 N   0  0  0  0  0  0  0  0  0  0  0  0
    2.2907   -0.2411    0.0000 N   0  0  0  0  0  0  0  0  0  0  0  0
    1.0787   -0.7805    0.0000 C   0  0  0  0  0  0  0  0  0  0  0  0
    0.0000    0.0000    0.0000 O   0  0  0  0  0  0  0  0  0  0  0  0
  1  2  1  0  0  0  0
  2  3  1  0  0  0  0
  3  4  1  0  0  0  0
  4  5  2  0  0  0  0
  4  6  1  0  0  0  0
  6  7  2  0  0  0  0
  6  8  1  0  0  0  0
  8  9  2  0  0  0  0
  8 12  1  0  0  0  0
  9 10  1  0  0  0  0
 10 11  1  0  0  0  0
 11 12  2  0  0  0  0
 11 13  1  0  0  0  0
 13 14  1  0  0  0  0
 14 15  2  0  0  0  0
M  END
> <ID>
16192

> <Formula>
C8H8N2O4S

> <FW>
228.2251

> <DSSTox_CID>
31583

> <DSSTox_RID>
97467

> <DSSTox_GSID>
57794

> <DSSTox_FileID_Sort>
8534

> <TS_ChemName>
Ethyl (2-formamido-1,3-thiazol-4-yl)glyoxylate

> <TS_ChemName_Synonyms>
Ethyl [2-(formylamino)-1,3-thiazol-4-yl](oxo)acetate

> <TS_CASRN>
64987-03-7

> <CASRN_ChemName_Relationship>
primary

> <TS_Description>
single chemical compound

> <ChemNote>


> <STRUCTURE_Shown>
tested chemical

> <STRUCTURE_Formula>
C8H8N2O4S

> <STRUCTURE_MW>
228.2251

> <STRUCTURE_ChemType>
defined organic

> <STRUCTURE_DefinedOrganicForm>
parent

> <STRUCTURE_IUPAC>
ethyl (2-formamido-1,3-thiazol-4-yl)(oxo)acetate

> <STRUCTURE_SMILES>
O=CNc1nc(cs1)C(=O)C(=O)OCC

> <STRUCTURE_SMILES_Desalt>
O=CNc1nc(cs1)C(=O)C(=O)OCC

> <Substance_modify_yyyymmdd>
20131121

$$$$
