65-23-6
ChemmineR-0915142007XD

 12 12  0  0  0  0  0  0  0  0  1 V2000
    1.3289   -2.3047    0.0000 C   0  0  0  0  0  0  0  0  0  0  0  0
    0.0000   -2.3047    0.0000 C   0  0  0  0  0  0  0  0  0  0  0  0
    1.9934   -1.1493    0.0000 C   0  0  0  0  0  0  0  0  0  0  0  0
    1.3289    0.0000    0.0000 O   0  0  0  0  0  0  0  0  0  0  0  0
    3.3283   -1.1493    0.0000 C   0  0  0  0  0  0  0  0  0  0  0  0
    3.9927    0.0000    0.0000 C   0  0  0  0  0  0  0  0  0  0  0  0
    5.3217    0.0000    0.0000 O   0  0  0  0  0  0  0  0  0  0  0  0
    3.9927   -2.3047    0.0000 C   0  0  0  0  0  0  0  0  0  0  0  0
    5.3217   -2.3047    0.0000 C   0  0  0  0  0  0  0  0  0  0  0  0
    5.9861   -3.4540    0.0000 O   0  0  0  0  0  0  0  0  0  0  0  0
    3.3283   -3.4540    0.0000 C   0  0  0  0  0  0  0  0  0  0  0  0
    1.9934   -3.4540    0.0000 N   0  0  0  0  0  0  0  0  0  0  0  0
  1  2  1  0  0  0  0
  1  3  2  0  0  0  0
  1 12  1  0  0  0  0
  3  4  1  0  0  0  0
  3  5  1  0  0  0  0
  5  6  1  0  0  0  0
  5  8  2  0  0  0  0
  6  7  1  0  0  0  0
  8  9  1  0  0  0  0
  8 11  1  0  0  0  0
  9 10  1  0  0  0  0
 11 12  2  0  0  0  0
M  END
> <ID>
3169

> <Formula>
C8H11NO3

> <FW>
169.1778

> <DSSTox_CID>
3541

> <DSSTox_RID>
77070

> <DSSTox_GSID>
23541

> <DSSTox_FileID_Sort>
1753

> <TS_ChemName>
Pyridoxine

> <TS_ChemName_Synonyms>
Pyridoxine (3,4-Pyridinedimethanol, 5-hydroxy-6-methyl-)

> <TS_CASRN>
65-23-6

> <CASRN_ChemName_Relationship>
primary

> <TS_Description>
single chemical compound

> <ChemNote>


> <STRUCTURE_Shown>
tested chemical

> <STRUCTURE_Formula>
C8H11NO3

> <STRUCTURE_MW>
169.1778

> <STRUCTURE_ChemType>
defined organic

> <STRUCTURE_DefinedOrganicForm>
parent

> <STRUCTURE_IUPAC>
4,5-bis(hydroxymethyl)-2-methylpyridin-3-ol

> <STRUCTURE_SMILES>
Oc1c(CO)c(cnc1C)CO

> <STRUCTURE_SMILES_Desalt>
Oc1c(CO)c(cnc1C)CO

> <Substance_modify_yyyymmdd>
20080429

$$$$
