65-45-2
ChemmineR-0915142007XD

 10 10  0  0  0  0  0  0  0  0  1 V2000
    2.6582   -1.1499    0.0000 C   0  0  0  0  0  0  0  0  0  0  0  0
    1.9971    0.0000    0.0000 O   0  0  0  0  0  0  0  0  0  0  0  0
    3.9896   -1.1499    0.0000 C   0  0  0  0  0  0  0  0  0  0  0  0
    4.6553   -2.3044    0.0000 C   0  0  0  0  0  0  0  0  0  0  0  0
    3.9896   -3.4542    0.0000 C   0  0  0  0  0  0  0  0  0  0  0  0
    2.6582   -3.4542    0.0000 C   0  0  0  0  0  0  0  0  0  0  0  0
    1.9971   -2.3044    0.0000 C   0  0  0  0  0  0  0  0  0  0  0  0
    0.6657   -2.3044    0.0000 C   0  0  0  0  0  0  0  0  0  0  0  0
    0.0000   -3.4542    0.0000 O   0  0  0  0  0  0  0  0  0  0  0  0
    0.0000   -1.1499    0.0000 N   0  0  0  0  0  0  0  0  0  0  0  0
  1  2  1  0  0  0  0
  1  3  2  0  0  0  0
  1  7  1  0  0  0  0
  3  4  1  0  0  0  0
  4  5  2  0  0  0  0
  5  6  1  0  0  0  0
  6  7  2  0  0  0  0
  7  8  1  0  0  0  0
  8  9  2  0  0  0  0
  8 10  1  0  0  0  0
M  END
> <ID>
1653

> <Formula>
C7H7NO2

> <FW>
137.136

> <DSSTox_CID>
1726

> <DSSTox_RID>
76295

> <DSSTox_GSID>
21726

> <DSSTox_FileID_Sort>
979

> <TS_ChemName>
Salicylamide

> <TS_ChemName_Synonyms>
2-Hydroxybenzamide (Salicylamide) (o-Hydroxybenzamide)

> <TS_CASRN>
65-45-2

> <CASRN_ChemName_Relationship>
primary

> <TS_Description>
single chemical compound

> <ChemNote>


> <STRUCTURE_Shown>
tested chemical

> <STRUCTURE_Formula>
C7H7NO2

> <STRUCTURE_MW>
137.136

> <STRUCTURE_ChemType>
defined organic

> <STRUCTURE_DefinedOrganicForm>
parent

> <STRUCTURE_IUPAC>
2-hydroxybenzamide

> <STRUCTURE_SMILES>
O=C(N)c1ccccc1O

> <STRUCTURE_SMILES_Desalt>
O=C(N)c1ccccc1O

> <Substance_modify_yyyymmdd>
20080429

$$$$
