65-86-1
ChemmineR-0915142007XD

 11 11  0  0  0  0  0  0  0  0  1 V2000
    0.6655   -2.3036    0.0000 C   0  0  0  0  0  0  0  0  0  0  0  0
    0.0000   -3.4577    0.0000 O   0  0  0  0  0  0  0  0  0  0  0  0
    0.0000   -1.1541    0.0000 O   0  0  0  0  0  0  0  0  0  0  0  0
    1.9964   -2.3036    0.0000 C   0  0  0  0  0  0  0  0  0  0  0  0
    2.6573   -1.1541    0.0000 C   0  0  0  0  0  0  0  0  0  0  0  0
    3.9882   -1.1541    0.0000 C   0  0  0  0  0  0  0  0  0  0  0  0
    4.6537    0.0000    0.0000 O   0  0  0  0  0  0  0  0  0  0  0  0
    4.6537   -2.3036    0.0000 N   0  0  0  0  0  0  0  0  0  0  0  0
    3.9882   -3.4577    0.0000 C   0  0  0  0  0  0  0  0  0  0  0  0
    4.6537   -4.6072    0.0000 O   0  0  0  0  0  0  0  0  0  0  0  0
    2.6573   -3.4577    0.0000 N   0  0  0  0  0  0  0  0  0  0  0  0
  1  2  2  0  0  0  0
  1  3  1  0  0  0  0
  1  4  1  0  0  0  0
  4  5  2  0  0  0  0
  4 11  1  0  0  0  0
  5  6  1  0  0  0  0
  6  7  1  0  0  0  0
  6  8  2  0  0  0  0
  8  9  1  0  0  0  0
  9 10  1  0  0  0  0
  9 11  2  0  0  0  0
M  END
> <ID>
4419

> <Formula>
C5H4N2O4

> <FW>
156.0963

> <DSSTox_CID>
5814

> <DSSTox_RID>
77933

> <DSSTox_GSID>
25814

> <DSSTox_FileID_Sort>
2616

> <TS_ChemName>
Orotic acid

> <TS_ChemName_Synonyms>


> <TS_CASRN>
65-86-1

> <CASRN_ChemName_Relationship>
primary

> <TS_Description>
single chemical compound

> <ChemNote>


> <STRUCTURE_Shown>
tested chemical

> <STRUCTURE_Formula>
C5H4N2O4

> <STRUCTURE_MW>
156.0963

> <STRUCTURE_ChemType>
defined organic

> <STRUCTURE_DefinedOrganicForm>
parent

> <STRUCTURE_IUPAC>
2,6-dihydroxypyrimidine-4-carboxylic acid

> <STRUCTURE_SMILES>
OC(=O)c1cc(O)nc(O)n1

> <STRUCTURE_SMILES_Desalt>
OC(=O)c1cc(O)nc(O)n1

> <Substance_modify_yyyymmdd>
20080429

$$$$
