650-51-1
ChemmineR-0915142007XD

  8  6  0  0  0  0  0  0  0  0  2 V2000
    2.2943   -1.9831    0.0000 C    0  0  0  0  0  0  0  0  0  0  0  0
    2.2943   -3.3255    0.0000 O    0  0  0  0  0  0  0  0  0  0  0  0
    3.4536   -1.3424    0.0000 O    0  5  0  0  0  0  0  0  0  0  0  0
    1.1593   -1.3424    0.0000 C    0  0  0  0  0  0  0  0  0  0  0  0
    1.1593    0.0000    0.0000 Cl   0  0  0  0  0  0  0  0  0  0  0  0
    0.0000   -1.9831    0.0000 Cl   0  0  0  0  0  0  0  0  0  0  0  0
    0.0000   -0.6651    0.0000 Cl   0  0  0  0  0  0  0  0  0  0  0  0
    6.1018   -1.6658    0.0000 Na   0  3  0  0  0  0  0  0  0  0  0  0
  1  2  2  0  0  0  0
  1  3  1  0  0  0  0
  1  4  1  0  0  0  0
  4  5  1  0  0  0  0
  4  6  1  0  0  0  0
  4  7  1  0  0  0  0
M  END
> <ID>
6951

> <Formula>
C2Cl3NaO2

> <FW>
185.3690 (162.3797+22.9892)

> <DSSTox_CID>
14924

> <DSSTox_RID>
79220

> <DSSTox_GSID>
34924

> <DSSTox_FileID_Sort>
3902

> <TS_ChemName>
Sodium trichloroacetate

> <TS_ChemName_Synonyms>


> <TS_CASRN>
650-51-1

> <CASRN_ChemName_Relationship>
primary

> <TS_Description>
single chemical compound

> <ChemNote>
parent [76-03-9]

> <STRUCTURE_Shown>
tested chemical

> <STRUCTURE_Formula>
C2Cl3NaO2

> <STRUCTURE_MW>
185.369

> <STRUCTURE_ChemType>
defined organic

> <STRUCTURE_DefinedOrganicForm>
salt

> <STRUCTURE_IUPAC>
sodium trichloroacetate

> <STRUCTURE_SMILES>
[Na+].ClC(Cl)(Cl)C([O-])=O

> <STRUCTURE_SMILES_Desalt>
ClC(Cl)(Cl)C(=O)O

> <Substance_modify_yyyymmdd>
20080429

$$$$
