65002-17-7
ChemmineR-0915142007XD

 13 12  0  0  1  0  0  0  0  0  1 V2000
    2.3401   -1.7931    0.0000 C   0  0  0  0  0  0  0  0  0  0  0  0
    3.4755   -1.1216    0.0000 N   0  0  0  0  0  0  0  0  0  0  0  0
    4.6317   -1.7793    0.0000 C   0  0  0  0  0  0  0  0  0  0  0  0
    4.6317   -3.1085    0.0000 C   0  0  0  0  0  0  0  0  0  0  0  0
    1.1562   -1.1354    0.0000 C   0  0  0  0  0  0  0  0  0  0  0  0
    2.3401   -3.1224    0.0000 O   0  0  0  0  0  0  0  0  0  0  0  0
    5.7879   -3.7801    0.0000 O   0  0  0  0  0  0  0  0  0  0  0  0
    0.4985   -2.3054    0.0000 S   0  0  0  0  0  0  0  0  0  0  0  0
    3.4755   -3.7663    0.0000 O   0  0  0  0  0  0  0  0  0  0  0  0
    6.9233   -1.7308    0.0000 S   0  0  0  0  0  0  0  0  0  0  0  0
    5.7879   -1.1008    0.0000 C   0  0  0  0  0  0  0  0  0  0  0  0
    0.0000   -0.4777    0.0000 C   0  0  0  0  0  0  0  0  0  0  0  0
    1.8277    0.0000    0.0000 C   0  0  0  0  0  0  0  0  0  0  0  0
  1  2  1  0  0  0  0
  1  5  1  0  0  0  0
  1  6  2  0  0  0  0
  2  3  1  0  0  0  0
  3  4  1  0  0  0  0
  3 11  1  1  0  0  0
  4  7  2  0  0  0  0
  4  9  1  0  0  0  0
  5  8  1  0  0  0  0
  5 12  1  0  0  0  0
  5 13  1  0  0  0  0
 10 11  1  0  0  0  0
M  END
> <ID>
13585

> <Formula>
C7H13NO3S2

> <FW>
223.313

> <DSSTox_CID>
28513

> <DSSTox_RID>
82785

> <DSSTox_GSID>
48587

> <DSSTox_FileID_Sort>
7462

> <TS_ChemName>
Bucillamine

> <TS_ChemName_Synonyms>


> <TS_CASRN>
65002-17-7

> <CASRN_ChemName_Relationship>
primary

> <TS_Description>
single chemical compound

> <ChemNote>
stereochem

> <STRUCTURE_Shown>
tested chemical

> <STRUCTURE_Formula>
C7H13NO3S2

> <STRUCTURE_MW>
223.313

> <STRUCTURE_ChemType>
defined organic

> <STRUCTURE_DefinedOrganicForm>
parent

> <STRUCTURE_IUPAC>
N-(2-methyl-2-sulfanylpropanoyl)-L-cysteine

> <STRUCTURE_SMILES>
O=C(N[C@@H](CS)C(=O)O)C(C)(C)S

> <STRUCTURE_SMILES_Desalt>
O=C(N[C@@H](CS)C(=O)O)C(C)(C)S

> <Substance_modify_yyyymmdd>
20111014

$$$$
