65039-10-3
ChemmineR-0915142007XD

 10  9  0  0  0  0  0  0  0  0  2 V2000
    4.0310   -1.0662    0.0000 N    0  3  0  0  0  0  0  0  0  0  0  0
    2.0065   -1.7490    0.0000 N    0  0  0  0  0  0  0  0  0  0  0  0
    3.2883   -2.1503    0.0000 C    0  0  0  0  0  0  0  0  0  0  0  0
    3.2524    0.0000    0.0000 C    0  0  0  0  0  0  0  0  0  0  0  0
    2.0065   -0.4193    0.0000 C    0  0  0  0  0  0  0  0  0  0  0  0
    0.0000   -4.6600    0.0000 C    0  0  0  0  0  0  0  0  0  0  0  0
    1.0841   -3.8693    0.0000 C    0  0  0  0  0  0  0  0  0  0  0  0
    0.9404   -2.5396    0.0000 C    0  0  0  0  0  0  0  0  0  0  0  0
    5.3727   -1.0662    0.0000 C    0  0  0  0  0  0  0  0  0  0  0  0
    5.9897   -2.5396    0.0000 Cl   0  5  0  0  0  0  0  0  0  0  0  0
  1  3  2  0  0  0  0
  1  4  1  0  0  0  0
  1  9  1  0  0  0  0
  2  3  1  0  0  0  0
  2  5  1  0  0  0  0
  2  8  1  0  0  0  0
  4  5  2  0  0  0  0
  6  7  2  0  0  0  0
  7  8  1  0  0  0  0
M  END
> <ID>
13003

> <Formula>
C7H11ClN2

> <FW>
158.6286 (123.1751+35.4535)

> <DSSTox_CID>
27904

> <DSSTox_RID>
82657

> <DSSTox_GSID>
47928

> <DSSTox_FileID_Sort>
7334

> <TS_ChemName>
1-Allyl-3-methylimidazolium chloride

> <TS_ChemName_Synonyms>


> <TS_CASRN>
65039-10-3

> <CASRN_ChemName_Relationship>
primary

> <TS_Description>
single chemical compound

> <ChemNote>
ammonium; parent [98806-09-8]

> <STRUCTURE_Shown>
tested chemical

> <STRUCTURE_Formula>
C7H11ClN2

> <STRUCTURE_MW>
158.6286

> <STRUCTURE_ChemType>
defined organic

> <STRUCTURE_DefinedOrganicForm>
salt

> <STRUCTURE_IUPAC>
3-methyl-1-(prop-2-en-1-yl)-1H-imidazol-3-ium chloride

> <STRUCTURE_SMILES>
[Cl-].C[n+]1ccn(CC=C)c1

> <STRUCTURE_SMILES_Desalt>
C[n+]1ccn(CC=C)c1

> <Substance_modify_yyyymmdd>
20110417

$$$$
