65039-05-6
ChemmineR-0915142007XD

 11 10  0  0  0  0  0  0  0  0  2 V2000
    2.8130   -5.9484    0.0000 C   0  0  0  0  0  0  0  0  0  0  0  0
    8.0602   -1.0720    0.0000 C   0  0  0  0  0  0  0  0  0  0  0  0
    2.6679   -4.6265    0.0000 C   0  0  0  0  0  0  0  0  0  0  0  0
    3.7480   -3.8447    0.0000 C   0  0  0  0  0  0  0  0  0  0  0  0
    3.6110   -2.5228    0.0000 C   0  0  0  0  0  0  0  0  0  0  0  0
    5.9484    0.0000    0.0000 C   0  0  0  0  0  0  0  0  0  0  0  0
    4.6830   -0.4111    0.0000 C   0  0  0  0  0  0  0  0  0  0  0  0
    5.9484   -2.1521    0.0000 C   0  0  0  0  0  0  0  0  0  0  0  0
    6.7302   -1.0720    0.0000 N   0  3  0  0  0  0  0  0  0  0  0  0
    4.6830   -1.7410    0.0000 N   0  0  0  0  0  0  0  0  0  0  0  0
    0.0000   -1.0720    0.0000 I   0  5  0  0  0  0  0  0  0  0  0  0
  1  3  1  0  0  0  0
  2  9  1  0  0  0  0
  3  4  1  0  0  0  0
  4  5  1  0  0  0  0
  5 10  1  0  0  0  0
  6  7  2  0  0  0  0
  6  9  1  0  0  0  0
  7 10  1  0  0  0  0
  8  9  2  0  0  0  0
  8 10  1  0  0  0  0
M  END
> <ID>
14206

> <Formula>
C8H15IN2

> <FW>
266.1226 (139.2176+126.9050)

> <DSSTox_CID>
29299

> <DSSTox_RID>
83417

> <DSSTox_GSID>
49342

> <DSSTox_FileID_Sort>
8092

> <TS_ChemName>
1-Butyl-3-methylimidazolium iodide

> <TS_ChemName_Synonyms>


> <TS_CASRN>
65039-05-6

> <CASRN_ChemName_Relationship>
primary

> <TS_Description>
single chemical compound

> <ChemNote>


> <STRUCTURE_Shown>
tested chemical

> <STRUCTURE_Formula>
C8H15IN2

> <STRUCTURE_MW>
266.1226

> <STRUCTURE_ChemType>
defined organic

> <STRUCTURE_DefinedOrganicForm>
salt

> <STRUCTURE_IUPAC>
1-butyl-3-methyl-1H-imidazol-3-ium iodide

> <STRUCTURE_SMILES>
[I-].CCCCn1cc[n+](C)c1

> <STRUCTURE_SMILES_Desalt>
CCCCn1cc[n+](C)c1

> <Substance_modify_yyyymmdd>
20111204

$$$$
