65039-09-0
ChemmineR-0915142007XD

  9  8  0  0  0  0  0  0  0  0  2 V2000
    4.3438   -1.0741    0.0000 N    0  3  0  0  0  0  0  0  0  0  0  0
    2.3113   -1.7267    0.0000 N    0  0  0  0  0  0  0  0  0  0  0  0
    3.5757   -2.1481    0.0000 C    0  0  0  0  0  0  0  0  0  0  0  0
    3.5757    0.0000    0.0000 C    0  0  0  0  0  0  0  0  0  0  0  0
    2.3113   -0.4011    0.0000 C    0  0  0  0  0  0  0  0  0  0  0  0
    1.2168   -2.5152    0.0000 C    0  0  0  0  0  0  0  0  0  0  0  0
    0.0000   -1.9714    0.0000 C    0  0  0  0  0  0  0  0  0  0  0  0
    5.6762   -1.0741    0.0000 C    0  0  0  0  0  0  0  0  0  0  0  0
    6.7979   -1.8422    0.0000 Cl   0  5  0  0  0  0  0  0  0  0  0  0
  1  3  2  0  0  0  0
  1  4  1  0  0  0  0
  1  8  1  0  0  0  0
  2  3  1  0  0  0  0
  2  5  1  0  0  0  0
  2  6  1  0  0  0  0
  4  5  2  0  0  0  0
  6  7  1  0  0  0  0
M  END
> <ID>
8155

> <Formula>
C6H11ClN2

> <FW>
146.6179 (111.1644+35.4535)

> <DSSTox_CID>
21180

> <DSSTox_RID>
79639

> <DSSTox_GSID>
41180

> <DSSTox_FileID_Sort>
4321

> <TS_ChemName>
1-Ethyl-3-methylimidazolium chloride

> <TS_ChemName_Synonyms>
Ionic liquid (1-ethyl-3-methylimidazolium chloride)

> <TS_CASRN>
65039-09-0

> <CASRN_ChemName_Relationship>
primary

> <TS_Description>
single chemical compound

> <ChemNote>
ammonium; parent [65039-03-4]

> <STRUCTURE_Shown>
tested chemical

> <STRUCTURE_Formula>
C6H11ClN2

> <STRUCTURE_MW>
146.6179

> <STRUCTURE_ChemType>
defined organic

> <STRUCTURE_DefinedOrganicForm>
salt

> <STRUCTURE_IUPAC>
1-ethyl-3-methyl-1H-imidazol-3-ium chloride

> <STRUCTURE_SMILES>
[Cl-].C[n+]1ccn(CC)c1

> <STRUCTURE_SMILES_Desalt>
C[n+]1ccn(CC)c1

> <Substance_modify_yyyymmdd>
20080815

$$$$
