65039-08-9
ChemmineR-0915142007XD

  9  8  0  0  0  0  0  0  0  0  2 V2000
    2.8133   -3.8461    0.0000 C    0  0  0  0  0  0  0  0  0  0  0  0
    7.1224   -1.0755    0.0000 C    0  0  0  0  0  0  0  0  0  0  0  0
    2.6709   -2.5213    0.0000 C    0  0  0  0  0  0  0  0  0  0  0  0
    5.0142    0.0000    0.0000 C    0  0  0  0  0  0  0  0  0  0  0  0
    3.7464   -0.4131    0.0000 C    0  0  0  0  0  0  0  0  0  0  0  0
    5.0142   -2.1510    0.0000 C    0  0  0  0  0  0  0  0  0  0  0  0
    5.7905   -1.0755    0.0000 N    0  3  0  0  0  0  0  0  0  0  0  0
    3.7464   -1.7450    0.0000 N    0  0  0  0  0  0  0  0  0  0  0  0
    0.0000   -1.0755    0.0000 Br   0  5  0  0  0  0  0  0  0  0  0  0
  1  3  1  0  0  0  0
  2  7  1  0  0  0  0
  3  8  1  0  0  0  0
  4  5  2  0  0  0  0
  4  7  1  0  0  0  0
  5  8  1  0  0  0  0
  6  7  2  0  0  0  0
  6  8  1  0  0  0  0
M  END
> <ID>
14207

> <Formula>
C6H11BrN2

> <FW>
191.0689 (111.1644+79.9045)

> <DSSTox_CID>
29300

> <DSSTox_RID>
83418

> <DSSTox_GSID>
49343

> <DSSTox_FileID_Sort>
8093

> <TS_ChemName>
1-Ethyl-3-methylmidazolium bromide

> <TS_ChemName_Synonyms>


> <TS_CASRN>
65039-08-9

> <CASRN_ChemName_Relationship>
primary

> <TS_Description>
single chemical compound

> <ChemNote>


> <STRUCTURE_Shown>
tested chemical

> <STRUCTURE_Formula>
C6H11BrN2

> <STRUCTURE_MW>
191.0689

> <STRUCTURE_ChemType>
defined organic

> <STRUCTURE_DefinedOrganicForm>
salt

> <STRUCTURE_IUPAC>
1-ethyl-3-methyl-1H-imidazol-3-ium bromide

> <STRUCTURE_SMILES>
[Br-].C[n+]1ccn(CC)c1

> <STRUCTURE_SMILES_Desalt>
C[n+]1ccn(CC)c1

> <Substance_modify_yyyymmdd>
20111204

$$$$
