6506-37-2
ChemmineR-0915142007XD

 16 17  0  0  0  0  0  0  0  0  2 V2000
    1.9219   -5.1102    0.0000 O   0  5  0  0  0  0  0  0  0  0  0  0
    2.8128   -6.0969    0.0000 N   0  3  0  0  0  0  0  0  0  0  0  0
    2.4005   -7.3634    0.0000 O   0  0  0  0  0  0  0  0  0  0  0  0
    4.1161   -5.8245    0.0000 C   0  0  0  0  0  0  0  0  0  0  0  0
    5.1028   -6.7081    0.0000 C   0  0  0  0  0  0  0  0  0  0  0  0
    6.2515   -6.0454    0.0000 N   0  0  0  0  0  0  0  0  0  0  0  0
    5.9791   -4.7420    0.0000 C   0  0  0  0  0  0  0  0  0  0  0  0
    4.6537   -4.6095    0.0000 N   0  0  0  0  0  0  0  0  0  0  0  0
    3.9910   -3.4534    0.0000 C   0  0  0  0  0  0  0  0  0  0  0  0
    2.6582   -3.4534    0.0000 C   0  0  0  0  0  0  0  0  0  0  0  0
    1.9955   -2.3047    0.0000 N   0  0  0  0  0  0  0  0  0  0  0  0
    2.6582   -1.1487    0.0000 C   0  0  0  0  0  0  0  0  0  0  0  0
    1.9955    0.0000    0.0000 C   0  0  0  0  0  0  0  0  0  0  0  0
    0.6627    0.0000    0.0000 O   0  0  0  0  0  0  0  0  0  0  0  0
    0.0000   -1.1487    0.0000 C   0  0  0  0  0  0  0  0  0  0  0  0
    0.6627   -2.3047    0.0000 C   0  0  0  0  0  0  0  0  0  0  0  0
  1  2  1  0  0  0  0
  2  3  2  0  0  0  0
  2  4  1  0  0  0  0
  4  5  2  0  0  0  0
  4  8  1  0  0  0  0
  5  6  1  0  0  0  0
  6  7  2  0  0  0  0
  7  8  1  0  0  0  0
  8  9  1  0  0  0  0
  9 10  1  0  0  0  0
 10 11  1  0  0  0  0
 11 12  1  0  0  0  0
 11 16  1  0  0  0  0
 12 13  1  0  0  0  0
 13 14  1  0  0  0  0
 14 15  1  0  0  0  0
 15 16  1  0  0  0  0
M  END
> <ID>
16193

> <Formula>
C9H14N4O3

> <FW>
226.2325

> <DSSTox_CID>
31584

> <DSSTox_RID>
97468

> <DSSTox_GSID>
57795

> <DSSTox_FileID_Sort>
8535

> <TS_ChemName>
Nimorazole

> <TS_ChemName_Synonyms>


> <TS_CASRN>
6506-37-2

> <CASRN_ChemName_Relationship>
primary

> <TS_Description>
single chemical compound

> <ChemNote>


> <STRUCTURE_Shown>
tested chemical

> <STRUCTURE_Formula>
C9H14N4O3

> <STRUCTURE_MW>
226.2325

> <STRUCTURE_ChemType>
defined organic

> <STRUCTURE_DefinedOrganicForm>
parent

> <STRUCTURE_IUPAC>
4-[2-(5-nitro-1H-imidazol-1-yl)ethyl]morpholine

> <STRUCTURE_SMILES>
[O-][N+](=O)c2cncn2CCN1CCOCC1

> <STRUCTURE_SMILES_Desalt>
[O-][N+](=O)c2cncn2CCN1CCOCC1

> <Substance_modify_yyyymmdd>
20131018

$$$$
