65141-46-0
ChemmineR-0915142007XD

 15 15  0  0  0  0  0  0  0  0  2 V2000
    6.9186   -4.6959    0.0000 N   0  3  0  0  0  0  0  0  0  0  0  0
    1.1639   -3.9928    0.0000 C   0  0  0  0  0  0  0  0  0  0  0  0
    1.1639   -2.6672    0.0000 C   0  0  0  0  0  0  0  0  0  0  0  0
    8.0825   -4.0251    0.0000 O   0  5  0  0  0  0  0  0  0  0  0  0
    6.9186   -6.0053    0.0000 O   0  0  0  0  0  0  0  0  0  0  0  0
    0.0000   -4.6636    0.0000 O   0  0  0  0  0  0  0  0  0  0  0  0
    2.3197   -0.6870    0.0000 N   0  0  0  0  0  0  0  0  0  0  0  0
    5.7628   -4.0251    0.0000 O   0  0  0  0  0  0  0  0  0  0  0  0
    2.3197   -4.6636    0.0000 N   0  0  0  0  0  0  0  0  0  0  0  0
    2.3197   -2.0125    0.0000 C   0  0  0  0  0  0  0  0  0  0  0  0
    4.6151   -4.6636    0.0000 C   0  0  0  0  0  0  0  0  0  0  0  0
    0.0162   -1.9802    0.0000 C   0  0  0  0  0  0  0  0  0  0  0  0
    3.4836   -3.9928    0.0000 C   0  0  0  0  0  0  0  0  0  0  0  0
    1.1962    0.0000    0.0000 C   0  0  0  0  0  0  0  0  0  0  0  0
    0.0162   -0.6547    0.0000 C   0  0  0  0  0  0  0  0  0  0  0  0
  1  4  1  0  0  0  0
  1  5  2  0  0  0  0
  1  8  1  0  0  0  0
  2  9  1  0  0  0  0
  2  3  1  0  0  0  0
  2  6  2  0  0  0  0
  3 10  2  0  0  0  0
  3 12  1  0  0  0  0
  7 10  1  0  0  0  0
  7 14  2  0  0  0  0
  8 11  1  0  0  0  0
  9 13  1  0  0  0  0
 11 13  1  0  0  0  0
 12 15  2  0  0  0  0
 14 15  1  0  0  0  0
M  END
> <ID>
11133

> <Formula>
C8H9N3O4

> <FW>
211.1748

> <DSSTox_CID>
25692

> <DSSTox_RID>
81064

> <DSSTox_GSID>
45692

> <DSSTox_FileID_Sort>
5745

> <TS_ChemName>
Nicorandil

> <TS_ChemName_Synonyms>


> <TS_CASRN>
65141-46-0

> <CASRN_ChemName_Relationship>
primary

> <TS_Description>
single chemical compound

> <ChemNote>


> <STRUCTURE_Shown>
tested chemical

> <STRUCTURE_Formula>
C8H9N3O4

> <STRUCTURE_MW>
211.1748

> <STRUCTURE_ChemType>
defined organic

> <STRUCTURE_DefinedOrganicForm>
parent

> <STRUCTURE_IUPAC>
2-[(pyridin-3-ylcarbonyl)amino]ethyl nitrate

> <STRUCTURE_SMILES>
O=C(NCCO[N+]([O-])=O)c1cccnc1

> <STRUCTURE_SMILES_Desalt>
O=C(NCCO[N+]([O-])=O)c1cccnc1

> <Substance_modify_yyyymmdd>
20110819

$$$$
