652-67-5
ChemmineR-0915142007XD

 12 13  0  0  1  0  0  0  0  0  1 V2000
    2.0436   -3.0255    0.0000 C   0  0  0  0  0  0  0  0  0  0  0  0
    2.0436   -1.6725    0.0000 C   0  0  0  0  0  0  0  0  0  0  0  0
    0.7705   -3.4248    0.0000 O   0  0  0  0  0  0  0  0  0  0  0  0
    3.3120   -1.2731    0.0000 O   0  0  0  0  0  0  0  0  0  0  0  0
    0.7705   -1.2731    0.0000 C   0  0  0  0  0  0  0  0  0  0  0  0
    3.3120   -3.4248    0.0000 C   0  0  0  0  0  0  0  0  0  0  0  0
    4.0872   -2.3490    0.0000 C   0  0  0  0  0  0  0  0  0  0  0  0
    0.0000   -2.3490    0.0000 C   0  0  0  0  0  0  0  0  0  0  0  0
    3.7161   -4.6979    0.0000 O   0  0  0  0  0  0  0  0  0  0  0  0
    0.3711    0.0000    0.0000 O   0  0  0  0  0  0  0  0  0  0  0  0
    2.0436   -0.3523    0.0000 H   0  0  0  0  0  0  0  0  0  0  0  0
    2.0436   -4.3456    0.0000 H   0  0  0  0  0  0  0  0  0  0  0  0
  1  2  1  0  0  0  0
  1  3  1  0  0  0  0
  1  6  1  0  0  0  0
  1 12  1  6  0  0  0
  2  4  1  0  0  0  0
  2  5  1  0  0  0  0
  2 11  1  6  0  0  0
  3  8  1  0  0  0  0
  4  7  1  0  0  0  0
  5 10  1  6  0  0  0
  5  8  1  0  0  0  0
  6  7  1  0  0  0  0
  6  9  1  1  0  0  0
M  END
> <ID>
11494

> <Formula>
C6H10O4

> <FW>
146.1412

> <DSSTox_CID>
26196

> <DSSTox_RID>
81427

> <DSSTox_GSID>
46196

> <DSSTox_FileID_Sort>
6108

> <TS_ChemName>
Isosorbide

> <TS_ChemName_Synonyms>


> <TS_CASRN>
652-67-5

> <CASRN_ChemName_Relationship>
primary

> <TS_Description>
single chemical compound

> <ChemNote>
stereochem

> <STRUCTURE_Shown>
tested chemical

> <STRUCTURE_Formula>
C6H10O4

> <STRUCTURE_MW>
146.1412

> <STRUCTURE_ChemType>
defined organic

> <STRUCTURE_DefinedOrganicForm>
parent

> <STRUCTURE_IUPAC>
1,4:3,6-dianhydro-D-glucitol

> <STRUCTURE_SMILES>
O[C@H]1CO[C@@H]2[C@H](O)CO[C@H]12

> <STRUCTURE_SMILES_Desalt>
O[C@H]1CO[C@@H]2[C@H](O)CO[C@H]12

> <Substance_modify_yyyymmdd>
20110817

$$$$
