652-37-9
ChemmineR-0915142007XD

 17 18  0  0  0  0  0  0  0  0  1 V2000
    0.0000   -3.2649    0.0000 C   0  0  0  0  0  0  0  0  0  0  0  0
    1.1536   -3.9324    0.0000 N   0  0  0  0  0  0  0  0  0  0  0  0
    1.1536   -5.2602    0.0000 C   0  0  0  0  0  0  0  0  0  0  0  0
    0.0000   -5.9276    0.0000 O   0  0  0  0  0  0  0  0  0  0  0  0
    2.3072   -5.9276    0.0000 N   0  0  0  0  0  0  0  0  0  0  0  0
    2.3072   -7.2554    0.0000 C   0  0  0  0  0  0  0  0  0  0  0  0
    3.4536   -5.2602    0.0000 C   0  0  0  0  0  0  0  0  0  0  0  0
    3.4536   -3.9324    0.0000 C   0  0  0  0  0  0  0  0  0  0  0  0
    4.7233   -3.5189    0.0000 N   0  0  0  0  0  0  0  0  0  0  0  0
    5.1296   -2.2564    0.0000 C   0  0  0  0  0  0  0  0  0  0  0  0
    4.2444   -1.2624    0.0000 C   0  0  0  0  0  0  0  0  0  0  0  0
    4.6507    0.0000    0.0000 O   0  0  0  0  0  0  0  0  0  0  0  0
    2.9384   -1.5381    0.0000 O   0  0  0  0  0  0  0  0  0  0  0  0
    5.4996   -4.5927    0.0000 C   0  0  0  0  0  0  0  0  0  0  0  0
    4.7233   -5.6737    0.0000 N   0  0  0  0  0  0  0  0  0  0  0  0
    2.3072   -3.2649    0.0000 C   0  0  0  0  0  0  0  0  0  0  0  0
    2.3072   -1.9372    0.0000 O   0  0  0  0  0  0  0  0  0  0  0  0
  1  2  1  0  0  0  0
  2  3  1  0  0  0  0
  2 16  1  0  0  0  0
  3  4  2  0  0  0  0
  3  5  1  0  0  0  0
  5  6  1  0  0  0  0
  5  7  1  0  0  0  0
  7  8  2  0  0  0  0
  7 15  1  0  0  0  0
  8  9  1  0  0  0  0
  8 16  1  0  0  0  0
  9 10  1  0  0  0  0
  9 14  1  0  0  0  0
 10 11  1  0  0  0  0
 11 12  1  0  0  0  0
 11 13  2  0  0  0  0
 14 15  2  0  0  0  0
 16 17  2  0  0  0  0
M  END
> <ID>
16194

> <Formula>
C9H10N4O4

> <FW>
238.2001

> <DSSTox_CID>
31585

> <DSSTox_RID>
97469

> <DSSTox_GSID>
57796

> <DSSTox_FileID_Sort>
8536

> <TS_ChemName>
Acephylline

> <TS_ChemName_Synonyms>


> <TS_CASRN>
652-37-9

> <CASRN_ChemName_Relationship>
primary

> <TS_Description>
single chemical compound

> <ChemNote>


> <STRUCTURE_Shown>
tested chemical

> <STRUCTURE_Formula>
C9H10N4O4

> <STRUCTURE_MW>
238.2001

> <STRUCTURE_ChemType>
defined organic

> <STRUCTURE_DefinedOrganicForm>
parent

> <STRUCTURE_IUPAC>
(1,3-dimethyl-2,6-dioxo-1,2,3,6-tetrahydro-7H-purin-7-yl)acetic acid

> <STRUCTURE_SMILES>
O=C(O)Cn2cnc1c2C(=O)N(C)C(=O)N1C

> <STRUCTURE_SMILES_Desalt>
O=C(O)Cn2cnc1c2C(=O)N(C)C(=O)N1C

> <Substance_modify_yyyymmdd>
20131018

$$$$
