6521-29-5
ChemmineR-0915142007XD

 15 15  0  0  0  0  0  0  0  0  1 V2000
    4.6290   -1.3308    0.0000 C   0  0  0  0  0  0  0  0  0  0  0  0
    3.4833   -2.0136    0.0000 C   0  0  0  0  0  0  0  0  0  0  0  0
    4.6290    0.0000    0.0000 O   0  0  0  0  0  0  0  0  0  0  0  0
    3.4833   -3.3213    0.0000 C   0  0  0  0  0  0  0  0  0  0  0  0
    2.3377   -1.3540    0.0000 C   0  0  0  0  0  0  0  0  0  0  0  0
    5.7747   -1.9905    0.0000 O   0  0  0  0  0  0  0  0  0  0  0  0
    1.1804   -3.3213    0.0000 C   0  0  0  0  0  0  0  0  0  0  0  0
    2.3261   -3.9810    0.0000 C   0  0  0  0  0  0  0  0  0  0  0  0
    1.1804   -2.0136    0.0000 C   0  0  0  0  0  0  0  0  0  0  0  0
    0.0000   -3.9925    0.0000 O   0  0  0  0  0  0  0  0  0  0  0  0
    6.9319   -1.3308    0.0000 C   0  0  0  0  0  0  0  0  0  0  0  0
    8.0892   -1.9905    0.0000 C   0  0  0  0  0  0  0  0  0  0  0  0
    9.2465   -1.3308    0.0000 C   0  0  0  0  0  0  0  0  0  0  0  0
   10.3921   -2.0136    0.0000 C   0  0  0  0  0  0  0  0  0  0  0  0
   11.5725   -1.3540    0.0000 C   0  0  0  0  0  0  0  0  0  0  0  0
  1  2  1  0  0  0  0
  1  3  2  0  0  0  0
  1  6  1  0  0  0  0
  2  4  1  0  0  0  0
  2  5  2  0  0  0  0
  4  8  2  0  0  0  0
  5  9  1  0  0  0  0
  6 11  1  0  0  0  0
  7  9  2  0  0  0  0
  7 10  1  0  0  0  0
  7  8  1  0  0  0  0
 11 12  1  0  0  0  0
 12 13  1  0  0  0  0
 13 14  1  0  0  0  0
 14 15  1  0  0  0  0
M  END
> <ID>
12962

> <Formula>
C12H16O3

> <FW>
208.2536

> <DSSTox_CID>
27863

> <DSSTox_RID>
82616

> <DSSTox_GSID>
47887

> <DSSTox_FileID_Sort>
7293

> <TS_ChemName>
Pentylparaben

> <TS_ChemName_Synonyms>


> <TS_CASRN>
6521-29-5

> <CASRN_ChemName_Relationship>
primary

> <TS_Description>
single chemical compound

> <ChemNote>


> <STRUCTURE_Shown>
tested chemical

> <STRUCTURE_Formula>
C12H16O3

> <STRUCTURE_MW>
208.2536

> <STRUCTURE_ChemType>
defined organic

> <STRUCTURE_DefinedOrganicForm>
parent

> <STRUCTURE_IUPAC>
pentyl 4-hydroxybenzoate

> <STRUCTURE_SMILES>
Oc1ccc(cc1)C(=O)OCCCCC

> <STRUCTURE_SMILES_Desalt>
Oc1ccc(cc1)C(=O)OCCCCC

> <Substance_modify_yyyymmdd>


$$$$
