65277-42-1
ChemmineR-0915142007XD

 37 41  0  0  1  0  0  0  0  0  1 V2000
   14.1114   -4.1404    0.0000 C    0  0  0  0  0  0  0  0  0  0  0  0
   15.5359   -5.0520    0.0000 C    0  0  0  0  0  0  0  0  0  0  0  0
   13.6936   -5.3749    0.0000 O    0  0  0  0  0  0  0  0  0  0  0  0
    2.0132   -5.2609    0.0000 N    0  0  0  0  0  0  0  0  0  0  0  0
   13.0668   -3.3807    0.0000 O    0  0  0  0  0  0  0  0  0  0  0  0
    4.6722   -5.2609    0.0000 N    0  0  0  0  0  0  0  0  0  0  0  0
   15.5359   -6.3815    0.0000 C    0  0  0  0  0  0  0  0  0  0  0  0
   15.0990   -2.0322    0.0000 N    0  0  0  0  0  0  0  0  0  0  0  0
   14.4343    0.0000    0.0000 N    0  0  0  0  0  0  0  0  0  0  0  0
    0.6647   -5.2609    0.0000 C    0  0  0  0  0  0  0  0  0  0  0  0
   15.0990   -3.3617    0.0000 C    0  0  0  0  0  0  0  0  0  0  0  0
   16.6754   -4.3873    0.0000 C    0  0  0  0  0  0  0  0  0  0  0  0
   14.0165   -1.2535    0.0000 C    0  0  0  0  0  0  0  0  0  0  0  0
   16.6754   -7.0462    0.0000 C    0  0  0  0  0  0  0  0  0  0  0  0
    5.9826   -5.2609    0.0000 C    0  0  0  0  0  0  0  0  0  0  0  0
   12.3831   -5.3749    0.0000 C    0  0  0  0  0  0  0  0  0  0  0  0
   15.7638    0.0000    0.0000 C    0  0  0  0  0  0  0  0  0  0  0  0
    2.7159   -4.1024    0.0000 C    0  0  0  0  0  0  0  0  0  0  0  0
    2.6590   -6.3815    0.0000 C    0  0  0  0  0  0  0  0  0  0  0  0
    3.9884   -6.3815    0.0000 C    0  0  0  0  0  0  0  0  0  0  0  0
    4.0264   -4.1024    0.0000 C    0  0  0  0  0  0  0  0  0  0  0  0
   16.1626   -1.2535    0.0000 C    0  0  0  0  0  0  0  0  0  0  0  0
    0.0570   -4.1024    0.0000 O    0  0  0  0  0  0  0  0  0  0  0  0
   12.0223   -4.1214    0.0000 C    0  0  0  0  0  0  0  0  0  0  0  0
    6.6474   -6.3815    0.0000 C    0  0  0  0  0  0  0  0  0  0  0  0
    6.6854   -4.1024    0.0000 C    0  0  0  0  0  0  0  0  0  0  0  0
   17.8340   -6.3815    0.0000 C    0  0  0  0  0  0  0  0  0  0  0  0
   14.3773   -7.0462    0.0000 Cl   0  0  0  0  0  0  0  0  0  0  0  0
    9.9521   -5.2609    0.0000 O    0  0  0  0  0  0  0  0  0  0  0  0
   17.8340   -5.0520    0.0000 C    0  0  0  0  0  0  0  0  0  0  0  0
    8.6226   -5.2609    0.0000 C    0  0  0  0  0  0  0  0  0  0  0  0
   11.1106   -6.0016    0.0000 C    0  0  0  0  0  0  0  0  0  0  0  0
    7.9769   -4.1024    0.0000 C    0  0  0  0  0  0  0  0  0  0  0  0
    7.9199   -6.3815    0.0000 C    0  0  0  0  0  0  0  0  0  0  0  0
   18.9925   -7.0462    0.0000 Cl   0  0  0  0  0  0  0  0  0  0  0  0
    0.0000   -6.3815    0.0000 C    0  0  0  0  0  0  0  0  0  0  0  0
   12.4401   -6.6854    0.0000 H    0  0  0  0  0  0  0  0  0  0  0  0
  1  2  1  6  0  0  0
  1  3  1  0  0  0  0
  1  5  1  0  0  0  0
  1 11  1  1  0  0  0
  2  7  1  0  0  0  0
  2 12  2  0  0  0  0
  3 16  1  0  0  0  0
  4 18  1  0  0  0  0
  4 10  1  0  0  0  0
  4 19  1  0  0  0  0
  5 24  1  0  0  0  0
  6 15  1  0  0  0  0
  6 20  1  0  0  0  0
  6 21  1  0  0  0  0
  7 14  2  0  0  0  0
  7 28  1  0  0  0  0
  8 11  1  0  0  0  0
  8 13  1  0  0  0  0
  8 22  1  0  0  0  0
  9 13  2  0  0  0  0
  9 17  1  0  0  0  0
 10 23  2  0  0  0  0
 10 36  1  0  0  0  0
 12 30  1  0  0  0  0
 14 27  1  0  0  0  0
 15 25  1  0  0  0  0
 15 26  2  0  0  0  0
 16 32  1  1  0  0  0
 16 37  1  6  0  0  0
 16 24  1  0  0  0  0
 17 22  2  0  0  0  0
 18 21  1  0  0  0  0
 19 20  1  0  0  0  0
 25 34  2  0  0  0  0
 26 33  1  0  0  0  0
 27 30  2  0  0  0  0
 27 35  1  0  0  0  0
 29 32  1  0  0  0  0
 29 31  1  0  0  0  0
 31 33  2  0  0  0  0
 31 34  1  0  0  0  0
M  END
> <ID>
6246

> <Formula>
C26H28Cl2N4O4

> <FW>
531.4309

> <DSSTox_CID>
9879

> <DSSTox_RID>
78829

> <DSSTox_GSID>
29879

> <DSSTox_FileID_Sort>
3511

> <TS_ChemName>
Ketoconazole

> <TS_ChemName_Synonyms>
Ketoconazole, (2R,4S)-

> <TS_CASRN>
65277-42-1

> <CASRN_ChemName_Relationship>
primary

> <TS_Description>
single chemical compound

> <ChemNote>
stereochem

> <STRUCTURE_Shown>
tested chemical

> <STRUCTURE_Formula>
C26H28Cl2N4O4

> <STRUCTURE_MW>
531.4309

> <STRUCTURE_ChemType>
defined organic

> <STRUCTURE_DefinedOrganicForm>
parent

> <STRUCTURE_IUPAC>
1-[4-(4-{[(2R,4S)-2-(2,4-dichlorophenyl)-2-(1H-imidazol-1-ylmethyl)-1,3-dioxolan-4-yl]methoxy}phenyl)piperazin-1-yl]ethanone

> <STRUCTURE_SMILES>
CC(=O)N1CCN(CC1)c2ccc(cc2)OC[C@H]4CO[C@@](Cn3cncc3)(O4)c5ccc(Cl)cc5Cl

> <STRUCTURE_SMILES_Desalt>
CC(=O)N1CCN(CC1)c2ccc(cc2)OC[C@H]4CO[C@@](Cn3cncc3)(O4)c5ccc(Cl)cc5Cl

> <Substance_modify_yyyymmdd>
20080429

$$$$
