6533-68-2
ChemmineR-0915142007XD

 26 25  0  0  1  0  0  0  0  0  1 V2000
    4.8192   -1.9111    0.0000 Br   0  0  0  0  0  0  0  0  0  0  0  0
    1.4852   -5.5359    0.0000 O    0  0  0  0  0  0  0  0  0  0  0  0
    0.0727   -0.9140    0.0000 O    0  0  0  0  0  0  0  0  0  0  0  0
    6.3044   -3.5936    0.0000 O    0  0  0  0  0  0  0  0  0  0  0  0
    3.2924   -3.9883    0.0000 C    0  0  0  0  0  0  0  0  0  0  0  0
    3.9883   -4.9023    0.0000 C    0  0  0  0  0  0  0  0  0  0  0  0
    3.5521   -3.0328    0.0000 C    0  0  0  0  0  0  0  0  0  0  0  0
    2.4511   -2.3992    0.0000 C    0  0  0  0  0  0  0  0  0  0  0  0
    1.2775   -2.8251    0.0000 C    0  0  0  0  0  0  0  0  0  0  0  0
    0.0000   -2.4511    0.0000 O    0  0  0  0  0  0  0  0  0  0  0  0
    0.8517   -3.8325    0.0000 C    0  0  0  0  0  0  0  0  0  0  0  0
    2.0357   -3.4378    0.0000 C    0  0  0  0  0  0  0  0  0  0  0  0
    2.0357   -1.1633    0.0000 N    0  0  0  0  0  0  0  0  0  0  0  0
    4.0506   -5.9928    0.0000 O    0  0  0  0  0  0  0  0  0  0  0  0
    5.1412   -6.6056    0.0000 C    0  0  0  0  0  0  0  0  0  0  0  0
    5.1412   -7.8728    0.0000 C    0  0  0  0  0  0  0  0  0  0  0  0
    6.2213   -5.9928    0.0000 O    0  0  0  0  0  0  0  0  0  0  0  0
    6.2213   -8.5063    0.0000 C    0  0  0  0  0  0  0  0  0  0  0  0
    6.2213   -9.7630    0.0000 O    0  0  0  0  0  0  0  0  0  0  0  0
    4.0506   -8.5063    0.0000 C    0  0  0  0  0  0  0  0  0  0  0  0
    4.0506   -9.7630    0.0000 C    0  0  0  0  0  0  0  0  0  0  0  0
    2.9601   -7.8728    0.0000 C    0  0  0  0  0  0  0  0  0  0  0  0
    2.9601  -10.3862    0.0000 C    0  0  0  0  0  0  0  0  0  0  0  0
    1.8695   -8.5063    0.0000 C    0  0  0  0  0  0  0  0  0  0  0  0
    1.8695   -9.7630    0.0000 C    0  0  0  0  0  0  0  0  0  0  0  0
    2.4823    0.0000    0.0000 C    0  0  0  0  0  0  0  0  0  0  0  0
  5 12  1  0  0  0  0
  5  6  1  0  0  0  0
  6  7  1  0  0  0  0
  6 14  1  6  0  0  0
  7  8  1  0  0  0  0
  8 13  1  1  0  0  0
  8  9  1  0  0  0  0
  9 10  1  1  0  0  0
  9 11  1  0  0  0  0
 11 10  1  1  0  0  0
 11 12  1  0  0  0  0
 12 13  1  6  0  0  0
 13 26  1  0  0  0  0
 14 15  1  0  0  0  0
 15 16  1  0  0  0  0
 15 17  2  0  0  0  0
 16 18  1  0  0  0  0
 16 20  1  6  0  0  0
 18 19  1  0  0  0  0
 20 21  1  0  0  0  0
 20 22  2  0  0  0  0
 21 23  2  0  0  0  0
 22 24  1  0  0  0  0
 23 25  1  0  0  0  0
 24 25  2  0  0  0  0
M  END
> <ID>
1210

> <Formula>
C17H28BrNO7

> <FW>
438.3107 (80.9119+18.0153+18.0153+18.0153+303.3529)

> <DSSTox_CID>
1258

> <DSSTox_RID>
76044

> <DSSTox_GSID>
21258

> <DSSTox_FileID_Sort>
728

> <TS_ChemName>
Scopolamine hydrobromide trihydrate

> <TS_ChemName_Synonyms>


> <TS_CASRN>
6533-68-2

> <CASRN_ChemName_Relationship>
primary

> <TS_Description>
single chemical compound

> <ChemNote>
stereochem; parent [51-34-3]

> <STRUCTURE_Shown>
tested chemical

> <STRUCTURE_Formula>
C17H28BrNO7

> <STRUCTURE_MW>
438.3107

> <STRUCTURE_ChemType>
defined organic

> <STRUCTURE_DefinedOrganicForm>
complex

> <STRUCTURE_IUPAC>
(1R,2R,4S,5S,7s)-9-methyl-3-oxa-9-azatricyclo[3.3.1.0~2,4~]non-7-yl (2S)-3-hydroxy-2-phenylpropanoate hydrobromide trihydrate

> <STRUCTURE_SMILES>
Br.O.O.O.OC[C@H](c1ccccc1)C(=O)O[C@H]2C[C@@H]3N(C)[C@H](C2)[C@H]4O[C@@H]34

> <STRUCTURE_SMILES_Desalt>
OC[C@H](c1ccccc1)C(=O)O[C@H]2C[C@@H]3N(C)[C@H](C2)[C@H]4O[C@@H]34

> <Substance_modify_yyyymmdd>
20080815

$$$$
