6533-00-2
ChemmineR-0915142007XD

 27 30  0  0  1  0  0  0  0  0  1 V2000
    6.9212   -2.1953    0.0000 C   0  0  0  0  0  0  0  0  0  0  0  0
    6.9212   -3.5267    0.0000 C   0  0  0  0  0  0  0  0  0  0  0  0
    3.4454   -5.5288    0.0000 C   0  0  0  0  0  0  0  0  0  0  0  0
    5.7524   -4.1974    0.0000 C   0  0  0  0  0  0  0  0  0  0  0  0
    4.6141   -3.5267    0.0000 C   0  0  0  0  0  0  0  0  0  0  0  0
    3.4454   -4.1974    0.0000 C   0  0  0  0  0  0  0  0  0  0  0  0
    8.1713   -1.7786    0.0000 C   0  0  0  0  0  0  0  0  0  0  0  0
    2.3071   -6.1894    0.0000 C   0  0  0  0  0  0  0  0  0  0  0  0
    9.1673   -0.8944    0.0000 C   0  0  0  0  0  0  0  0  0  0  0  0
    5.7524   -1.5448    0.0000 C   0  0  0  0  0  0  0  0  0  0  0  0
    4.6141   -2.1953    0.0000 C   0  0  0  0  0  0  0  0  0  0  0  0
    5.7524   -5.5288    0.0000 C   0  0  0  0  0  0  0  0  0  0  0  0
    8.1713   -3.9434    0.0000 C   0  0  0  0  0  0  0  0  0  0  0  0
   10.1633    0.0000    0.0000 C   0  0  0  0  0  0  0  0  0  0  0  0
    2.3071   -3.5267    0.0000 C   0  0  0  0  0  0  0  0  0  0  0  0
    4.6141   -6.1894    0.0000 C   0  0  0  0  0  0  0  0  0  0  0  0
    1.1586   -5.5288    0.0000 C   0  0  0  0  0  0  0  0  0  0  0  0
    8.9640   -2.8660    0.0000 C   0  0  0  0  0  0  0  0  0  0  0  0
    0.0000   -6.1894    0.0000 O   0  0  0  0  0  0  0  0  0  0  0  0
    1.1586   -4.1974    0.0000 C   0  0  0  0  0  0  0  0  0  0  0  0
    7.9070   -0.4777    0.0000 O   0  0  0  0  0  0  0  0  0  0  0  0
    6.9212   -0.8639    0.0000 C   0  0  0  0  0  0  0  0  0  0  0  0
    5.7727   -0.2134    0.0000 C   0  0  0  0  0  0  0  0  0  0  0  0
    5.7524   -2.8660    0.0000 H   0  0  0  0  0  0  0  0  0  0  0  0
    4.6141   -4.8581    0.0000 H   0  0  0  0  0  0  0  0  0  0  0  0
    6.9212   -4.8581    0.0000 H   0  0  0  0  0  0  0  0  0  0  0  0
    3.4454   -2.8660    0.0000 H   0  0  0  0  0  0  0  0  0  0  0  0
  1  2  1  0  0  0  0
  1  7  1  0  0  0  0
  1 10  1  0  0  0  0
  1 22  1  1  0  0  0
  2  4  1  0  0  0  0
  2 13  1  0  0  0  0
  2 26  1  6  0  0  0
  3  6  1  0  0  0  0
  3  8  2  0  0  0  0
  3 16  1  0  0  0  0
  4 12  1  0  0  0  0
  4  5  1  0  0  0  0
  4 24  1  1  0  0  0
  5 11  1  0  0  0  0
  5  6  1  0  0  0  0
  5 25  1  6  0  0  0
  6 15  1  0  0  0  0
  6 27  1  1  0  0  0
  7  9  1  0  0  0  0
  7 18  1  0  0  0  0
  7 21  1  0  0  0  0
  8 17  1  0  0  0  0
  9 14  3  0  0  0  0
 10 11  1  0  0  0  0
 12 16  1  0  0  0  0
 13 18  1  0  0  0  0
 15 20  1  0  0  0  0
 17 20  1  0  0  0  0
 17 19  2  0  0  0  0
 22 23  1  0  0  0  0
M  END
> <ID>
12611

> <Formula>
C21H28O2

> <FW>
312.4458

> <DSSTox_CID>
27477

> <DSSTox_RID>
82374

> <DSSTox_GSID>
47477

> <DSSTox_FileID_Sort>
7055

> <TS_ChemName>
dl-Norgestrel

> <TS_ChemName_Synonyms>


> <TS_CASRN>
6533-00-2

> <CASRN_ChemName_Relationship>
primary

> <TS_Description>
single chemical compound

> <ChemNote>
stereochem

> <STRUCTURE_Shown>
tested chemical

> <STRUCTURE_Formula>
C21H28O2

> <STRUCTURE_MW>
312.4458

> <STRUCTURE_ChemType>
defined organic

> <STRUCTURE_DefinedOrganicForm>
parent

> <STRUCTURE_IUPAC>
(8R,9S,10R,13S,14S)-13-ethyl-17-ethynyl-17-hydroxy-1,2,6,7,8,9,10,11,12,13,14,15,16,17-tetradecahydro-3H-cyclopenta[a]phenanthren-3-one

> <STRUCTURE_SMILES>
O=C4CC[C@H]3C(CC[C@@H]2[C@@H]3CC[C@@]1(CC)[C@H]2CCC1(O)C#C)=C4

> <STRUCTURE_SMILES_Desalt>
O=C4CC[C@H]3C(CC[C@@H]2[C@@H]3CC[C@@]1(CC)[C@H]2CCC1(O)C#C)=C4

> <Substance_modify_yyyymmdd>
20100702

$$$$
