65350-59-6
ChemmineR-0915142007XD

 12 11  0  0  0  0  0  0  0  0  2 V2000
    3.3358   -8.0574    0.0000 C    0  0  0  0  0  0  0  0  0  0  0  0
    5.3260    0.0000    0.0000 C    0  0  0  0  0  0  0  0  0  0  0  0
    2.6670   -6.9052    0.0000 C    0  0  0  0  0  0  0  0  0  0  0  0
    3.3358   -5.7530    0.0000 C    0  0  0  0  0  0  0  0  0  0  0  0
    3.3358   -1.1522    0.0000 C    0  0  0  0  0  0  0  0  0  0  0  0
    5.3260   -2.3044    0.0000 C    0  0  0  0  0  0  0  0  0  0  0  0
    2.6670   -4.6008    0.0000 C    0  0  0  0  0  0  0  0  0  0  0  0
    2.6670   -2.3044    0.0000 C    0  0  0  0  0  0  0  0  0  0  0  0
    4.6653   -3.4566    0.0000 C    0  0  0  0  0  0  0  0  0  0  0  0
    4.6653   -1.1522    0.0000 C    0  0  0  0  0  0  0  0  0  0  0  0
    3.3358   -3.4566    0.0000 N    0  3  0  0  0  0  0  0  0  0  0  0
    0.0000   -2.3044    0.0000 Br   0  5  0  0  0  0  0  0  0  0  0  0
  1  3  1  0  0  0  0
  2 10  1  0  0  0  0
  3  4  1  0  0  0  0
  4  7  1  0  0  0  0
  5  8  1  0  0  0  0
  5 10  2  0  0  0  0
  6  9  2  0  0  0  0
  6 10  1  0  0  0  0
  7 11  1  0  0  0  0
  8 11  2  0  0  0  0
  9 11  1  0  0  0  0
M  END
> <ID>
14209

> <Formula>
C10H16BrN

> <FW>
230.1447 (150.2402+79.9045)

> <DSSTox_CID>
29302

> <DSSTox_RID>
83420

> <DSSTox_GSID>
49345

> <DSSTox_FileID_Sort>
8095

> <TS_ChemName>
1-Butyl-4-methylpyridinium bromide

> <TS_ChemName_Synonyms>


> <TS_CASRN>
65350-59-6

> <CASRN_ChemName_Relationship>
primary

> <TS_Description>
single chemical compound

> <ChemNote>
ammonium

> <STRUCTURE_Shown>
tested chemical

> <STRUCTURE_Formula>
C10H16BrN

> <STRUCTURE_MW>
230.1447

> <STRUCTURE_ChemType>
defined organic

> <STRUCTURE_DefinedOrganicForm>
salt

> <STRUCTURE_IUPAC>
1-butyl-4-methylpyridinium bromide

> <STRUCTURE_SMILES>
[Br-].Cc1cc[n+](CCCC)cc1

> <STRUCTURE_SMILES_Desalt>
Cc1cc[n+](CCCC)cc1

> <Substance_modify_yyyymmdd>
20111204

$$$$
