65391-42-6
ChemmineR-0915142007XD

 23 22  0  0  1  0  0  0  0  0  1 V2000
    6.8969   -2.0299    0.0000 C    0  0  0  0  0  0  0  0  0  0  0  0
    5.7551   -1.3609    0.0000 C    0  0  0  0  0  0  0  0  0  0  0  0
    8.0618   -1.3609    0.0000 N    0  0  0  0  0  0  0  0  0  0  0  0
    9.2267   -1.9953    0.0000 C    0  0  0  0  0  0  0  0  0  0  0  0
   10.3570   -1.3263    0.0000 C    0  0  0  0  0  0  0  0  0  0  0  0
    4.6133   -2.0529    0.0000 C    0  0  0  0  0  0  0  0  0  0  0  0
    6.8969   -3.3447    0.0000 O    0  0  0  0  0  0  0  0  0  0  0  0
    3.4485   -1.3609    0.0000 C    0  0  0  0  0  0  0  0  0  0  0  0
   10.3570    0.0000    0.0000 O    0  0  0  0  0  0  0  0  0  0  0  0
    9.2267   -3.3216    0.0000 C    0  0  0  0  0  0  0  0  0  0  0  0
    5.7551   -0.0346    0.0000 O    0  0  0  0  0  0  0  0  0  0  0  0
    4.6249   -3.3793    0.0000 N    0  0  0  0  0  0  0  0  0  0  0  0
   11.5103   -1.9837    0.0000 O    0  0  0  0  0  0  0  0  0  0  0  0
    2.3067   -2.0529    0.0000 C    0  0  0  0  0  0  0  0  0  0  0  0
   10.3685   -3.9905    0.0000 C    0  0  0  0  0  0  0  0  0  0  0  0
    1.1533   -1.3840    0.0000 C    0  0  0  0  0  0  0  0  0  0  0  0
    2.3067   -3.3793    0.0000 C    0  0  0  0  0  0  0  0  0  0  0  0
   11.5334   -3.3101    0.0000 C    0  0  0  0  0  0  0  0  0  0  0  0
   10.3916   -5.3169    0.0000 C    0  0  0  0  0  0  0  0  0  0  0  0
    1.1764   -4.0482    0.0000 C    0  0  0  0  0  0  0  0  0  0  0  0
    0.0000   -2.0529    0.0000 C    0  0  0  0  0  0  0  0  0  0  0  0
    0.0115   -3.3908    0.0000 C    0  0  0  0  0  0  0  0  0  0  0  0
    4.8671   -4.9939    0.0000 Cl   0  0  0  0  0  0  0  0  0  0  0  0
  1  2  1  0  0  0  0
  1  3  1  0  0  0  0
  1  7  2  0  0  0  0
  2  6  1  0  0  0  0
  2 11  1  6  0  0  0
  4  3  1  1  0  0  0
  4  5  1  0  0  0  0
  4 10  1  0  0  0  0
  5  9  2  0  0  0  0
  5 13  1  0  0  0  0
  6  8  1  0  0  0  0
  6 12  1  6  0  0  0
  8 14  1  0  0  0  0
 10 15  1  0  0  0  0
 14 16  1  0  0  0  0
 14 17  2  0  0  0  0
 15 18  1  0  0  0  0
 15 19  1  0  0  0  0
 16 21  2  0  0  0  0
 17 20  1  0  0  0  0
 20 22  2  0  0  0  0
 21 22  1  0  0  0  0
M  END
> <ID>
11170

> <Formula>
C16H25ClN2O4

> <FW>
344.8337 (308.3728+36.4609)

> <DSSTox_CID>
25759

> <DSSTox_RID>
81102

> <DSSTox_GSID>
45759

> <DSSTox_FileID_Sort>
5783

> <TS_ChemName>
Ubenimex hydrochloride

> <TS_ChemName_Synonyms>


> <TS_CASRN>
65391-42-6

> <CASRN_ChemName_Relationship>
primary

> <TS_Description>
single chemical compound

> <ChemNote>
stereochem; parent [58970-76-6]

> <STRUCTURE_Shown>
tested chemical

> <STRUCTURE_Formula>
C16H25ClN2O4

> <STRUCTURE_MW>
344.8337

> <STRUCTURE_ChemType>
defined organic

> <STRUCTURE_DefinedOrganicForm>
complex

> <STRUCTURE_IUPAC>
N-[(2S,3R)-3-amino-2-hydroxy-4-phenylbutanoyl]-D-leucine hydrochloride (1:1)

> <STRUCTURE_SMILES>
Cl.N[C@H](Cc1ccccc1)[C@H](O)C(=O)N[C@H](CC(C)C)C(=O)O

> <STRUCTURE_SMILES_Desalt>
N[C@H](Cc1ccccc1)[C@H](O)C(=O)N[C@H](CC(C)C)C(=O)O

> <Substance_modify_yyyymmdd>
20110826

$$$$
