654057-97-3
ChemmineR-0915142007XD

 34 32  0  0  0  0  0  0  0  0  2 V2000
   15.6995   -6.7508    0.0000 P    0  3  0  0  0  0  0  0  0  0  0  0
   16.6863   -7.6479    0.0000 C    0  0  0  0  0  0  0  0  0  0  0  0
   17.9423   -7.2666    0.0000 C    0  0  0  0  0  0  0  0  0  0  0  0
   18.9291   -8.1862    0.0000 C    0  0  0  0  0  0  0  0  0  0  0  0
   20.1851   -7.7825    0.0000 C    0  0  0  0  0  0  0  0  0  0  0  0
   21.1719   -8.7020    0.0000 C    0  0  0  0  0  0  0  0  0  0  0  0
   22.4279   -8.2983    0.0000 C    0  0  0  0  0  0  0  0  0  0  0  0
   16.6191   -5.7864    0.0000 C    0  0  0  0  0  0  0  0  0  0  0  0
   16.2378   -4.5080    0.0000 C    0  0  0  0  0  0  0  0  0  0  0  0
   17.1349   -3.5436    0.0000 C    0  0  0  0  0  0  0  0  0  0  0  0
   16.7312   -2.2428    0.0000 C    0  0  0  0  0  0  0  0  0  0  0  0
   17.6507   -1.3008    0.0000 C    0  0  0  0  0  0  0  0  0  0  0  0
   17.2470    0.0000    0.0000 C    0  0  0  0  0  0  0  0  0  0  0  0
   14.8024   -7.7152    0.0000 C    0  0  0  0  0  0  0  0  0  0  0  0
   13.5016   -7.4236    0.0000 C    0  0  0  0  0  0  0  0  0  0  0  0
   12.5820   -8.3880    0.0000 C    0  0  0  0  0  0  0  0  0  0  0  0
   11.3037   -8.0740    0.0000 C    0  0  0  0  0  0  0  0  0  0  0  0
   10.4065   -9.0609    0.0000 C    0  0  0  0  0  0  0  0  0  0  0  0
    9.1057   -8.7469    0.0000 C    0  0  0  0  0  0  0  0  0  0  0  0
   14.7127   -5.8313    0.0000 C    0  0  0  0  0  0  0  0  0  0  0  0
   13.4567   -6.2350    0.0000 C    0  0  0  0  0  0  0  0  0  0  0  0
   12.4699   -5.3378    0.0000 C    0  0  0  0  0  0  0  0  0  0  0  0
   11.2139   -5.7191    0.0000 C    0  0  0  0  0  0  0  0  0  0  0  0
   10.2271   -4.7996    0.0000 C    0  0  0  0  0  0  0  0  0  0  0  0
    8.9712   -5.1808    0.0000 C    0  0  0  0  0  0  0  0  0  0  0  0
    7.9843   -4.2837    0.0000 C    0  0  0  0  0  0  0  0  0  0  0  0
    6.7284   -4.6650    0.0000 C    0  0  0  0  0  0  0  0  0  0  0  0
    5.7415   -3.7679    0.0000 C    0  0  0  0  0  0  0  0  0  0  0  0
    4.4856   -4.1492    0.0000 C    0  0  0  0  0  0  0  0  0  0  0  0
    3.4988   -3.2520    0.0000 C    0  0  0  0  0  0  0  0  0  0  0  0
    2.2428   -3.6333    0.0000 C    0  0  0  0  0  0  0  0  0  0  0  0
    1.2560   -2.7138    0.0000 C    0  0  0  0  0  0  0  0  0  0  0  0
    0.0000   -3.1175    0.0000 C    0  0  0  0  0  0  0  0  0  0  0  0
   18.9291   -5.6743    0.0000 Br   0  5  0  0  0  0  0  0  0  0  0  0
  1  2  1  0  0  0  0
  1  8  1  0  0  0  0
  1 14  1  0  0  0  0
  1 20  1  0  0  0  0
  2  3  1  0  0  0  0
  3  4  1  0  0  0  0
  4  5  1  0  0  0  0
  5  6  1  0  0  0  0
  6  7  1  0  0  0  0
  8  9  1  0  0  0  0
  9 10  1  0  0  0  0
 10 11  1  0  0  0  0
 11 12  1  0  0  0  0
 12 13  1  0  0  0  0
 14 15  1  0  0  0  0
 15 16  1  0  0  0  0
 16 17  1  0  0  0  0
 17 18  1  0  0  0  0
 18 19  1  0  0  0  0
 20 21  1  0  0  0  0
 21 22  1  0  0  0  0
 22 23  1  0  0  0  0
 23 24  1  0  0  0  0
 24 25  1  0  0  0  0
 25 26  1  0  0  0  0
 26 27  1  0  0  0  0
 27 28  1  0  0  0  0
 28 29  1  0  0  0  0
 29 30  1  0  0  0  0
 30 31  1  0  0  0  0
 31 32  1  0  0  0  0
 32 33  1  0  0  0  0
M  END
> <ID>
13028

> <Formula>
C32H68BrP

> <FW>
563.7601 (483.8555+79.9045)

> <DSSTox_CID>
27929

> <DSSTox_RID>
82682

> <DSSTox_GSID>
47953

> <DSSTox_FileID_Sort>
7359

> <TS_ChemName>
Trihexyltetradecylphosphonium bromide

> <TS_ChemName_Synonyms>


> <TS_CASRN>
654057-97-3

> <CASRN_ChemName_Relationship>
primary

> <TS_Description>
single chemical compound

> <ChemNote>
phosphonium; parent [374683-43-9]

> <STRUCTURE_Shown>
tested chemical

> <STRUCTURE_Formula>
C32H68BrP

> <STRUCTURE_MW>
563.7601

> <STRUCTURE_ChemType>
defined organic

> <STRUCTURE_DefinedOrganicForm>
salt

> <STRUCTURE_IUPAC>
trihexyl(tetradecyl)phosphonium bromide

> <STRUCTURE_SMILES>
[Br-].CCCCCC[P+](CCCCCC)(CCCCCC)CCCCCCCCCCCCCC

> <STRUCTURE_SMILES_Desalt>
CCCCCC[P+](CCCCCC)(CCCCCC)CCCCCCCCCCCCCC

> <Substance_modify_yyyymmdd>
20110419

$$$$
