654055-01-3
ChemmineR-0915142007XD

 24 24  0  0  0  0  0  0  0  0  1 V2000
    5.7699   -3.3045    0.0000 C   0  0  0  0  0  0  0  0  0  0  0  0
    5.7699   -1.9786    0.0000 C   0  0  0  0  0  0  0  0  0  0  0  0
    4.5994   -1.3259    0.0000 C   0  0  0  0  0  0  0  0  0  0  0  0
    4.5994    0.0000    0.0000 O   0  0  0  0  0  0  0  0  0  0  0  0
    3.4495   -1.9786    0.0000 C   0  0  0  0  0  0  0  0  0  0  0  0
    3.4495   -3.3045    0.0000 C   0  0  0  0  0  0  0  0  0  0  0  0
    4.5994   -3.9882    0.0000 O   0  0  0  0  0  0  0  0  0  0  0  0
    2.2997   -3.9882    0.0000 C   0  0  0  0  0  0  0  0  0  0  0  0
    1.1498   -3.3045    0.0000 C   0  0  0  0  0  0  0  0  0  0  0  0
    1.1498   -1.9786    0.0000 C   0  0  0  0  0  0  0  0  0  0  0  0
    2.2997   -1.3259    0.0000 C   0  0  0  0  0  0  0  0  0  0  0  0
    2.2997    0.0000    0.0000 O   0  0  0  0  0  0  0  0  0  0  0  0
    0.0000   -3.9882    0.0000 O   0  0  0  0  0  0  0  0  0  0  0  0
    6.9198   -1.3259    0.0000 O   0  0  0  0  0  0  0  0  0  0  0  0
    6.9198   -3.9882    0.0000 C   0  0  0  0  0  0  0  0  0  0  0  0
    8.0592   -3.3045    0.0000 C   0  0  0  0  0  0  0  0  0  0  0  0
    9.2091   -3.9882    0.0000 C   0  0  0  0  0  0  0  0  0  0  0  0
    9.2091   -5.3141    0.0000 C   0  0  0  0  0  0  0  0  0  0  0  0
    8.0592   -5.9771    0.0000 C   0  0  0  0  0  0  0  0  0  0  0  0
    6.9198   -5.3141    0.0000 C   0  0  0  0  0  0  0  0  0  0  0  0
   10.3589   -5.9771    0.0000 O   0  0  0  0  0  0  0  0  0  0  0  0
    8.0592   -1.9786    0.0000 O   0  0  0  0  0  0  0  0  0  0  0  0
    7.7485   -7.5724    0.0000 O   0  0  0  0  0  0  0  0  0  0  0  0
    3.5324   -6.4847    0.0000 O   0  0  0  0  0  0  0  0  0  0  0  0
  1  2  2  0  0  0  0
  1  7  1  0  0  0  0
  1 15  1  0  0  0  0
  2  3  1  0  0  0  0
  2 14  1  0  0  0  0
  3  4  2  0  0  0  0
  3  5  1  0  0  0  0
  5  6  2  0  0  0  0
  5 11  1  0  0  0  0
  6  7  1  0  0  0  0
  6  8  1  0  0  0  0
  8  9  2  0  0  0  0
  9 10  1  0  0  0  0
  9 13  1  0  0  0  0
 10 11  2  0  0  0  0
 11 12  1  0  0  0  0
 15 16  2  0  0  0  0
 15 20  1  0  0  0  0
 16 17  1  0  0  0  0
 16 22  1  0  0  0  0
 17 18  2  0  0  0  0
 18 19  1  0  0  0  0
 18 21  1  0  0  0  0
 19 20  2  0  0  0  0
M  END
> <ID>
7962

> <Formula>
C15H14O9

> <FW>
338.2663 (302.2357+18.0153+18.0153)

> <DSSTox_CID>
20776

> <DSSTox_RID>
79597

> <DSSTox_GSID>
40776

> <DSSTox_FileID_Sort>
4279

> <TS_ChemName>
Morin hydrate

> <TS_ChemName_Synonyms>


> <TS_CASRN>
654055-01-3

> <CASRN_ChemName_Relationship>
primary

> <TS_Description>
single chemical compound

> <ChemNote>
compound contains xH2O; structure shown dihydrate; parent [480-16-0]

> <STRUCTURE_Shown>
tested chemical

> <STRUCTURE_Formula>
C15H14O9

> <STRUCTURE_MW>
338.2663

> <STRUCTURE_ChemType>
defined organic

> <STRUCTURE_DefinedOrganicForm>
complex

> <STRUCTURE_IUPAC>
2-(2,4-dihydroxyphenyl)-3,5,7-trihydroxy-4H-chromen-4-one dihydrate

> <STRUCTURE_SMILES>
O.O.Oc3ccc(C=2Oc1cc(O)cc(O)c1C(=O)C=2O)c(O)c3

> <STRUCTURE_SMILES_Desalt>
Oc3ccc(C=2Oc1cc(O)cc(O)c1C(=O)C=2O)c(O)c3

> <Substance_modify_yyyymmdd>
20080429

$$$$
