65405-77-8
ChemmineR-0915142007XD

 16 16  0  0  0  0  0  0  0  0  1 V2000
    2.6539   -4.6094    0.0000 C   0  0  0  0  0  0  0  0  0  0  0  0
    1.9854   -3.4421    0.0000 C   0  0  0  0  0  0  0  0  0  0  0  0
    0.6585   -3.4421    0.0000 C   0  0  0  0  0  0  0  0  0  0  0  0
    0.0000   -4.6094    0.0000 C   0  0  0  0  0  0  0  0  0  0  0  0
    0.6585   -5.7567    0.0000 C   0  0  0  0  0  0  0  0  0  0  0  0
    1.9854   -5.7567    0.0000 C   0  0  0  0  0  0  0  0  0  0  0  0
    2.6539   -2.2947    0.0000 C   0  0  0  0  0  0  0  0  0  0  0  0
    1.9854   -1.1474    0.0000 O   0  0  0  0  0  0  0  0  0  0  0  0
    3.9908   -2.2947    0.0000 O   0  0  0  0  0  0  0  0  0  0  0  0
    4.6593   -1.1474    0.0000 C   0  0  0  0  0  0  0  0  0  0  0  0
    5.9862   -1.1474    0.0000 C   0  0  0  0  0  0  0  0  0  0  0  0
    6.6447    0.0000    0.0000 C   0  0  0  0  0  0  0  0  0  0  0  0
    7.9716    0.0000    0.0000 C   0  0  0  0  0  0  0  0  0  0  0  0
    8.6301   -1.1474    0.0000 C   0  0  0  0  0  0  0  0  0  0  0  0
    9.9770   -1.1474    0.0000 C   0  0  0  0  0  0  0  0  0  0  0  0
    0.0000   -2.2947    0.0000 O   0  0  0  0  0  0  0  0  0  0  0  0
  1  2  1  0  0  0  0
  1  6  2  0  0  0  0
  2  3  2  0  0  0  0
  2  7  1  0  0  0  0
  3  4  1  0  0  0  0
  3 16  1  0  0  0  0
  4  5  2  0  0  0  0
  5  6  1  0  0  0  0
  7  8  2  0  0  0  0
  7  9  1  0  0  0  0
  9 10  1  0  0  0  0
 10 11  1  0  0  0  0
 11 12  1  0  0  0  0
 12 13  2  0  0  0  0
 13 14  1  0  0  0  0
 14 15  1  0  0  0  0
M  END
> <ID>
7428

> <Formula>
C13H16O3

> <FW>
220.2643

> <DSSTox_CID>
17750

> <DSSTox_RID>
79374

> <DSSTox_GSID>
37750

> <DSSTox_FileID_Sort>
4056

> <TS_ChemName>
(3Z)-Hex-3-en-1-yl salicylate

> <TS_ChemName_Synonyms>
cis-3-hexenylsalicylate

> <TS_CASRN>
65405-77-8

> <CASRN_ChemName_Relationship>
primary

> <TS_Description>
single chemical compound

> <ChemNote>


> <STRUCTURE_Shown>
tested chemical

> <STRUCTURE_Formula>
C13H16O3

> <STRUCTURE_MW>
220.2643

> <STRUCTURE_ChemType>
defined organic

> <STRUCTURE_DefinedOrganicForm>
parent

> <STRUCTURE_IUPAC>
(3Z)-hex-3-en-1-yl 2-hydroxybenzoate

> <STRUCTURE_SMILES>
Oc1ccccc1C(=O)OCC/C=C\CC

> <STRUCTURE_SMILES_Desalt>
Oc1ccccc1C(=O)OCC/C=C\CC

> <Substance_modify_yyyymmdd>
20080429

$$$$
