654058-04-5
ChemmineR-0915142007XD

 14 13  0  0  0  0  0  0  0  0  2 V2000
    3.4211   -1.2604    0.0000 N   0  0  0  0  0  0  0  0  0  0  0  0
    1.2794   -1.2604    0.0000 N   0  3  0  0  0  0  0  0  0  0  0  0
    2.3313   -2.0659    0.0000 C   0  0  0  0  0  0  0  0  0  0  0  0
    3.0231    0.0000    0.0000 C   0  0  0  0  0  0  0  0  0  0  0  0
    1.6964    0.0000    0.0000 C   0  0  0  0  0  0  0  0  0  0  0  0
    0.0000   -1.6490    0.0000 C   0  0  0  0  0  0  0  0  0  0  0  0
    4.6815   -1.6774    0.0000 C   0  0  0  0  0  0  0  0  0  0  0  0
    7.4772   -2.5303    0.0000 P   0  0  0  0  0  0  0  0  0  0  0  0
    6.3305   -3.1842    0.0000 O   0  0  0  0  0  0  0  0  0  0  0  0
    8.1501   -3.6770    0.0000 O   0  0  0  0  0  0  0  0  0  0  0  0
    6.8233   -1.3741    0.0000 O   0  5  0  0  0  0  0  0  0  0  0  0
    8.6334   -1.8575    0.0000 O   0  0  0  0  0  0  0  0  0  0  0  0
    8.6334   -0.5307    0.0000 C   0  0  0  0  0  0  0  0  0  0  0  0
    9.4768   -3.6770    0.0000 C   0  0  0  0  0  0  0  0  0  0  0  0
  1  3  1  0  0  0  0
  1  4  1  0  0  0  0
  1  7  1  0  0  0  0
  2  3  2  0  0  0  0
  2  5  1  0  0  0  0
  2  6  1  0  0  0  0
  4  5  2  0  0  0  0
  8  9  2  0  0  0  0
  8 10  1  0  0  0  0
  8 11  1  0  0  0  0
  8 12  1  0  0  0  0
 10 14  1  0  0  0  0
 12 13  1  0  0  0  0
M  END
> <ID>
13043

> <Formula>
C7H15N2O4P

> <FW>
222.1788 (97.1378+125.0410)

> <DSSTox_CID>
27946

> <DSSTox_RID>
82698

> <DSSTox_GSID>
47970

> <DSSTox_FileID_Sort>
7375

> <TS_ChemName>
1,3-Dimethylimidazolium dimethyl phosphate

> <TS_ChemName_Synonyms>


> <TS_CASRN>
654058-04-5

> <CASRN_ChemName_Relationship>
primary

> <TS_Description>
single chemical compound

> <ChemNote>
ammonium; parent [45470-32-4]

> <STRUCTURE_Shown>
tested chemical

> <STRUCTURE_Formula>
C7H15N2O4P

> <STRUCTURE_MW>
222.1788

> <STRUCTURE_ChemType>
defined organic

> <STRUCTURE_DefinedOrganicForm>
salt

> <STRUCTURE_IUPAC>
1,3-dimethyl-1H-imidazol-3-ium dimethyl phosphate

> <STRUCTURE_SMILES>
C[n+]1ccn(C)c1.[O-]P(=O)(OC)OC

> <STRUCTURE_SMILES_Desalt>
C[n+]1ccn(C)c1

> <Substance_modify_yyyymmdd>
20110418

$$$$
