65416-14-0
ChemmineR-0915142007XD

 14 14  0  0  0  0  0  0  0  0  1 V2000
    3.4551   -1.3337    0.0000 O   0  0  0  0  0  0  0  0  0  0  0  0
    4.5953   -1.9971    0.0000 C   0  0  0  0  0  0  0  0  0  0  0  0
    2.3149   -1.9971    0.0000 C   0  0  0  0  0  0  0  0  0  0  0  0
    5.7562   -1.3337    0.0000 C   0  0  0  0  0  0  0  0  0  0  0  0
    4.5953   -3.3307    0.0000 O   0  0  0  0  0  0  0  0  0  0  0  0
    2.3149   -3.3307    0.0000 C   0  0  0  0  0  0  0  0  0  0  0  0
    1.1540   -1.3337    0.0000 C   0  0  0  0  0  0  0  0  0  0  0  0
    5.7562    0.0000    0.0000 C   0  0  0  0  0  0  0  0  0  0  0  0
    6.9102   -1.9971    0.0000 C   0  0  0  0  0  0  0  0  0  0  0  0
    3.4551   -3.9872    0.0000 O   0  0  0  0  0  0  0  0  0  0  0  0
    1.1540   -3.9872    0.0000 C   0  0  0  0  0  0  0  0  0  0  0  0
    1.1540    0.0000    0.0000 C   0  0  0  0  0  0  0  0  0  0  0  0
    0.0000   -1.9971    0.0000 O   0  0  0  0  0  0  0  0  0  0  0  0
    0.0000   -3.3307    0.0000 C   0  0  0  0  0  0  0  0  0  0  0  0
  1  2  1  0  0  0  0
  1  3  1  0  0  0  0
  2  4  1  0  0  0  0
  2  5  2  0  0  0  0
  3  6  1  0  0  0  0
  3  7  2  0  0  0  0
  4  8  1  0  0  0  0
  4  9  1  0  0  0  0
  6 10  2  0  0  0  0
  6 11  1  0  0  0  0
  7 12  1  0  0  0  0
  7 13  1  0  0  0  0
 11 14  2  0  0  0  0
 13 14  1  0  0  0  0
M  END
> <ID>
12822

> <Formula>
C10H12O4

> <FW>
196.1999

> <DSSTox_CID>
27701

> <DSSTox_RID>
82509

> <DSSTox_GSID>
47703

> <DSSTox_FileID_Sort>
7190

> <TS_ChemName>
Maltol isobutyrate

> <TS_ChemName_Synonyms>


> <TS_CASRN>
65416-14-0

> <CASRN_ChemName_Relationship>
primary

> <TS_Description>
single chemical compound

> <ChemNote>


> <STRUCTURE_Shown>
tested chemical

> <STRUCTURE_Formula>
C10H12O4

> <STRUCTURE_MW>
196.1999

> <STRUCTURE_ChemType>
defined organic

> <STRUCTURE_DefinedOrganicForm>
parent

> <STRUCTURE_IUPAC>
2-methyl-4-oxo-4H-pyran-3-yl 2-methylpropanoate

> <STRUCTURE_SMILES>
O=C1C=COC(C)=C1OC(=O)C(C)C

> <STRUCTURE_SMILES_Desalt>
O=C1C=COC(C)=C1OC(=O)C(C)C

> <Substance_modify_yyyymmdd>
20101215

$$$$
