65473-14-5
ChemmineR-0915142007XD

 23 24  0  0  0  0  0  0  0  0  1 V2000
    3.4790   -3.9645    0.0000 C    0  0  0  0  0  0  0  0  0  0  0  0
    2.3232   -4.6233    0.0000 C    0  0  0  0  0  0  0  0  0  0  0  0
    3.4790   -2.6237    0.0000 C    0  0  0  0  0  0  0  0  0  0  0  0
    6.9349   -1.9649    0.0000 C    0  0  0  0  0  0  0  0  0  0  0  0
    8.0792   -2.6584    0.0000 C    0  0  0  0  0  0  0  0  0  0  0  0
    4.6233   -1.9649    0.0000 N    0  0  0  0  0  0  0  0  0  0  0  0
    2.3232   -5.9525    0.0000 C    0  0  0  0  0  0  0  0  0  0  0  0
    9.2581   -1.9996    0.0000 C    0  0  0  0  0  0  0  0  0  0  0  0
    5.7907   -2.6237    0.0000 C    0  0  0  0  0  0  0  0  0  0  0  0
    4.6233   -4.6580    0.0000 C    0  0  0  0  0  0  0  0  0  0  0  0
    4.6233   -5.9294    0.0000 C    0  0  0  0  0  0  0  0  0  0  0  0
    1.1674   -3.9645    0.0000 C    0  0  0  0  0  0  0  0  0  0  0  0
    3.4790   -6.6229    0.0000 C    0  0  0  0  0  0  0  0  0  0  0  0
    4.6233   -0.6357    0.0000 C    0  0  0  0  0  0  0  0  0  0  0  0
    1.1674   -6.6229    0.0000 C    0  0  0  0  0  0  0  0  0  0  0  0
    9.2581   -0.6473    0.0000 C    0  0  0  0  0  0  0  0  0  0  0  0
   10.4024   -2.6584    0.0000 C    0  0  0  0  0  0  0  0  0  0  0  0
    0.0000   -4.6580    0.0000 C    0  0  0  0  0  0  0  0  0  0  0  0
    0.0000   -5.9294    0.0000 C    0  0  0  0  0  0  0  0  0  0  0  0
   11.5582   -1.9649    0.0000 C    0  0  0  0  0  0  0  0  0  0  0  0
   10.4024    0.0000    0.0000 C    0  0  0  0  0  0  0  0  0  0  0  0
   11.5582   -0.6357    0.0000 C    0  0  0  0  0  0  0  0  0  0  0  0
    6.9349   -3.9182    0.0000 Cl   0  0  0  0  0  0  0  0  0  0  0  0
  1  2  2  0  0  0  0
  1  3  1  0  0  0  0
  1 10  1  0  0  0  0
  2  7  1  0  0  0  0
  2 12  1  0  0  0  0
  3  6  1  0  0  0  0
  4  9  1  0  0  0  0
  4  5  2  0  0  0  0
  5  8  1  0  0  0  0
  6  9  1  0  0  0  0
  6 14  1  0  0  0  0
  7 15  1  0  0  0  0
  7 13  2  0  0  0  0
  8 16  2  0  0  0  0
  8 17  1  0  0  0  0
 10 11  2  0  0  0  0
 11 13  1  0  0  0  0
 12 18  2  0  0  0  0
 15 19  2  0  0  0  0
 16 21  1  0  0  0  0
 17 20  2  0  0  0  0
 18 19  1  0  0  0  0
 20 22  1  0  0  0  0
 21 22  2  0  0  0  0
M  END
> <ID>
10983

> <Formula>
C21H22ClN

> <FW>
323.8591 (287.3981+36.4609)

> <DSSTox_CID>
25496

> <DSSTox_RID>
80915

> <DSSTox_GSID>
45496

> <DSSTox_FileID_Sort>
5596

> <TS_ChemName>
Naftifine hydrochloride

> <TS_ChemName_Synonyms>


> <TS_CASRN>
65473-14-5

> <CASRN_ChemName_Relationship>
primary

> <TS_Description>
single chemical compound

> <ChemNote>
stereochem; parent [65472-88-0]

> <STRUCTURE_Shown>
tested chemical

> <STRUCTURE_Formula>
C21H22ClN

> <STRUCTURE_MW>
323.8591

> <STRUCTURE_ChemType>
defined organic

> <STRUCTURE_DefinedOrganicForm>
complex

> <STRUCTURE_IUPAC>
(2E)-N-methyl-N-(naphthalen-1-ylmethyl)-3-phenylprop-2-en-1-amine hydrochloride (1:1)

> <STRUCTURE_SMILES>
Cl.CN(C\C=C\c1ccccc1)Cc3cccc2ccccc23

> <STRUCTURE_SMILES_Desalt>
CN(C\C=C\c1ccccc1)Cc3cccc2ccccc23

> <Substance_modify_yyyymmdd>
20100107

$$$$
