655-35-6
ChemmineR-0915142007XD

 27 27  0  0  0  0  0  0  0  0  1 V2000
    9.2128   -3.3338    0.0000 C    0  0  0  0  0  0  0  0  0  0  0  0
    9.2128   -2.0196    0.0000 C    0  0  0  0  0  0  0  0  0  0  0  0
    8.0508   -4.0116    0.0000 C    0  0  0  0  0  0  0  0  0  0  0  0
    8.0508   -1.3556    0.0000 O    0  0  0  0  0  0  0  0  0  0  0  0
    6.9027   -2.0196    0.0000 C    0  0  0  0  0  0  0  0  0  0  0  0
    6.9027   -3.3338    0.0000 C    0  0  0  0  0  0  0  0  0  0  0  0
    5.7684   -1.3556    0.0000 C    0  0  0  0  0  0  0  0  0  0  0  0
   10.4024   -4.0392    0.0000 C    0  0  0  0  0  0  0  0  0  0  0  0
    5.7684   -4.0116    0.0000 C    0  0  0  0  0  0  0  0  0  0  0  0
   10.4024   -1.3556    0.0000 O    0  0  0  0  0  0  0  0  0  0  0  0
    1.1481   -1.3556    0.0000 C    0  0  0  0  0  0  0  0  0  0  0  0
    1.1481    0.0000    0.0000 O    0  0  0  0  0  0  0  0  0  0  0  0
    4.6202   -2.0196    0.0000 C    0  0  0  0  0  0  0  0  0  0  0  0
    3.4306   -1.3556    0.0000 O    0  0  0  0  0  0  0  0  0  0  0  0
   11.5368   -3.3614    0.0000 C    0  0  0  0  0  0  0  0  0  0  0  0
    2.3101   -1.9920    0.0000 C    0  0  0  0  0  0  0  0  0  0  0  0
   12.6849   -4.0392    0.0000 N    0  0  0  0  0  0  0  0  0  0  0  0
    4.6202   -3.3338    0.0000 C    0  0  0  0  0  0  0  0  0  0  0  0
    8.0508   -5.3119    0.0000 C    0  0  0  0  0  0  0  0  0  0  0  0
    0.0000   -1.9920    0.0000 O    0  0  0  0  0  0  0  0  0  0  0  0
   13.8330   -3.3199    0.0000 C    0  0  0  0  0  0  0  0  0  0  0  0
   12.6849   -5.3119    0.0000 C    0  0  0  0  0  0  0  0  0  0  0  0
    0.0000   -3.3199    0.0000 C    0  0  0  0  0  0  0  0  0  0  0  0
   11.5368   -6.0035    0.0000 C    0  0  0  0  0  0  0  0  0  0  0  0
   13.8330   -1.9366    0.0000 C    0  0  0  0  0  0  0  0  0  0  0  0
    1.1620   -3.9148    0.0000 C    0  0  0  0  0  0  0  0  0  0  0  0
    4.5372   -5.2704    0.0000 Cl   0  0  0  0  0  0  0  0  0  0  0  0
  1  2  1  0  0  0  0
  1  3  2  0  0  0  0
  1  8  1  0  0  0  0
  2  4  1  0  0  0  0
  2 10  2  0  0  0  0
  3  6  1  0  0  0  0
  3 19  1  0  0  0  0
  4  5  1  0  0  0  0
  5  6  2  0  0  0  0
  5  7  1  0  0  0  0
  6  9  1  0  0  0  0
  7 13  2  0  0  0  0
  8 15  1  0  0  0  0
  9 18  2  0  0  0  0
 11 16  1  0  0  0  0
 11 12  2  0  0  0  0
 11 20  1  0  0  0  0
 13 18  1  0  0  0  0
 13 14  1  0  0  0  0
 14 16  1  0  0  0  0
 15 17  1  0  0  0  0
 17 21  1  0  0  0  0
 17 22  1  0  0  0  0
 20 23  1  0  0  0  0
 21 25  1  0  0  0  0
 22 24  1  0  0  0  0
 23 26  1  0  0  0  0
M  END
> <ID>
13740

> <Formula>
C20H28ClNO5

> <FW>
397.8930 (361.4321+36.4609)

> <DSSTox_CID>
28675

> <DSSTox_RID>
82945

> <DSSTox_GSID>
48749

> <DSSTox_FileID_Sort>
7622

> <TS_ChemName>
Chromonar hydrochloride

> <TS_ChemName_Synonyms>


> <TS_CASRN>
655-35-6

> <CASRN_ChemName_Relationship>
primary

> <TS_Description>
single chemical compound

> <ChemNote>


> <STRUCTURE_Shown>
tested chemical

> <STRUCTURE_Formula>
C20H28ClNO5

> <STRUCTURE_MW>
397.893

> <STRUCTURE_ChemType>
defined organic

> <STRUCTURE_DefinedOrganicForm>
complex

> <STRUCTURE_IUPAC>
ethyl ({3-[2-(diethylamino)ethyl]-4-methyl-2-oxo-2H-chromen-7-yl}oxy)acetate hydrochloride (1:1)

> <STRUCTURE_SMILES>
Cl.O=C(OCC)COc1ccc2c(c1)OC(=O)C(CCN(CC)CC)=C2C

> <STRUCTURE_SMILES_Desalt>
O=C(OCC)COc1ccc2c(c1)OC(=O)C(CCN(CC)CC)=C2C

> <Substance_modify_yyyymmdd>
20111204

$$$$
