65505-17-1
ChemmineR-0915142007XD

  9  9  0  0  0  0  0  0  0  0  1 V2000
    3.8423   -2.9951    0.0000 S   0  0  0  0  0  0  0  0  0  0  0  0
    2.5322   -3.1248    0.0000 S   0  0  0  0  0  0  0  0  0  0  0  0
    4.6293   -4.0691    0.0000 C   0  0  0  0  0  0  0  0  0  0  0  0
    1.0740    0.0000    0.0000 O   0  0  0  0  0  0  0  0  0  0  0  0
    2.1619   -0.7870    0.0000 C   0  0  0  0  0  0  0  0  0  0  0  0
    0.0000   -0.7870    0.0000 C   0  0  0  0  0  0  0  0  0  0  0  0
    1.7452   -2.0508    0.0000 C   0  0  0  0  0  0  0  0  0  0  0  0
    0.4166   -2.0508    0.0000 C   0  0  0  0  0  0  0  0  0  0  0  0
    3.4257   -0.3842    0.0000 C   0  0  0  0  0  0  0  0  0  0  0  0
  1  2  1  0  0  0  0
  1  3  1  0  0  0  0
  2  7  1  0  0  0  0
  4  5  1  0  0  0  0
  4  6  1  0  0  0  0
  5  7  2  0  0  0  0
  5  9  1  0  0  0  0
  6  8  2  0  0  0  0
  7  8  1  0  0  0  0
M  END
> <ID>
12823

> <Formula>
C6H8OS2

> <FW>
160.2571

> <DSSTox_CID>
27702

> <DSSTox_RID>
82510

> <DSSTox_GSID>
47704

> <DSSTox_FileID_Sort>
7191

> <TS_ChemName>
Methyl 2-methyl-3-furyl disulfide

> <TS_ChemName_Synonyms>


> <TS_CASRN>
65505-17-1

> <CASRN_ChemName_Relationship>
primary

> <TS_Description>
single chemical compound

> <ChemNote>


> <STRUCTURE_Shown>
tested chemical

> <STRUCTURE_Formula>
C6H8OS2

> <STRUCTURE_MW>
160.2571

> <STRUCTURE_ChemType>
defined organic

> <STRUCTURE_DefinedOrganicForm>
parent

> <STRUCTURE_IUPAC>
2-methyl-3-(methyldisulfanyl)furan

> <STRUCTURE_SMILES>
Cc1occc1SSC

> <STRUCTURE_SMILES_Desalt>
Cc1occc1SSC

> <Substance_modify_yyyymmdd>
20101215

$$$$
