65513-72-6
ChemmineR-0915142007XD

 27 28  0  0  0  0  0  0  0  0  1 V2000
    6.9214   -6.0490    0.0000 C    0  0  0  0  0  0  0  0  0  0  0  0
    5.7775   -4.0520    0.0000 N    0  0  0  0  0  0  0  0  0  0  0  0
    4.6337   -2.0454    0.0000 C    0  0  0  0  0  0  0  0  0  0  0  0
    5.7388   -6.7469    0.0000 C    0  0  0  0  0  0  0  0  0  0  0  0
    6.9214   -4.7112    0.0000 C    0  0  0  0  0  0  0  0  0  0  0  0
    5.7775   -2.7046    0.0000 C    0  0  0  0  0  0  0  0  0  0  0  0
    4.6337   -0.6980    0.0000 C    0  0  0  0  0  0  0  0  0  0  0  0
    3.4898   -0.0485    0.0000 C    0  0  0  0  0  0  0  0  0  0  0  0
    3.4898   -2.7046    0.0000 C    0  0  0  0  0  0  0  0  0  0  0  0
    5.7775   -0.0485    0.0000 N    0  0  0  0  0  0  0  0  0  0  0  0
    4.5658   -6.0684    0.0000 O    0  0  0  0  0  0  0  0  0  0  0  0
    5.7582   -8.0944    0.0000 O    0  0  0  0  0  0  0  0  0  0  0  0
    2.3459   -0.6980    0.0000 C    0  0  0  0  0  0  0  0  0  0  0  0
    6.9214   -2.0454    0.0000 C    0  0  0  0  0  0  0  0  0  0  0  0
    2.3459   -2.0454    0.0000 C    0  0  0  0  0  0  0  0  0  0  0  0
    3.4316   -6.6985    0.0000 C    0  0  0  0  0  0  0  0  0  0  0  0
    6.9214   -0.6980    0.0000 C    0  0  0  0  0  0  0  0  0  0  0  0
    2.2878   -6.0684    0.0000 C    0  0  0  0  0  0  0  0  0  0  0  0
    1.1730    0.0000    0.0000 Cl   0  0  0  0  0  0  0  0  0  0  0  0
    8.0556   -6.7179    0.0000 C    0  0  0  0  0  0  0  0  0  0  0  0
    2.2878   -4.7306    0.0000 O    0  0  0  0  0  0  0  0  0  0  0  0
    8.0556   -4.0520    0.0000 C    0  0  0  0  0  0  0  0  0  0  0  0
    0.0000   -5.9811    0.0000 O    0  0  0  0  0  0  0  0  0  0  0  0
    1.1439   -6.6985    0.0000 C    0  0  0  0  0  0  0  0  0  0  0  0
    9.1995   -6.0490    0.0000 C    0  0  0  0  0  0  0  0  0  0  0  0
    9.1995   -4.7112    0.0000 C    0  0  0  0  0  0  0  0  0  0  0  0
    9.6939   -3.0633    0.0000 Cl   0  0  0  0  0  0  0  0  0  0  0  0
  1  4  1  0  0  0  0
  1  5  2  0  0  0  0
  1 20  1  0  0  0  0
  2  5  1  0  0  0  0
  2  6  1  0  0  0  0
  3  6  2  0  0  0  0
  3  7  1  0  0  0  0
  3  9  1  0  0  0  0
  4 11  1  0  0  0  0
  4 12  2  0  0  0  0
  5 22  1  0  0  0  0
  6 14  1  0  0  0  0
  7  8  1  0  0  0  0
  7 10  2  0  0  0  0
  8 13  2  0  0  0  0
  9 15  2  0  0  0  0
 10 17  1  0  0  0  0
 11 16  1  0  0  0  0
 13 15  1  0  0  0  0
 13 19  1  0  0  0  0
 14 17  2  0  0  0  0
 16 18  1  0  0  0  0
 18 21  1  0  0  0  0
 18 24  1  0  0  0  0
 20 25  2  0  0  0  0
 22 26  2  0  0  0  0
 23 24  1  0  0  0  0
 25 26  1  0  0  0  0
M  END
> <ID>
10984

> <Formula>
C19H18Cl2N2O4

> <FW>
409.2632 (372.8023+36.4609)

> <DSSTox_CID>
25497

> <DSSTox_RID>
80916

> <DSSTox_GSID>
45497

> <DSSTox_FileID_Sort>
5597

> <TS_ChemName>
Glafenine hydrochloride

> <TS_ChemName_Synonyms>


> <TS_CASRN>
65513-72-6

> <CASRN_ChemName_Relationship>
primary

> <TS_Description>
single chemical compound

> <ChemNote>
parent [3820-67-5]

> <STRUCTURE_Shown>
tested chemical

> <STRUCTURE_Formula>
C19H18Cl2N2O4

> <STRUCTURE_MW>
409.2632

> <STRUCTURE_ChemType>
defined organic

> <STRUCTURE_DefinedOrganicForm>
complex

> <STRUCTURE_IUPAC>
2,3-dihydroxypropyl 2-[(7-chloroquinolin-4-yl)amino]benzoate hydrochloride (1:1)

> <STRUCTURE_SMILES>
Cl.OCC(O)COC(=O)c3ccccc3Nc1ccnc2cc(Cl)ccc12

> <STRUCTURE_SMILES_Desalt>
OCC(O)COC(=O)c3ccccc3Nc1ccnc2cc(Cl)ccc12

> <Substance_modify_yyyymmdd>
20100107

$$$$
