65558-69-2
ChemmineR-0915142007XD

 15 17  0  0  0  0  0  0  0  0  1 V2000
    4.5589   -1.6547    0.0000 C   0  0  0  0  0  0  0  0  0  0  0  0
    4.5589   -2.9373    0.0000 C   0  0  0  0  0  0  0  0  0  0  0  0
    6.6456   -2.3127    0.0000 N   0  0  0  0  0  0  0  0  0  0  0  0
    5.8282   -1.2560    0.0000 C   0  0  0  0  0  0  0  0  0  0  0  0
    5.8282   -3.3560    0.0000 C   0  0  0  0  0  0  0  0  0  0  0  0
    3.4690   -0.9304    0.0000 C   0  0  0  0  0  0  0  0  0  0  0  0
    3.4690   -3.6617    0.0000 C   0  0  0  0  0  0  0  0  0  0  0  0
    2.2661   -2.9373    0.0000 C   0  0  0  0  0  0  0  0  0  0  0  0
    2.2661   -1.6547    0.0000 C   0  0  0  0  0  0  0  0  0  0  0  0
    1.1364   -3.6617    0.0000 C   0  0  0  0  0  0  0  0  0  0  0  0
    0.0000   -2.9373    0.0000 C   0  0  0  0  0  0  0  0  0  0  0  0
    0.0000   -1.6547    0.0000 C   0  0  0  0  0  0  0  0  0  0  0  0
    1.1364   -0.9304    0.0000 C   0  0  0  0  0  0  0  0  0  0  0  0
    6.2468   -4.5921    0.0000 N   0  0  0  0  0  0  0  0  0  0  0  0
    6.2468    0.0000    0.0000 N   0  0  0  0  0  0  0  0  0  0  0  0
  1  2  2  0  0  0  0
  1  4  1  0  0  0  0
  1  6  1  0  0  0  0
  2  5  1  0  0  0  0
  2  7  1  0  0  0  0
  3  4  1  0  0  0  0
  3  5  1  0  0  0  0
  4 15  2  0  0  0  0
  5 14  2  0  0  0  0
  6  9  2  0  0  0  0
  7  8  2  0  0  0  0
  8  9  1  0  0  0  0
  8 10  1  0  0  0  0
  9 13  1  0  0  0  0
 10 11  2  0  0  0  0
 11 12  1  0  0  0  0
 12 13  2  0  0  0  0
M  END
> <ID>
6583

> <Formula>
C12H9N3

> <FW>
195.22

> <DSSTox_CID>
12751

> <DSSTox_RID>
79036

> <DSSTox_GSID>
32751

> <DSSTox_FileID_Sort>
3718

> <TS_ChemName>
1,3-Diiminobenz(f)isoindoline

> <TS_ChemName_Synonyms>


> <TS_CASRN>
65558-69-2

> <CASRN_ChemName_Relationship>
primary

> <TS_Description>
single chemical compound

> <ChemNote>


> <STRUCTURE_Shown>
tested chemical

> <STRUCTURE_Formula>
C12H9N3

> <STRUCTURE_MW>
195.22

> <STRUCTURE_ChemType>
defined organic

> <STRUCTURE_DefinedOrganicForm>
parent

> <STRUCTURE_IUPAC>
1H-benzo[f]isoindole-1,3(2H)-diimine

> <STRUCTURE_SMILES>
N=C1NC(=N)c2cc3ccccc3cc12

> <STRUCTURE_SMILES_Desalt>
N=C1NC(=N)c2cc3ccccc3cc12

> <Substance_modify_yyyymmdd>
20080429

$$$$
