65576-45-6
ChemmineR-0915142007XD

 22 25  0  0  1  0  0  0  0  0  1 V2000
    5.0153   -0.3233    0.0000 O    0  0  0  0  0  0  0  0  0  0  0  0
    6.2211   -0.9000    0.0000 C    0  0  0  0  0  0  0  0  0  0  0  0
    6.4920   -2.1931    0.0000 C    0  0  0  0  0  0  0  0  0  0  0  0
    7.7589   -2.5776    0.0000 C    0  0  0  0  0  0  0  0  0  0  0  0
    8.7375   -1.6863    0.0000 C    0  0  0  0  0  0  0  0  0  0  0  0
    8.4492   -0.3670    0.0000 C    0  0  0  0  0  0  0  0  0  0  0  0
    7.1823    0.0000    0.0000 C    0  0  0  0  0  0  0  0  0  0  0  0
    3.5300   -2.1931    0.0000 C    0  0  0  0  0  0  0  0  0  0  0  0
    3.8183   -0.9000    0.0000 C    0  0  0  0  0  0  0  0  0  0  0  0
    2.8572    0.0000    0.0000 C    0  0  0  0  0  0  0  0  0  0  0  0
    1.5728   -0.3670    0.0000 C    0  0  0  0  0  0  0  0  0  0  0  0
    1.2844   -1.6863    0.0000 C    0  0  0  0  0  0  0  0  0  0  0  0
    2.2455   -2.5776    0.0000 C    0  0  0  0  0  0  0  0  0  0  0  0
    5.6619   -3.2242    0.0000 C    0  0  0  0  0  0  0  0  0  0  0  0
    4.3426   -3.2242    0.0000 C    0  0  0  0  0  0  0  0  0  0  0  0
    3.9319   -4.4911    0.0000 C    0  0  0  0  0  0  0  0  0  0  0  0
    5.0153   -5.2775    0.0000 N    0  0  0  0  0  0  0  0  0  0  0  0
    6.0901   -4.4911    0.0000 C    0  0  0  0  0  0  0  0  0  0  0  0
    5.0153   -6.6056    0.0000 C    0  0  0  0  0  0  0  0  0  0  0  0
    0.0000   -2.0708    0.0000 Cl   0  0  0  0  0  0  0  0  0  0  0  0
    3.0756   -3.6698    0.0000 H    0  0  0  0  0  0  0  0  0  0  0  0
    6.9289   -3.6698    0.0000 H    0  0  0  0  0  0  0  0  0  0  0  0
  1  9  1  0  0  0  0
  1  2  1  0  0  0  0
  2  3  1  0  0  0  0
  2  7  2  0  0  0  0
  3 14  1  0  0  0  0
  3  4  2  0  0  0  0
  4  5  1  0  0  0  0
  5  6  2  0  0  0  0
  6  7  1  0  0  0  0
  8  9  1  0  0  0  0
  8 15  1  0  0  0  0
  8 13  2  0  0  0  0
  9 10  2  0  0  0  0
 10 11  1  0  0  0  0
 11 12  2  0  0  0  0
 12 20  1  0  0  0  0
 12 13  1  0  0  0  0
 14 18  1  0  0  0  0
 14 22  1  1  0  0  0
 14 15  1  0  0  0  0
 15 16  1  0  0  0  0
 15 21  1  6  0  0  0
 16 17  1  0  0  0  0
 17 18  1  0  0  0  0
 17 19  1  0  0  0  0
M  END
> <ID>
14032

> <Formula>
C17H16ClNO

> <FW>
285.768

> <DSSTox_CID>
28974

> <DSSTox_RID>
83239

> <DSSTox_GSID>
49048

> <DSSTox_FileID_Sort>
7914

> <TS_ChemName>
Asenapine

> <TS_ChemName_Synonyms>


> <TS_CASRN>
65576-45-6

> <CASRN_ChemName_Relationship>
primary

> <TS_Description>
single chemical compound

> <ChemNote>


> <STRUCTURE_Shown>
tested chemical

> <STRUCTURE_Formula>
C17H16ClNO

> <STRUCTURE_MW>
285.768

> <STRUCTURE_ChemType>
defined organic

> <STRUCTURE_DefinedOrganicForm>
parent

> <STRUCTURE_IUPAC>
(3aR,12bR)-5-chloro-2-methyl-2,3,3a,12b-tetrahydro-1H-dibenzo[2,3:6,7]oxepino[4,5-c]pyrrole

> <STRUCTURE_SMILES>
Clc1cc3c(cc1)Oc2ccccc2[C@@H]4CN(C)C[C@@H]34

> <STRUCTURE_SMILES_Desalt>
Clc1cc3c(cc1)Oc2ccccc2[C@@H]4CN(C)C[C@@H]34

> <Substance_modify_yyyymmdd>
20111204

$$$$
