65571-68-8
ChemmineR-0915142007XD

 13 14  0  0  0  0  0  0  0  0  1 V2000
    4.8758   -3.7609    0.0000 C    0  0  0  0  0  0  0  0  0  0  0  0
    3.9826   -4.7482    0.0000 C    0  0  0  0  0  0  0  0  0  0  0  0
    2.6595   -4.6072    0.0000 C    0  0  0  0  0  0  0  0  0  0  0  0
    2.1222   -5.8227    0.0000 N    0  0  0  0  0  0  0  0  0  0  0  0
    3.1095   -6.7160    0.0000 C    0  0  0  0  0  0  0  0  0  0  0  0
    4.2579   -6.0511    0.0000 N    0  0  0  0  0  0  0  0  0  0  0  0
    1.9946   -3.4587    0.0000 C    0  0  0  0  0  0  0  0  0  0  0  0
    2.6595   -2.3036    0.0000 C    0  0  0  0  0  0  0  0  0  0  0  0
    1.9946   -1.1551    0.0000 C    0  0  0  0  0  0  0  0  0  0  0  0
    0.6649   -1.1551    0.0000 C    0  0  0  0  0  0  0  0  0  0  0  0
    0.0000    0.0000    0.0000 Cl   0  0  0  0  0  0  0  0  0  0  0  0
    0.0000   -2.3036    0.0000 C    0  0  0  0  0  0  0  0  0  0  0  0
    0.6649   -3.4587    0.0000 C    0  0  0  0  0  0  0  0  0  0  0  0
  1  2  1  0  0  0  0
  2  3  2  0  0  0  0
  2  6  1  0  0  0  0
  3  4  1  0  0  0  0
  3  7  1  0  0  0  0
  4  5  2  0  0  0  0
  5  6  1  0  0  0  0
  7  8  2  0  0  0  0
  7 13  1  0  0  0  0
  8  9  1  0  0  0  0
  9 10  2  0  0  0  0
 10 11  1  0  0  0  0
 10 12  1  0  0  0  0
 12 13  2  0  0  0  0
M  END
> <ID>
16195

> <Formula>
C10H9ClN2

> <FW>
192.6449

> <DSSTox_CID>
31586

> <DSSTox_RID>
97470

> <DSSTox_GSID>
57797

> <DSSTox_FileID_Sort>
8537

> <TS_ChemName>
Lofemizole

> <TS_ChemName_Synonyms>


> <TS_CASRN>
65571-68-8

> <CASRN_ChemName_Relationship>
primary

> <TS_Description>
single chemical compound

> <ChemNote>


> <STRUCTURE_Shown>
tested chemical

> <STRUCTURE_Formula>
C10H9ClN2

> <STRUCTURE_MW>
192.6449

> <STRUCTURE_ChemType>
defined organic

> <STRUCTURE_DefinedOrganicForm>
parent

> <STRUCTURE_IUPAC>
4-(4-chlorophenyl)-5-methyl-1H-imidazole

> <STRUCTURE_SMILES>
Clc1ccc(cc1)c2ncnc2C

> <STRUCTURE_SMILES_Desalt>
Clc1ccc(cc1)c2ncnc2C

> <Substance_modify_yyyymmdd>
20131018

$$$$
