65589-70-0
ChemmineR-0915142007XD

 34 37  0  0  0  0  0  0  0  0  2 V2000
    7.8659   -4.4222    0.0000 Cl   0  5  0  0  0  0  0  0  0  0  0  0
    4.6161   -3.9883    0.0000 C    0  0  0  0  0  0  0  0  0  0  0  0
    4.6161   -2.6589    0.0000 N    0  3  0  0  0  0  0  0  0  0  0  0
    5.7701   -1.9849    0.0000 C    0  0  0  0  0  0  0  0  0  0  0  0
    6.9242   -2.6589    0.0000 C    0  0  0  0  0  0  0  0  0  0  0  0
    8.0597   -1.9849    0.0000 C    0  0  0  0  0  0  0  0  0  0  0  0
    9.2138   -2.6589    0.0000 N    0  0  0  0  0  0  0  0  0  0  0  0
    8.0597   -0.6555    0.0000 C    0  0  0  0  0  0  0  0  0  0  0  0
    6.9242    0.0000    0.0000 C    0  0  0  0  0  0  0  0  0  0  0  0
    5.7701   -0.6555    0.0000 C    0  0  0  0  0  0  0  0  0  0  0  0
    4.6161    0.0000    0.0000 C    0  0  0  0  0  0  0  0  0  0  0  0
    3.4621   -0.6555    0.0000 C    0  0  0  0  0  0  0  0  0  0  0  0
    3.4621   -1.9849    0.0000 C    0  0  0  0  0  0  0  0  0  0  0  0
    2.3081   -2.6589    0.0000 C    0  0  0  0  0  0  0  0  0  0  0  0
    1.1540   -1.9849    0.0000 C    0  0  0  0  0  0  0  0  0  0  0  0
    0.0000   -2.6589    0.0000 N    0  0  0  0  0  0  0  0  0  0  0  0
    1.1540   -0.6555    0.0000 C    0  0  0  0  0  0  0  0  0  0  0  0
    2.3081    0.0000    0.0000 C    0  0  0  0  0  0  0  0  0  0  0  0
    4.6346   -5.7055    0.0000 N    0  0  0  0  0  0  0  0  0  0  0  0
    5.7886   -6.3795    0.0000 C    0  0  0  0  0  0  0  0  0  0  0  0
    6.9426   -5.7055    0.0000 C    0  0  0  0  0  0  0  0  0  0  0  0
    8.0782   -6.3795    0.0000 C    0  0  0  0  0  0  0  0  0  0  0  0
    9.2322   -5.7055    0.0000 N    0  0  0  0  0  0  0  0  0  0  0  0
    8.0782   -7.7089    0.0000 C    0  0  0  0  0  0  0  0  0  0  0  0
    6.9426   -8.3644    0.0000 C    0  0  0  0  0  0  0  0  0  0  0  0
    5.7886   -7.7089    0.0000 C    0  0  0  0  0  0  0  0  0  0  0  0
    4.6346   -8.3644    0.0000 C    0  0  0  0  0  0  0  0  0  0  0  0
    3.4805   -7.7089    0.0000 C    0  0  0  0  0  0  0  0  0  0  0  0
    3.4805   -6.3795    0.0000 C    0  0  0  0  0  0  0  0  0  0  0  0
    2.3265   -5.7055    0.0000 C    0  0  0  0  0  0  0  0  0  0  0  0
    1.1725   -6.3795    0.0000 C    0  0  0  0  0  0  0  0  0  0  0  0
    0.0185   -5.7055    0.0000 N    0  0  0  0  0  0  0  0  0  0  0  0
    1.1725   -7.7089    0.0000 C    0  0  0  0  0  0  0  0  0  0  0  0
    2.3265   -8.3644    0.0000 C    0  0  0  0  0  0  0  0  0  0  0  0
  2  3  1  0  0  0  0
  3  4  2  0  0  0  0
  3 13  1  0  0  0  0
  4  5  1  0  0  0  0
  4 10  1  0  0  0  0
  5  6  2  0  0  0  0
  6  7  1  0  0  0  0
  6  8  1  0  0  0  0
  8  9  2  0  0  0  0
  9 10  1  0  0  0  0
 10 11  2  0  0  0  0
 11 12  1  0  0  0  0
 12 13  2  0  0  0  0
 12 18  1  0  0  0  0
 13 14  1  0  0  0  0
 14 15  2  0  0  0  0
 15 16  1  0  0  0  0
 15 17  1  0  0  0  0
 17 18  2  0  0  0  0
 19 20  2  0  0  0  0
 19 29  1  0  0  0  0
 20 21  1  0  0  0  0
 20 26  1  0  0  0  0
 21 22  2  0  0  0  0
 22 23  1  0  0  0  0
 22 24  1  0  0  0  0
 24 25  2  0  0  0  0
 25 26  1  0  0  0  0
 26 27  2  0  0  0  0
 27 28  1  0  0  0  0
 28 29  2  0  0  0  0
 28 34  1  0  0  0  0
 29 30  1  0  0  0  0
 30 31  2  0  0  0  0
 31 32  1  0  0  0  0
 31 33  1  0  0  0  0
 33 34  2  0  0  0  0
M  END
> <ID>
11238

> <Formula>
C27H25ClN6

> <FW>
468.9806 (35.4535+224.2805+209.2465)

> <DSSTox_CID>
25848

> <DSSTox_RID>
81170

> <DSSTox_GSID>
45848

> <DSSTox_FileID_Sort>
5851

> <TS_ChemName>
Acriflavine hydrochloride

> <TS_ChemName_Synonyms>


> <TS_CASRN>
65589-70-0

> <CASRN_ChemName_Relationship>
primary

> <TS_Description>
mixture or formulation

> <ChemNote>
mixture of proflavine [92-62-6] and 3,6-diamino-10-methylacridinium chloride [86-40-8]

> <STRUCTURE_Shown>
representative component

> <STRUCTURE_Formula>
C27H25ClN6

> <STRUCTURE_MW>
468.9806

> <STRUCTURE_ChemType>
defined organic

> <STRUCTURE_DefinedOrganicForm>
salt

> <STRUCTURE_IUPAC>
3,6-diamino-10-methylacridinium chloride acridine-3,6-diamine (1:1:1)

> <STRUCTURE_SMILES>
[Cl-].C[n+]1c3cc(N)ccc3cc2ccc(N)cc12.Nc1cc2nc3cc(N)ccc3cc2cc1

> <STRUCTURE_SMILES_Desalt>
C[n+]2c3cc(N)ccc3cc1ccc(N)cc12

> <Substance_modify_yyyymmdd>
20110922

$$$$
