6559-91-7
ChemmineR-0915142007XD

 31 35  0  0  1  0  0  0  0  0  1 V2000
    4.3588   -2.0024    0.0000 C   0  0  0  0  0  0  0  0  0  0  0  0
    4.3588   -3.3343    0.0000 C   0  0  0  0  0  0  0  0  0  0  0  0
    3.2039   -1.3319    0.0000 C   0  0  0  0  0  0  0  0  0  0  0  0
    3.2039   -3.9956    0.0000 C   0  0  0  0  0  0  0  0  0  0  0  0
    2.0490   -2.0024    0.0000 C   0  0  0  0  0  0  0  0  0  0  0  0
    2.0490   -3.3343    0.0000 C   0  0  0  0  0  0  0  0  0  0  0  0
    5.5137   -1.3319    0.0000 C   0  0  0  0  0  0  0  0  0  0  0  0
    6.6686   -2.0024    0.0000 C   0  0  0  0  0  0  0  0  0  0  0  0
    5.5137   -3.9956    0.0000 C   0  0  0  0  0  0  0  0  0  0  0  0
    6.6686   -3.3343    0.0000 C   0  0  0  0  0  0  0  0  0  0  0  0
    7.9352   -1.5833    0.0000 C   0  0  0  0  0  0  0  0  0  0  0  0
    8.7083   -2.6637    0.0000 O   0  0  0  0  0  0  0  0  0  0  0  0
    7.9352   -3.7348    0.0000 C   0  0  0  0  0  0  0  0  0  0  0  0
    0.7823   -1.5833    0.0000 O   0  0  0  0  0  0  0  0  0  0  0  0
    0.0000   -2.6637    0.0000 C   0  0  0  0  0  0  0  0  0  0  0  0
    0.7823   -3.7348    0.0000 O   0  0  0  0  0  0  0  0  0  0  0  0
    5.5137   -5.3181    0.0000 C   0  0  0  0  0  0  0  0  0  0  0  0
    6.6686   -5.9980    0.0000 C   0  0  0  0  0  0  0  0  0  0  0  0
    4.3588   -5.9980    0.0000 C   0  0  0  0  0  0  0  0  0  0  0  0
    6.6686   -7.3299    0.0000 C   0  0  0  0  0  0  0  0  0  0  0  0
    4.3588   -7.3112    0.0000 C   0  0  0  0  0  0  0  0  0  0  0  0
    5.5137   -7.9818    0.0000 C   0  0  0  0  0  0  0  0  0  0  0  0
    5.5137    0.0000    0.0000 O   0  0  0  0  0  0  0  0  0  0  0  0
    6.6406   -0.6706    0.0000 H   0  0  0  0  0  0  0  0  0  0  0  0
    6.6686   -4.6475    0.0000 H   0  0  0  0  0  0  0  0  0  0  0  0
    8.3357   -5.0014    0.0000 O   0  0  0  0  0  0  0  0  0  0  0  0
    3.2039   -7.9818    0.0000 O   0  0  0  0  0  0  0  0  0  0  0  0
    2.0490   -7.3112    0.0000 C   0  0  0  0  0  0  0  0  0  0  0  0
    5.5137   -9.3137    0.0000 O   0  0  0  0  0  0  0  0  0  0  0  0
    7.8235   -7.9818    0.0000 O   0  0  0  0  0  0  0  0  0  0  0  0
    8.9598   -7.3299    0.0000 C   0  0  0  0  0  0  0  0  0  0  0  0
  1  3  2  0  0  0  0
  1  7  1  0  0  0  0
  1  2  1  0  0  0  0
  2  4  2  0  0  0  0
  2  9  1  0  0  0  0
  3  5  1  0  0  0  0
  4  6  1  0  0  0  0
  5  6  2  0  0  0  0
  5 14  1  0  0  0  0
  6 16  1  0  0  0  0
  7  8  1  0  0  0  0
  7 23  1  1  0  0  0
  8 11  1  0  0  0  0
  8 10  1  0  0  0  0
  8 24  1  6  0  0  0
  9 10  1  0  0  0  0
  9 17  1  6  0  0  0
 10 13  1  0  0  0  0
 10 25  1  1  0  0  0
 11 12  1  0  0  0  0
 12 13  1  0  0  0  0
 13 26  2  0  0  0  0
 14 15  1  0  0  0  0
 15 16  1  0  0  0  0
 17 18  1  0  0  0  0
 17 19  2  0  0  0  0
 18 20  2  0  0  0  0
 19 21  1  0  0  0  0
 20 22  1  0  0  0  0
 20 30  1  0  0  0  0
 21 22  2  0  0  0  0
 21 27  1  0  0  0  0
 22 29  1  0  0  0  0
 27 28  1  0  0  0  0
 30 31  1  0  0  0  0
M  END
> <ID>
13733

> <Formula>
C21H20O8

> <FW>
400.3787

> <DSSTox_CID>
28668

> <DSSTox_RID>
82938

> <DSSTox_GSID>
48742

> <DSSTox_FileID_Sort>
7615

> <TS_ChemName>
4'-Demethylepipodophyllotoxin

> <TS_ChemName_Synonyms>


> <TS_CASRN>
6559-91-7

> <CASRN_ChemName_Relationship>
primary

> <TS_Description>
single chemical compound

> <ChemNote>


> <STRUCTURE_Shown>
tested chemical

> <STRUCTURE_Formula>
C21H20O8

> <STRUCTURE_MW>
400.3787

> <STRUCTURE_ChemType>
defined organic

> <STRUCTURE_DefinedOrganicForm>
parent

> <STRUCTURE_IUPAC>
(5R,5aR,8aR,9S)-9-hydroxy-5-(4-hydroxy-3,5-dimethoxyphenyl)-5,8,8a,9-tetrahydrofuro[3',4':6,7]naphtho[2,3-d][1,3]dioxol-6(5aH)-one

> <STRUCTURE_SMILES>
COc1cc(cc(OC)c1O)[C@@H]3c2cc5OCOc5cc2[C@@H](O)[C@H]4COC(=O)[C@H]34

> <STRUCTURE_SMILES_Desalt>
COc1cc(cc(OC)c1O)[C@@H]3c2cc5OCOc5cc2[C@@H](O)[C@H]4COC(=O)[C@H]34

> <Substance_modify_yyyymmdd>
20100107

$$$$
