65646-68-6
ChemmineR-0915142007XD

 29 30  0  0  0  0  0  0  0  0  1 V2000
    2.3397   -2.7081    0.0000 C   0  0  0  0  0  0  0  0  0  0  0  0
    3.5003   -2.0265    0.0000 C   0  0  0  0  0  0  0  0  0  0  0  0
    2.3397   -3.9977    0.0000 C   0  0  0  0  0  0  0  0  0  0  0  0
    1.1606   -2.0265    0.0000 C   0  0  0  0  0  0  0  0  0  0  0  0
    4.6609   -2.7081    0.0000 C   0  0  0  0  0  0  0  0  0  0  0  0
   11.5510   -2.6529    0.0000 C   0  0  0  0  0  0  0  0  0  0  0  0
   12.7116   -1.9712    0.0000 C   0  0  0  0  0  0  0  0  0  0  0  0
    8.1059   -1.9712    0.0000 C   0  0  0  0  0  0  0  0  0  0  0  0
   10.4456   -1.9712    0.0000 C   0  0  0  0  0  0  0  0  0  0  0  0
    5.7663   -2.0265    0.0000 C   0  0  0  0  0  0  0  0  0  0  0  0
    9.2850   -2.7081    0.0000 C   0  0  0  0  0  0  0  0  0  0  0  0
    6.9453   -2.7081    0.0000 C   0  0  0  0  0  0  0  0  0  0  0  0
   12.7116   -0.6816    0.0000 O   0  0  0  0  0  0  0  0  0  0  0  0
    1.1606   -4.6793    0.0000 C   0  0  0  0  0  0  0  0  0  0  0  0
    0.0000   -2.7081    0.0000 C   0  0  0  0  0  0  0  0  0  0  0  0
    3.4450   -4.6793    0.0000 C   0  0  0  0  0  0  0  0  0  0  0  0
    0.1842   -1.1790    0.0000 C   0  0  0  0  0  0  0  0  0  0  0  0
    2.0265   -1.0501    0.0000 C   0  0  0  0  0  0  0  0  0  0  0  0
    0.0000   -4.0530    0.0000 C   0  0  0  0  0  0  0  0  0  0  0  0
   10.4456   -0.6816    0.0000 C   0  0  0  0  0  0  0  0  0  0  0  0
    5.7663   -0.6816    0.0000 C   0  0  0  0  0  0  0  0  0  0  0  0
   13.8169   -2.6529    0.0000 N   0  0  0  0  0  0  0  0  0  0  0  0
   14.9776   -1.9712    0.0000 C   0  0  0  0  0  0  0  0  0  0  0  0
   16.1566   -2.6529    0.0000 C   0  0  0  0  0  0  0  0  0  0  0  0
   14.9776   -0.6264    0.0000 C   0  0  0  0  0  0  0  0  0  0  0  0
   17.2620   -1.9712    0.0000 C   0  0  0  0  0  0  0  0  0  0  0  0
   16.1566    0.0000    0.0000 C   0  0  0  0  0  0  0  0  0  0  0  0
   17.2620   -0.6264    0.0000 C   0  0  0  0  0  0  0  0  0  0  0  0
   18.4226    0.0000    0.0000 O   0  0  0  0  0  0  0  0  0  0  0  0
  1  2  1  0  0  0  0
  1  3  2  0  0  0  0
  1  4  1  0  0  0  0
  2  5  2  0  0  0  0
  3 14  1  0  0  0  0
  3 16  1  0  0  0  0
  4 15  1  0  0  0  0
  4 17  1  0  0  0  0
  4 18  1  0  0  0  0
  5 10  1  0  0  0  0
  6  9  2  0  0  0  0
  6  7  1  0  0  0  0
  7 13  2  0  0  0  0
  7 22  1  0  0  0  0
  8 12  1  0  0  0  0
  8 11  2  0  0  0  0
  9 11  1  0  0  0  0
  9 20  1  0  0  0  0
 10 12  2  0  0  0  0
 10 21  1  0  0  0  0
 14 19  1  0  0  0  0
 15 19  1  0  0  0  0
 22 23  1  0  0  0  0
 23 24  2  0  0  0  0
 23 25  1  0  0  0  0
 24 26  1  0  0  0  0
 25 27  2  0  0  0  0
 26 28  2  0  0  0  0
 27 28  1  0  0  0  0
 28 29  1  0  0  0  0
M  END
> <ID>
6375

> <Formula>
C26H33NO2

> <FW>
391.5457

> <DSSTox_CID>
12005

> <DSSTox_RID>
78900

> <DSSTox_GSID>
32005

> <DSSTox_FileID_Sort>
3582

> <TS_ChemName>
4-Hydroxyphenyl retinamide

> <TS_ChemName_Synonyms>
4-Hydroxyphenyl retinamide (4HPR)

> <TS_CASRN>
65646-68-6

> <CASRN_ChemName_Relationship>
primary

> <TS_Description>
single chemical compound

> <ChemNote>
stereochem

> <STRUCTURE_Shown>
tested chemical

> <STRUCTURE_Formula>
C26H33NO2

> <STRUCTURE_MW>
391.5457

> <STRUCTURE_ChemType>
defined organic

> <STRUCTURE_DefinedOrganicForm>
parent

> <STRUCTURE_IUPAC>
15-[(4-hydroxyphenyl)amino]retinal

> <STRUCTURE_SMILES>
CC=2CCCC(C)(C)C=2/C=CC(\C)=C\C=C\C(\C)=C\C(=O)Nc1ccc(O)cc1

> <STRUCTURE_SMILES_Desalt>
CC=2CCCC(C)(C)C=2/C=CC(\C)=C\C=C\C(\C)=C\C(=O)Nc1ccc(O)cc1

> <Substance_modify_yyyymmdd>
20080429

$$$$
