65733-18-8
ChemmineR-0915142007XD

 19 18  0  0  1  0  0  0  0  0  1 V2000
    3.5109   -1.3429    0.0000 C   0  0  0  0  0  0  0  0  0  0  0  0
    4.6273   -1.9901    0.0000 C   0  0  0  0  0  0  0  0  0  0  0  0
    5.7599   -1.3429    0.0000 C   0  0  0  0  0  0  0  0  0  0  0  0
    6.9571   -1.9901    0.0000 C   0  0  0  0  0  0  0  0  0  0  0  0
    8.0897   -1.3429    0.0000 C   0  0  0  0  0  0  0  0  0  0  0  0
    9.2708   -1.9901    0.0000 C   0  0  0  0  0  0  0  0  0  0  0  0
   10.4195   -1.3429    0.0000 C   0  0  0  0  0  0  0  0  0  0  0  0
   11.6006   -1.9901    0.0000 C   0  0  0  0  0  0  0  0  0  0  0  0
   12.7170   -1.3429    0.0000 C   0  0  0  0  0  0  0  0  0  0  0  0
   13.8495   -1.9901    0.0000 C   0  0  0  0  0  0  0  0  0  0  0  0
   15.0468   -1.3429    0.0000 C   0  0  0  0  0  0  0  0  0  0  0  0
   16.1794   -1.9901    0.0000 C   0  0  0  0  0  0  0  0  0  0  0  0
    3.5109    0.0000    0.0000 O   0  0  0  0  0  0  0  0  0  0  0  0
    2.3298   -1.9901    0.0000 O   0  0  0  0  0  0  0  0  0  0  0  0
    5.7599    0.0000    0.0000 C   0  0  0  0  0  0  0  0  0  0  0  0
   10.4195    0.0000    0.0000 C   0  0  0  0  0  0  0  0  0  0  0  0
   15.0468    0.0000    0.0000 C   0  0  0  0  0  0  0  0  0  0  0  0
    1.1973   -1.3429    0.0000 C   0  0  0  0  0  0  0  0  0  0  0  0
    0.0000   -2.0386    0.0000 C   0  0  0  0  0  0  0  0  0  0  0  0
  1  2  1  0  0  0  0
  1 14  1  0  0  0  0
  1 13  2  0  0  0  0
  2  3  2  0  0  0  0
  3  4  1  0  0  0  0
  3 15  1  0  0  0  0
  4  5  2  0  0  0  0
  5  6  1  0  0  0  0
  6  7  1  0  0  0  0
  7  8  1  0  0  0  0
  7 16  1  1  0  0  0
  8  9  1  0  0  0  0
  9 10  1  0  0  0  0
 10 11  1  0  0  0  0
 11 12  1  0  0  0  0
 11 17  1  0  0  0  0
 14 18  1  0  0  0  0
 18 19  1  0  0  0  0
M  END
> <ID>
7079

> <Formula>
C17H30O2

> <FW>
266.4189

> <DSSTox_CID>
15784

> <DSSTox_RID>
79270

> <DSSTox_GSID>
35784

> <DSSTox_FileID_Sort>
3952

> <TS_ChemName>
(7S)-Hydroprene

> <TS_ChemName_Synonyms>
(7S)-Hydroprene (2,4-Dodecadienoic acid, 3,7,11-trimethyl-, ethyl ester, (S-(E,E))-)

> <TS_CASRN>
65733-18-8

> <CASRN_ChemName_Relationship>
primary

> <TS_Description>
single chemical compound

> <ChemNote>
stereochem

> <STRUCTURE_Shown>
tested chemical

> <STRUCTURE_Formula>
C17H30O2

> <STRUCTURE_MW>
266.4189

> <STRUCTURE_ChemType>
defined organic

> <STRUCTURE_DefinedOrganicForm>
parent

> <STRUCTURE_IUPAC>
ethyl (2E,4E,7S)-3,7,11-trimethyldodeca-2,4-dienoate

> <STRUCTURE_SMILES>
C\C(C=C/C[C@@H](C)CCCC(C)C)=C/C(=O)OCC

> <STRUCTURE_SMILES_Desalt>
C\C(C=C/C[C@@H](C)CCCC(C)C)=C/C(=O)OCC

> <Substance_modify_yyyymmdd>
20080429

$$$$
