6577-41-9
ChemmineR-0915142007XD

 26 28  0  0  0  0  0  0  0  0  2 V2000
    2.7068   -3.4735    0.0000 C   0  0  0  0  0  0  0  0  0  0  0  0
    3.4366   -4.5359    0.0000 O   0  0  0  0  0  0  0  0  0  0  0  0
    3.4366   -2.4019    0.0000 O   0  0  0  0  0  0  0  0  0  0  0  0
    6.9101   -2.8823    0.0000 N   0  3  0  0  0  0  0  0  0  0  0  0
    4.7299   -2.7991    0.0000 C   0  0  0  0  0  0  0  0  0  0  0  0
    2.0231   -4.6283    0.0000 C   0  0  0  0  0  0  0  0  0  0  0  0
    2.0231   -2.3095    0.0000 C   0  0  0  0  0  0  0  0  0  0  0  0
    5.8015   -2.3095    0.0000 C   0  0  0  0  0  0  0  0  0  0  0  0
    4.7299   -4.1294    0.0000 C   0  0  0  0  0  0  0  0  0  0  0  0
    7.4090   -1.5335    0.0000 C   0  0  0  0  0  0  0  0  0  0  0  0
    8.0834   -2.2449    0.0000 C   0  0  0  0  0  0  0  0  0  0  0  0
    6.9286   -4.2311    0.0000 C   0  0  0  0  0  0  0  0  0  0  0  0
    0.6929   -4.6283    0.0000 C   0  0  0  0  0  0  0  0  0  0  0  0
    2.7068   -5.8015    0.0000 C   0  0  0  0  0  0  0  0  0  0  0  0
    2.6606   -1.1548    0.0000 C   0  0  0  0  0  0  0  0  0  0  0  0
    0.6744   -2.3095    0.0000 C   0  0  0  0  0  0  0  0  0  0  0  0
    9.2381   -2.8823    0.0000 C   0  0  0  0  0  0  0  0  0  0  0  0
    8.0834   -4.8870    0.0000 C   0  0  0  0  0  0  0  0  0  0  0  0
    2.0324   -6.9563    0.0000 C   0  0  0  0  0  0  0  0  0  0  0  0
    0.0185   -5.8015    0.0000 C   0  0  0  0  0  0  0  0  0  0  0  0
    2.0231    0.0000    0.0000 C   0  0  0  0  0  0  0  0  0  0  0  0
    0.0000   -1.1548    0.0000 C   0  0  0  0  0  0  0  0  0  0  0  0
    0.7021   -6.9563    0.0000 C   0  0  0  0  0  0  0  0  0  0  0  0
    9.2381   -4.2126    0.0000 C   0  0  0  0  0  0  0  0  0  0  0  0
    0.6744    0.0000    0.0000 C   0  0  0  0  0  0  0  0  0  0  0  0
    5.2103   -1.2102    0.0000 I   0  5  0  0  0  0  0  0  0  0  0  0
  1  2  1  0  0  0  0
  1  3  1  0  0  0  0
  1  6  1  0  0  0  0
  1  7  1  0  0  0  0
  2  9  1  0  0  0  0
  3  5  1  0  0  0  0
  4  8  1  0  0  0  0
  4 10  1  0  0  0  0
  4 11  1  0  0  0  0
  4 12  1  0  0  0  0
  5  8  1  0  0  0  0
  5  9  1  0  0  0  0
  6 13  2  0  0  0  0
  6 14  1  0  0  0  0
  7 15  1  0  0  0  0
  7 16  1  0  0  0  0
 11 17  1  0  0  0  0
 12 18  1  0  0  0  0
 13 20  1  0  0  0  0
 14 19  2  0  0  0  0
 15 21  1  0  0  0  0
 16 22  1  0  0  0  0
 17 24  1  0  0  0  0
 18 24  1  0  0  0  0
 19 23  1  0  0  0  0
 20 23  2  0  0  0  0
 21 25  1  0  0  0  0
 22 25  1  0  0  0  0
M  END
> <ID>
12084

> <Formula>
C22H34INO2

> <FW>
471.4153 (344.5103+126.9050)

> <DSSTox_CID>
26925

> <DSSTox_RID>
82021

> <DSSTox_GSID>
46925

> <DSSTox_FileID_Sort>
6702

> <TS_ChemName>
Oxapium iodide

> <TS_ChemName_Synonyms>


> <TS_CASRN>
6577-41-9

> <CASRN_ChemName_Relationship>
primary

> <TS_Description>
single chemical compound

> <ChemNote>
ammonium; parent [17834-29-6]

> <STRUCTURE_Shown>
tested chemical

> <STRUCTURE_Formula>
C22H34INO2

> <STRUCTURE_MW>
471.4153

> <STRUCTURE_ChemType>
defined organic

> <STRUCTURE_DefinedOrganicForm>
salt

> <STRUCTURE_IUPAC>
1-[(2-cyclohexyl-2-phenyl-1,3-dioxolan-4-yl)methyl]-1-methylpiperidinium iodide

> <STRUCTURE_SMILES>
[I-].C[N+]1(CCCCC1)CC2COC(O2)(C3CCCCC3)c4ccccc4

> <STRUCTURE_SMILES_Desalt>
C[N+]1(CCCCC1)CC2COC(O2)(C3CCCCC3)c4ccccc4

> <Substance_modify_yyyymmdd>
20110725

$$$$
