65847-85-0
ChemmineR-0915142007XD

 28 30  0  0  0  0  0  0  0  0  1 V2000
    2.3134   -1.6524    0.0000 F   0  0  0  0  0  0  0  0  0  0  0  0
    1.1567   -2.3272    0.0000 C   0  0  0  0  0  0  0  0  0  0  0  0
    0.0000   -2.9881    0.0000 F   0  0  0  0  0  0  0  0  0  0  0  0
    0.4957   -1.1705    0.0000 F   0  0  0  0  0  0  0  0  0  0  0  0
    1.8314   -3.4839    0.0000 C   0  0  0  0  0  0  0  0  0  0  0  0
    3.1534   -3.4839    0.0000 C   0  0  0  0  0  0  0  0  0  0  0  0
    3.8143   -4.6268    0.0000 C   0  0  0  0  0  0  0  0  0  0  0  0
    3.1396   -5.7835    0.0000 C   0  0  0  0  0  0  0  0  0  0  0  0
    1.8177   -5.7835    0.0000 C   0  0  0  0  0  0  0  0  0  0  0  0
    1.1567   -4.6268    0.0000 C   0  0  0  0  0  0  0  0  0  0  0  0
    5.1501   -4.6130    0.0000 N   0  0  0  0  0  0  0  0  0  0  0  0
    5.7973   -5.7559    0.0000 C   0  0  0  0  0  0  0  0  0  0  0  0
    5.1501   -6.9264    0.0000 N   0  0  0  0  0  0  0  0  0  0  0  0
    5.7973   -8.0693    0.0000 C   0  0  0  0  0  0  0  0  0  0  0  0
    7.1330   -8.0693    0.0000 C   0  0  0  0  0  0  0  0  0  0  0  0
    7.8077   -6.9126    0.0000 C   0  0  0  0  0  0  0  0  0  0  0  0
    7.1330   -5.7559    0.0000 C   0  0  0  0  0  0  0  0  0  0  0  0
    7.8077   -4.6130    0.0000 C   0  0  0  0  0  0  0  0  0  0  0  0
    7.1330   -3.4563    0.0000 O   0  0  0  0  0  0  0  0  0  0  0  0
    9.1159   -4.6268    0.0000 O   0  0  0  0  0  0  0  0  0  0  0  0
    9.7768   -3.4701    0.0000 C   0  0  0  0  0  0  0  0  0  0  0  0
   11.1126   -3.4701    0.0000 C   0  0  0  0  0  0  0  0  0  0  0  0
   11.7873   -2.3134    0.0000 N   0  0  0  0  0  0  0  0  0  0  0  0
   13.1092   -2.3134    0.0000 C   0  0  0  0  0  0  0  0  0  0  0  0
   13.7702   -1.1567    0.0000 C   0  0  0  0  0  0  0  0  0  0  0  0
   13.1092    0.0000    0.0000 O   0  0  0  0  0  0  0  0  0  0  0  0
   11.7873   -0.0275    0.0000 C   0  0  0  0  0  0  0  0  0  0  0  0
   11.1126   -1.1567    0.0000 C   0  0  0  0  0  0  0  0  0  0  0  0
  1  2  1  0  0  0  0
  2  3  1  0  0  0  0
  2  4  1  0  0  0  0
  2  5  1  0  0  0  0
  5  6  2  0  0  0  0
  5 10  1  0  0  0  0
  6  7  1  0  0  0  0
  7  8  2  0  0  0  0
  7 11  1  0  0  0  0
  8  9  1  0  0  0  0
  9 10  2  0  0  0  0
 11 12  1  0  0  0  0
 12 13  2  0  0  0  0
 12 17  1  0  0  0  0
 13 14  1  0  0  0  0
 14 15  2  0  0  0  0
 15 16  1  0  0  0  0
 16 17  2  0  0  0  0
 17 18  1  0  0  0  0
 18 19  2  0  0  0  0
 18 20  1  0  0  0  0
 20 21  1  0  0  0  0
 21 22  1  0  0  0  0
 22 23  1  0  0  0  0
 23 24  1  0  0  0  0
 23 28  1  0  0  0  0
 24 25  1  0  0  0  0
 25 26  1  0  0  0  0
 26 27  1  0  0  0  0
 27 28  1  0  0  0  0
M  END
> <ID>
16196

> <Formula>
C19H20F3N3O3

> <FW>
395.3756

> <DSSTox_CID>
31587

> <DSSTox_RID>
97471

> <DSSTox_GSID>
57798

> <DSSTox_FileID_Sort>
8538

> <TS_ChemName>
Morniflumate

> <TS_ChemName_Synonyms>


> <TS_CASRN>
65847-85-0

> <CASRN_ChemName_Relationship>
primary

> <TS_Description>
single chemical compound

> <ChemNote>


> <STRUCTURE_Shown>
tested chemical

> <STRUCTURE_Formula>
C19H20F3N3O3

> <STRUCTURE_MW>
395.3756

> <STRUCTURE_ChemType>
defined organic

> <STRUCTURE_DefinedOrganicForm>
parent

> <STRUCTURE_IUPAC>
2-(morpholin-4-yl)ethyl 2-{[3-(trifluoromethyl)phenyl]amino}nicotinate

> <STRUCTURE_SMILES>
FC(F)(F)c1cc(ccc1)Nc2ncccc2C(=O)OCCN3CCOCC3

> <STRUCTURE_SMILES_Desalt>
FC(F)(F)c1cc(ccc1)Nc2ncccc2C(=O)OCCN3CCOCC3

> <Substance_modify_yyyymmdd>
20131018

$$$$
