65894-82-8
ChemmineR-0915142007XD

 11 11  0  0  0  0  0  0  0  0  1 V2000
    3.4237   -1.7014    0.0000 C   0  0  0  0  0  0  0  0  0  0  0  0
    3.0070   -2.9723    0.0000 S   0  0  0  0  0  0  0  0  0  0  0  0
    2.3473   -0.9306    0.0000 N   0  0  0  0  0  0  0  0  0  0  0  0
    1.2709   -1.7014    0.0000 C   0  0  0  0  0  0  0  0  0  0  0  0
    1.6737   -2.9723    0.0000 C   0  0  0  0  0  0  0  0  0  0  0  0
    4.6946   -1.2986    0.0000 C   0  0  0  0  0  0  0  0  0  0  0  0
    5.6738   -2.1806    0.0000 C   0  0  0  0  0  0  0  0  0  0  0  0
    4.9654    0.0000    0.0000 C   0  0  0  0  0  0  0  0  0  0  0  0
    6.9446   -1.7848    0.0000 C   0  0  0  0  0  0  0  0  0  0  0  0
    0.0000   -1.2986    0.0000 C   0  0  0  0  0  0  0  0  0  0  0  0
    0.8820   -4.0487    0.0000 C   0  0  0  0  0  0  0  0  0  0  0  0
  1  2  1  0  0  0  0
  1  3  1  0  0  0  0
  1  6  1  0  0  0  0
  2  5  1  0  0  0  0
  3  4  2  0  0  0  0
  4  5  1  0  0  0  0
  4 10  1  0  0  0  0
  5 11  1  0  0  0  0
  6  7  1  0  0  0  0
  6  8  1  0  0  0  0
  7  9  1  0  0  0  0
M  END
> <ID>
12304

> <Formula>
C9H17NS

> <FW>
171.303

> <DSSTox_CID>
27156

> <DSSTox_RID>
82157

> <DSSTox_GSID>
47156

> <DSSTox_FileID_Sort>
6838

> <TS_ChemName>
2-(2-Butyl)-4,5-dimethyl-3-thiazoline

> <TS_ChemName_Synonyms>
2-(2-Butyl)-4,5-dimethyl-3-thiazoline (2-sec-Butyl-4,5-dimethyl-3-thiazoline)

> <TS_CASRN>
65894-82-8

> <CASRN_ChemName_Relationship>
primary

> <TS_Description>
single chemical compound

> <ChemNote>
tautomers

> <STRUCTURE_Shown>
tested chemical

> <STRUCTURE_Formula>
C9H17NS

> <STRUCTURE_MW>
171.303

> <STRUCTURE_ChemType>
defined organic

> <STRUCTURE_DefinedOrganicForm>
parent

> <STRUCTURE_IUPAC>
2-(butan-2-yl)-4,5-dimethyl-2,5-dihydro-1,3-thiazole

> <STRUCTURE_SMILES>
CC1=NC(SC1C)C(C)CC

> <STRUCTURE_SMILES_Desalt>
CC1=NC(SC1C)C(C)CC

> <Substance_modify_yyyymmdd>
20100502

$$$$
