65899-73-2
ChemmineR-0915142007XD

 23 25  0  0  0  0  0  0  0  0  1 V2000
    7.9752   -2.0392    0.0000 C    0  0  0  0  0  0  0  0  0  0  0  0
    9.3078   -2.0392    0.0000 C    0  0  0  0  0  0  0  0  0  0  0  0
    3.9876   -4.3510    0.0000 C    0  0  0  0  0  0  0  0  0  0  0  0
    3.3314   -5.4918    0.0000 C    0  0  0  0  0  0  0  0  0  0  0  0
    7.3190   -5.4918    0.0000 N    0  0  0  0  0  0  0  0  0  0  0  0
    9.3683   -4.8356    0.0000 N    0  0  0  0  0  0  0  0  0  0  0  0
    5.3202   -4.3510    0.0000 C    0  0  0  0  0  0  0  0  0  0  0  0
    9.7217   -0.7874    0.0000 S    0  0  0  0  0  0  0  0  0  0  0  0
    8.0862   -4.4217    0.0000 C    0  0  0  0  0  0  0  0  0  0  0  0
    2.0089   -5.4918    0.0000 C    0  0  0  0  0  0  0  0  0  0  0  0
    3.3314   -3.2002    0.0000 C    0  0  0  0  0  0  0  0  0  0  0  0
    7.5714   -0.7874    0.0000 C    0  0  0  0  0  0  0  0  0  0  0  0
    8.6516    0.0000    0.0000 C    0  0  0  0  0  0  0  0  0  0  0  0
    5.9965   -5.4918    0.0000 C    0  0  0  0  0  0  0  0  0  0  0  0
    7.3190   -3.2002    0.0000 C    0  0  0  0  0  0  0  0  0  0  0  0
    5.9965   -3.2002    0.0000 O    0  0  0  0  0  0  0  0  0  0  0  0
    9.3683   -6.1682    0.0000 C    0  0  0  0  0  0  0  0  0  0  0  0
    8.0862   -6.5922    0.0000 C    0  0  0  0  0  0  0  0  0  0  0  0
   10.0952   -3.1295    0.0000 Cl   0  0  0  0  0  0  0  0  0  0  0  0
    1.3326   -4.3510    0.0000 C    0  0  0  0  0  0  0  0  0  0  0  0
    3.9876   -6.6527    0.0000 Cl   0  0  0  0  0  0  0  0  0  0  0  0
    2.0089   -3.2002    0.0000 C    0  0  0  0  0  0  0  0  0  0  0  0
    0.0000   -4.3510    0.0000 Cl   0  0  0  0  0  0  0  0  0  0  0  0
  1  2  2  0  0  0  0
  1 12  1  0  0  0  0
  1 15  1  0  0  0  0
  2  8  1  0  0  0  0
  2 19  1  0  0  0  0
  3  7  1  0  0  0  0
  3  4  2  0  0  0  0
  3 11  1  0  0  0  0
  4 10  1  0  0  0  0
  4 21  1  0  0  0  0
  5 14  1  0  0  0  0
  5  9  1  0  0  0  0
  5 18  1  0  0  0  0
  6  9  2  0  0  0  0
  6 17  1  0  0  0  0
  7 16  1  0  0  0  0
  7 14  1  0  0  0  0
  8 13  1  0  0  0  0
 10 20  2  0  0  0  0
 11 22  2  0  0  0  0
 12 13  2  0  0  0  0
 15 16  1  0  0  0  0
 17 18  2  0  0  0  0
 20 22  1  0  0  0  0
 20 23  1  0  0  0  0
M  END
> <ID>
11836

> <Formula>
C16H13Cl3N2OS

> <FW>
387.7112

> <DSSTox_CID>
26619

> <DSSTox_RID>
81771

> <DSSTox_GSID>
46619

> <DSSTox_FileID_Sort>
6452

> <TS_ChemName>
Tioconazole

> <TS_ChemName_Synonyms>


> <TS_CASRN>
65899-73-2

> <CASRN_ChemName_Relationship>
primary

> <TS_Description>
single chemical compound

> <ChemNote>


> <STRUCTURE_Shown>
tested chemical

> <STRUCTURE_Formula>
C16H13Cl3N2OS

> <STRUCTURE_MW>
387.7112

> <STRUCTURE_ChemType>
defined organic

> <STRUCTURE_DefinedOrganicForm>
parent

> <STRUCTURE_IUPAC>
1-{2-[(2-chlorothiophen-3-yl)methoxy]-2-(2,4-dichlorophenyl)ethyl}-1H-imidazole

> <STRUCTURE_SMILES>
Clc3sccc3COC(Cn1ccnc1)c2ccc(Cl)cc2Cl

> <STRUCTURE_SMILES_Desalt>
Clc3sccc3COC(Cn1ccnc1)c2ccc(Cl)cc2Cl

> <Substance_modify_yyyymmdd>
20110809

$$$$
