659-70-1
ChemmineR-0915142007XD

 12 11  0  0  0  0  0  0  0  0  1 V2000
    5.7522   -1.3529    0.0000 C   0  0  0  0  0  0  0  0  0  0  0  0
    5.7522   -0.0184    0.0000 O   0  0  0  0  0  0  0  0  0  0  0  0
    6.9119   -2.0248    0.0000 C   0  0  0  0  0  0  0  0  0  0  0  0
    4.6018   -2.0064    0.0000 O   0  0  0  0  0  0  0  0  0  0  0  0
    3.4605   -1.3345    0.0000 C   0  0  0  0  0  0  0  0  0  0  0  0
    8.0163   -1.3529    0.0000 C   0  0  0  0  0  0  0  0  0  0  0  0
    2.3285   -2.0064    0.0000 C   0  0  0  0  0  0  0  0  0  0  0  0
    1.1504   -1.3161    0.0000 C   0  0  0  0  0  0  0  0  0  0  0  0
    9.2036   -2.0248    0.0000 C   0  0  0  0  0  0  0  0  0  0  0  0
    8.0163   -0.0368    0.0000 C   0  0  0  0  0  0  0  0  0  0  0  0
    1.1504    0.0000    0.0000 C   0  0  0  0  0  0  0  0  0  0  0  0
    0.0000   -1.9972    0.0000 C   0  0  0  0  0  0  0  0  0  0  0  0
  1  2  2  0  0  0  0
  1  3  1  0  0  0  0
  1  4  1  0  0  0  0
  3  6  1  0  0  0  0
  4  5  1  0  0  0  0
  5  7  1  0  0  0  0
  6  9  1  0  0  0  0
  6 10  1  0  0  0  0
  7  8  1  0  0  0  0
  8 11  1  0  0  0  0
  8 12  1  0  0  0  0
M  END
> <ID>
10408

> <Formula>
C10H20O2

> <FW>
172.2646

> <DSSTox_CID>
24757

> <DSSTox_RID>
80450

> <DSSTox_GSID>
44757

> <DSSTox_FileID_Sort>
5132

> <TS_ChemName>
3-Methylbutyl 3-methylbutanoate

> <TS_ChemName_Synonyms>
3-Methylbutyl 3-methylbutanoate (Butanoic acid, 3-methyl-, 3-methylbutyl ester)

> <TS_CASRN>
659-70-1

> <CASRN_ChemName_Relationship>
primary

> <TS_Description>
single chemical compound

> <ChemNote>


> <STRUCTURE_Shown>
tested chemical

> <STRUCTURE_Formula>
C10H20O2

> <STRUCTURE_MW>
172.2646

> <STRUCTURE_ChemType>
defined organic

> <STRUCTURE_DefinedOrganicForm>
parent

> <STRUCTURE_IUPAC>
3-methylbutyl 3-methylbutanoate

> <STRUCTURE_SMILES>
CC(C)CCOC(=O)CC(C)C

> <STRUCTURE_SMILES_Desalt>
CC(C)CCOC(=O)CC(C)C

> <Substance_modify_yyyymmdd>
20091116

$$$$
