66-76-2
ChemmineR-0915142007XD

 25 28  0  0  0  0  0  0  0  0  1 V2000
    5.7947   -5.4884    0.0000 O   0  0  0  0  0  0  0  0  0  0  0  0
    4.6640   -4.8407    0.0000 C   0  0  0  0  0  0  0  0  0  0  0  0
    3.6747   -5.6769    0.0000 O   0  0  0  0  0  0  0  0  0  0  0  0
    2.4498   -5.2293    0.0000 C   0  0  0  0  0  0  0  0  0  0  0  0
    1.4487   -6.0656    0.0000 C   0  0  0  0  0  0  0  0  0  0  0  0
    0.2238   -5.6180    0.0000 C   0  0  0  0  0  0  0  0  0  0  0  0
    0.0000   -4.3342    0.0000 C   0  0  0  0  0  0  0  0  0  0  0  0
    1.0011   -3.4980    0.0000 C   0  0  0  0  0  0  0  0  0  0  0  0
    2.2260   -3.9456    0.0000 C   0  0  0  0  0  0  0  0  0  0  0  0
    3.2153   -3.1093    0.0000 C   0  0  0  0  0  0  0  0  0  0  0  0
    2.9916   -1.8256    0.0000 O   0  0  0  0  0  0  0  0  0  0  0  0
    4.4402   -3.5569    0.0000 C   0  0  0  0  0  0  0  0  0  0  0  0
    5.5238   -2.2613    0.0000 C   0  0  0  0  0  0  0  0  0  0  0  0
    7.2198   -2.2613    0.0000 C   0  0  0  0  0  0  0  0  0  0  0  0
    7.8675   -3.3802    0.0000 C   0  0  0  0  0  0  0  0  0  0  0  0
    7.4318   -4.6051    0.0000 O   0  0  0  0  0  0  0  0  0  0  0  0
    9.1749   -3.3802    0.0000 C   0  0  0  0  0  0  0  0  0  0  0  0
    9.8227   -4.5109    0.0000 C   0  0  0  0  0  0  0  0  0  0  0  0
   11.1300   -4.5109    0.0000 C   0  0  0  0  0  0  0  0  0  0  0  0
   11.7778   -3.3802    0.0000 C   0  0  0  0  0  0  0  0  0  0  0  0
   11.1300   -2.2613    0.0000 C   0  0  0  0  0  0  0  0  0  0  0  0
    9.8227   -2.2613    0.0000 C   0  0  0  0  0  0  0  0  0  0  0  0
    9.1749   -1.1307    0.0000 O   0  0  0  0  0  0  0  0  0  0  0  0
    7.8675   -1.1307    0.0000 C   0  0  0  0  0  0  0  0  0  0  0  0
    7.2198    0.0000    0.0000 O   0  0  0  0  0  0  0  0  0  0  0  0
  1  2  2  0  0  0  0
  2  3  1  0  0  0  0
  2 12  1  0  0  0  0
  3  4  1  0  0  0  0
  4  5  2  0  0  0  0
  4  9  1  0  0  0  0
  5  6  1  0  0  0  0
  6  7  2  0  0  0  0
  7  8  1  0  0  0  0
  8  9  2  0  0  0  0
  9 10  1  0  0  0  0
 10 11  1  0  0  0  0
 10 12  2  0  0  0  0
 12 13  1  0  0  0  0
 13 14  1  0  0  0  0
 14 15  2  0  0  0  0
 14 24  1  0  0  0  0
 15 16  1  0  0  0  0
 15 17  1  0  0  0  0
 17 18  2  0  0  0  0
 17 22  1  0  0  0  0
 18 19  1  0  0  0  0
 19 20  2  0  0  0  0
 20 21  1  0  0  0  0
 21 22  2  0  0  0  0
 22 23  1  0  0  0  0
 23 24  1  0  0  0  0
 24 25  2  0  0  0  0
M  END
> <ID>
1654

> <Formula>
C19H12O6

> <FW>
336.295

> <DSSTox_CID>
1729

> <DSSTox_RID>
76296

> <DSSTox_GSID>
21729

> <DSSTox_FileID_Sort>
980

> <TS_ChemName>
Dicumarol

> <TS_ChemName_Synonyms>
Dicumarol (BHC)

> <TS_CASRN>
66-76-2

> <CASRN_ChemName_Relationship>
primary

> <TS_Description>
single chemical compound

> <ChemNote>
tautomers

> <STRUCTURE_Shown>
tested chemical

> <STRUCTURE_Formula>
C19H12O6

> <STRUCTURE_MW>
336.295

> <STRUCTURE_ChemType>
defined organic

> <STRUCTURE_DefinedOrganicForm>
parent

> <STRUCTURE_IUPAC>
3,3'-methanediylbis(4-hydroxy-2H-chromen-2-one)

> <STRUCTURE_SMILES>
OC=3c4ccccc4OC(=O)C=3CC1=C(O)c2ccccc2OC1=O

> <STRUCTURE_SMILES_Desalt>
OC=3c4ccccc4OC(=O)C=3CC1=C(O)c2ccccc2OC1=O

> <Substance_modify_yyyymmdd>
20080429

$$$$
