66-75-1
ChemmineR-0915142007XD

 15 15  0  0  0  0  0  0  0  0  1 V2000
    5.3217   -2.3058    0.0000 N    0  0  0  0  0  0  0  0  0  0  0  0
    5.9839   -1.1489    0.0000 C    0  0  0  0  0  0  0  0  0  0  0  0
    7.3163   -1.1489    0.0000 C    0  0  0  0  0  0  0  0  0  0  0  0
    7.9785    0.0000    0.0000 Cl   0  0  0  0  0  0  0  0  0  0  0  0
    5.9839   -3.4547    0.0000 C    0  0  0  0  0  0  0  0  0  0  0  0
    7.3163   -3.4547    0.0000 C    0  0  0  0  0  0  0  0  0  0  0  0
    7.9785   -2.3058    0.0000 Cl   0  0  0  0  0  0  0  0  0  0  0  0
    3.9892   -2.3058    0.0000 C    0  0  0  0  0  0  0  0  0  0  0  0
    3.3270   -3.4547    0.0000 C    0  0  0  0  0  0  0  0  0  0  0  0
    1.9946   -3.4547    0.0000 N    0  0  0  0  0  0  0  0  0  0  0  0
    1.3324   -2.3058    0.0000 C    0  0  0  0  0  0  0  0  0  0  0  0
    0.0000   -2.3058    0.0000 O    0  0  0  0  0  0  0  0  0  0  0  0
    1.9946   -1.1489    0.0000 N    0  0  0  0  0  0  0  0  0  0  0  0
    3.3270   -1.1489    0.0000 C    0  0  0  0  0  0  0  0  0  0  0  0
    3.9892    0.0000    0.0000 O    0  0  0  0  0  0  0  0  0  0  0  0
  1  2  1  0  0  0  0
  1  5  1  0  0  0  0
  1  8  1  0  0  0  0
  2  3  1  0  0  0  0
  3  4  1  0  0  0  0
  5  6  1  0  0  0  0
  6  7  1  0  0  0  0
  8  9  2  0  0  0  0
  8 14  1  0  0  0  0
  9 10  1  0  0  0  0
 10 11  1  0  0  0  0
 11 12  2  0  0  0  0
 11 13  1  0  0  0  0
 13 14  1  0  0  0  0
 14 15  2  0  0  0  0
M  END
> <ID>
4630

> <Formula>
C8H11Cl2N3O2

> <FW>
252.0978

> <DSSTox_CID>
6270

> <DSSTox_RID>
78084

> <DSSTox_GSID>
26270

> <DSSTox_FileID_Sort>
2767

> <TS_ChemName>
Uracil mustard

> <TS_ChemName_Synonyms>


> <TS_CASRN>
66-75-1

> <CASRN_ChemName_Relationship>
primary

> <TS_Description>
single chemical compound

> <ChemNote>


> <STRUCTURE_Shown>
tested chemical

> <STRUCTURE_Formula>
C8H11Cl2N3O2

> <STRUCTURE_MW>
252.0978

> <STRUCTURE_ChemType>
defined organic

> <STRUCTURE_DefinedOrganicForm>
parent

> <STRUCTURE_IUPAC>
5-[bis(2-chloroethyl)amino]pyrimidine-2,4(1H,3H)-dione

> <STRUCTURE_SMILES>
O=C1NC(=O)NC=C1N(CCCl)CCCl

> <STRUCTURE_SMILES_Desalt>
O=C1NC(=O)NC=C1N(CCCl)CCCl

> <Substance_modify_yyyymmdd>
20080429

$$$$
