66-84-2
ChemmineR-0915142007XD

 13 12  0  0  1  0  0  0  0  0  1 V2000
    4.6189   -0.6572    0.0000 C    0  0  0  0  0  0  0  0  0  0  0  0
    4.6189   -1.9899    0.0000 C    0  0  0  0  0  0  0  0  0  0  0  0
    3.4687    0.0000    0.0000 O    0  0  0  0  0  0  0  0  0  0  0  0
    3.4687   -2.6472    0.0000 C    0  0  0  0  0  0  0  0  0  0  0  0
    2.3094   -0.6572    0.0000 C    0  0  0  0  0  0  0  0  0  0  0  0
    2.3094   -1.9899    0.0000 C    0  0  0  0  0  0  0  0  0  0  0  0
    5.7781    0.0000    0.0000 O    0  0  0  0  0  0  0  0  0  0  0  0
    5.7781   -2.6472    0.0000 N    0  0  0  0  0  0  0  0  0  0  0  0
    3.4687   -3.9799    0.0000 O    0  0  0  0  0  0  0  0  0  0  0  0
    1.1593   -2.6472    0.0000 O    0  0  0  0  0  0  0  0  0  0  0  0
    1.1593    0.0000    0.0000 C    0  0  0  0  0  0  0  0  0  0  0  0
    0.0000   -0.6572    0.0000 O    0  0  0  0  0  0  0  0  0  0  0  0
    9.1282   -1.4149    0.0000 Cl   0  0  0  0  0  0  0  0  0  0  0  0
  1  2  1  0  0  0  0
  1  3  1  0  0  0  0
  1  7  1  0  0  0  0
  2  4  1  0  0  0  0
  2  8  1  6  0  0  0
  3  5  1  0  0  0  0
  4  6  1  0  0  0  0
  4  9  1  1  0  0  0
  5  6  1  0  0  0  0
  5 11  1  1  0  0  0
  6 10  1  6  0  0  0
 11 12  1  0  0  0  0
M  END
> <ID>
7281

> <Formula>
C6H14ClNO5

> <FW>
215.6321 (179.1711+36.4609)

> <DSSTox_CID>
17236

> <DSSTox_RID>
79312

> <DSSTox_GSID>
37236

> <DSSTox_FileID_Sort>
3994

> <TS_ChemName>
Glucosamine hydrochloride

> <TS_ChemName_Synonyms>


> <TS_CASRN>
66-84-2

> <CASRN_ChemName_Relationship>
primary

> <TS_Description>
single chemical compound

> <ChemNote>
stereochem; parent [3416-24-8]

> <STRUCTURE_Shown>
tested chemical

> <STRUCTURE_Formula>
C6H14ClNO5

> <STRUCTURE_MW>
215.6321

> <STRUCTURE_ChemType>
defined organic

> <STRUCTURE_DefinedOrganicForm>
complex

> <STRUCTURE_IUPAC>
2-amino-2-deoxy-D-glucopyranose hydrochloride (1:1)

> <STRUCTURE_SMILES>
Cl.O[C@H]1[C@H](O)[C@@H](CO)OC(O)[C@@H]1N

> <STRUCTURE_SMILES_Desalt>
O[C@H]1[C@H](O)[C@@H](CO)OC(O)[C@@H]1N

> <Substance_modify_yyyymmdd>
20080429

$$$$
