66-81-9
ChemmineR-0915142007XD

 21 22  0  0  1  0  0  0  0  0  1 V2000
    0.9431   -0.9340    0.0000 C   0  0  0  0  0  0  0  0  0  0  0  0
    0.5952   -2.2251    0.0000 C   0  0  0  0  0  0  0  0  0  0  0  0
    1.5383   -3.1591    0.0000 C   0  0  0  0  0  0  0  0  0  0  0  0
    2.8203   -2.8203    0.0000 C   0  0  0  0  0  0  0  0  0  0  0  0
    3.1682   -1.5383    0.0000 C   0  0  0  0  0  0  0  0  0  0  0  0
    2.2251   -0.5952    0.0000 C   0  0  0  0  0  0  0  0  0  0  0  0
    0.0000    0.0000    0.0000 C   0  0  0  0  0  0  0  0  0  0  0  0
    1.1904   -4.4502    0.0000 C   0  0  0  0  0  0  0  0  0  0  0  0
    4.4959   -1.5383    0.0000 C   0  0  0  0  0  0  0  0  0  0  0  0
    5.1644   -2.6829    0.0000 C   0  0  0  0  0  0  0  0  0  0  0  0
    6.4921   -2.6829    0.0000 C   0  0  0  0  0  0  0  0  0  0  0  0
    7.1606   -1.5383    0.0000 C   0  0  0  0  0  0  0  0  0  0  0  0
    7.1606   -3.8367    0.0000 C   0  0  0  0  0  0  0  0  0  0  0  0
    8.4883   -3.8367    0.0000 C   0  0  0  0  0  0  0  0  0  0  0  0
    9.1567   -2.6829    0.0000 N   0  0  0  0  0  0  0  0  0  0  0  0
    8.4883   -1.5383    0.0000 C   0  0  0  0  0  0  0  0  0  0  0  0
    9.1567   -0.3846    0.0000 O   0  0  0  0  0  0  0  0  0  0  0  0
    9.1567   -4.9904    0.0000 O   0  0  0  0  0  0  0  0  0  0  0  0
    5.1644   -0.3846    0.0000 O   0  0  0  0  0  0  0  0  0  0  0  0
    3.8275   -0.3846    0.0000 H   0  0  0  0  0  0  0  0  0  0  0  0
    3.7634   -3.7634    0.0000 O   0  0  0  0  0  0  0  0  0  0  0  0
  1  2  1  0  0  0  0
  1  6  1  0  0  0  0
  1  7  1  6  0  0  0
  2  3  1  0  0  0  0
  3  4  1  0  0  0  0
  3  8  1  1  0  0  0
  4  5  1  0  0  0  0
  4 21  2  0  0  0  0
  5  6  1  0  0  0  0
  5  9  1  0  0  0  0
  5 20  1  6  0  0  0
  9 10  1  0  0  0  0
  9 19  1  6  0  0  0
 10 11  1  0  0  0  0
 11 12  1  0  0  0  0
 11 13  1  0  0  0  0
 12 16  1  0  0  0  0
 13 14  1  0  0  0  0
 14 15  1  0  0  0  0
 14 18  2  0  0  0  0
 15 16  1  0  0  0  0
 16 17  2  0  0  0  0
M  END
> <ID>
3896

> <Formula>
C15H23NO4

> <FW>
281.3474

> <DSSTox_CID>
4882

> <DSSTox_RID>
77565

> <DSSTox_GSID>
24882

> <DSSTox_FileID_Sort>
2248

> <TS_ChemName>
Cycloheximide

> <TS_ChemName_Synonyms>
Cycloheximide (CHX)

> <TS_CASRN>
66-81-9

> <CASRN_ChemName_Relationship>
primary

> <TS_Description>
single chemical compound

> <ChemNote>
stereochem

> <STRUCTURE_Shown>
tested chemical

> <STRUCTURE_Formula>
C15H23NO4

> <STRUCTURE_MW>
281.3474

> <STRUCTURE_ChemType>
defined organic

> <STRUCTURE_DefinedOrganicForm>
parent

> <STRUCTURE_IUPAC>
4-{(2R)-2-[(1S,3S,5S)-3,5-dimethyl-2-oxocyclohexyl]-2-hydroxyethyl}piperidine-2,6-dione

> <STRUCTURE_SMILES>
O=C2CC(C[C@@H](O)[C@@H]1C[C@@H](C)C[C@H](C)C1=O)CC(=O)N2

> <STRUCTURE_SMILES_Desalt>
O=C2CC(C[C@@H](O)[C@@H]1C[C@@H](C)C[C@H](C)C1=O)CC(=O)N2

> <Substance_modify_yyyymmdd>
20080429

$$$$
