66063-05-6
ChemmineR-0915142007XD

 23 25  0  0  0  0  0  0  0  0  1 V2000
    4.5992   -5.3299    0.0000 C    0  0  0  0  0  0  0  0  0  0  0  0
    4.5992   -3.9997    0.0000 O    0  0  0  0  0  0  0  0  0  0  0  0
    5.7514   -5.9949    0.0000 N    0  0  0  0  0  0  0  0  0  0  0  0
    3.4564   -5.9949    0.0000 N    0  0  0  0  0  0  0  0  0  0  0  0
    6.9129   -5.3299    0.0000 C    0  0  0  0  0  0  0  0  0  0  0  0
    6.9129   -3.9997    0.0000 C    0  0  0  0  0  0  0  0  0  0  0  0
    8.0650   -3.3440    0.0000 C    0  0  0  0  0  0  0  0  0  0  0  0
    5.7514   -3.3440    0.0000 C    0  0  0  0  0  0  0  0  0  0  0  0
    8.0650   -2.0046    0.0000 C    0  0  0  0  0  0  0  0  0  0  0  0
    5.7514   -2.0046    0.0000 C    0  0  0  0  0  0  0  0  0  0  0  0
    6.9129   -1.3301    0.0000 C    0  0  0  0  0  0  0  0  0  0  0  0
    6.9129    0.0000    0.0000 Cl   0  0  0  0  0  0  0  0  0  0  0  0
    5.7514   -7.3250    0.0000 C    0  0  0  0  0  0  0  0  0  0  0  0
    4.6742   -8.1119    0.0000 C    0  0  0  0  0  0  0  0  0  0  0  0
    5.0957   -9.3671    0.0000 C    0  0  0  0  0  0  0  0  0  0  0  0
    6.4071   -9.3671    0.0000 C    0  0  0  0  0  0  0  0  0  0  0  0
    6.8286   -8.1119    0.0000 C    0  0  0  0  0  0  0  0  0  0  0  0
    2.2949   -5.3299    0.0000 C    0  0  0  0  0  0  0  0  0  0  0  0
    2.2949   -3.9997    0.0000 C    0  0  0  0  0  0  0  0  0  0  0  0
    1.1521   -5.9949    0.0000 C    0  0  0  0  0  0  0  0  0  0  0  0
    1.1521   -3.3440    0.0000 C    0  0  0  0  0  0  0  0  0  0  0  0
    0.0000   -5.3299    0.0000 C    0  0  0  0  0  0  0  0  0  0  0  0
    0.0000   -3.9997    0.0000 C    0  0  0  0  0  0  0  0  0  0  0  0
  1  2  2  0  0  0  0
  1  3  1  0  0  0  0
  1  4  1  0  0  0  0
  3  5  1  0  0  0  0
  3 13  1  0  0  0  0
  4 18  1  0  0  0  0
  5  6  1  0  0  0  0
  6  7  2  0  0  0  0
  6  8  1  0  0  0  0
  7  9  1  0  0  0  0
  8 10  2  0  0  0  0
  9 11  2  0  0  0  0
 10 11  1  0  0  0  0
 11 12  1  0  0  0  0
 13 14  1  0  0  0  0
 13 17  1  0  0  0  0
 14 15  1  0  0  0  0
 15 16  1  0  0  0  0
 16 17  1  0  0  0  0
 18 19  2  0  0  0  0
 18 20  1  0  0  0  0
 19 21  1  0  0  0  0
 20 22  2  0  0  0  0
 21 23  2  0  0  0  0
 22 23  1  0  0  0  0
M  END
> <ID>
9190

> <Formula>
C19H21ClN2O

> <FW>
328.8358

> <DSSTox_CID>
22261

> <DSSTox_RID>
79979

> <DSSTox_GSID>
42261

> <DSSTox_FileID_Sort>
4661

> <TS_ChemName>
Pencycuron

> <TS_ChemName_Synonyms>


> <TS_CASRN>
66063-05-6

> <CASRN_ChemName_Relationship>
primary

> <TS_Description>
single chemical compound

> <ChemNote>


> <STRUCTURE_Shown>
tested chemical

> <STRUCTURE_Formula>
C19H21ClN2O

> <STRUCTURE_MW>
328.8358

> <STRUCTURE_ChemType>
defined organic

> <STRUCTURE_DefinedOrganicForm>
parent

> <STRUCTURE_IUPAC>
1-(4-chlorobenzyl)-1-cyclopentyl-3-phenylurea

> <STRUCTURE_SMILES>
Clc1ccc(cc1)CN(C(=O)Nc2ccccc2)C3CCCC3

> <STRUCTURE_SMILES_Desalt>
Clc1ccc(cc1)CN(C(=O)Nc2ccccc2)C3CCCC3

> <Substance_modify_yyyymmdd>
20080825

$$$$
