6606-59-3
ChemmineR-0915142007XD

 18 17  0  0  0  0  0  0  0  0  1 V2000
   12.6841   -1.3344    0.0000 C   0  0  0  0  0  0  0  0  0  0  0  0
   13.8385   -1.9941    0.0000 C   0  0  0  0  0  0  0  0  0  0  0  0
   14.9930   -1.3344    0.0000 C   0  0  0  0  0  0  0  0  0  0  0  0
   12.6841    0.0000    0.0000 O   0  0  0  0  0  0  0  0  0  0  0  0
   11.5296   -1.9941    0.0000 O   0  0  0  0  0  0  0  0  0  0  0  0
   13.8385   -3.3284    0.0000 C   0  0  0  0  0  0  0  0  0  0  0  0
   10.3901   -1.3344    0.0000 C   0  0  0  0  0  0  0  0  0  0  0  0
    9.2357   -1.9941    0.0000 C   0  0  0  0  0  0  0  0  0  0  0  0
    8.0812   -1.3344    0.0000 C   0  0  0  0  0  0  0  0  0  0  0  0
    6.9118   -1.9941    0.0000 C   0  0  0  0  0  0  0  0  0  0  0  0
    5.7573   -1.3344    0.0000 C   0  0  0  0  0  0  0  0  0  0  0  0
    4.6028   -1.9941    0.0000 C   0  0  0  0  0  0  0  0  0  0  0  0
    3.4484   -1.3344    0.0000 O   0  0  0  0  0  0  0  0  0  0  0  0
    2.2939   -1.9941    0.0000 C   0  0  0  0  0  0  0  0  0  0  0  0
    1.1395   -1.3344    0.0000 C   0  0  0  0  0  0  0  0  0  0  0  0
    2.2939   -3.3284    0.0000 O   0  0  0  0  0  0  0  0  0  0  0  0
    1.1395    0.0000    0.0000 C   0  0  0  0  0  0  0  0  0  0  0  0
    0.0000   -1.9941    0.0000 C   0  0  0  0  0  0  0  0  0  0  0  0
  1  2  1  0  0  0  0
  1  5  1  0  0  0  0
  1  4  2  0  0  0  0
  2  3  2  0  0  0  0
  2  6  1  0  0  0  0
  5  7  1  0  0  0  0
  7  8  1  0  0  0  0
  8  9  1  0  0  0  0
  9 10  1  0  0  0  0
 10 11  1  0  0  0  0
 11 12  1  0  0  0  0
 12 13  1  0  0  0  0
 13 14  1  0  0  0  0
 14 15  1  0  0  0  0
 14 16  2  0  0  0  0
 15 17  1  0  0  0  0
 15 18  2  0  0  0  0
M  END
> <ID>
10112

> <Formula>
C14H22O4

> <FW>
254.3221

> <DSSTox_CID>
24455

> <DSSTox_RID>
80241

> <DSSTox_GSID>
44455

> <DSSTox_FileID_Sort>
4923

> <TS_ChemName>
1,6-Hexanediol dimethacrylate

> <TS_ChemName_Synonyms>
1,6-Hexanediol dimethacrylate (2-Propenoic acid, 2-methyl-, 1,6-hexanediyl ester)

> <TS_CASRN>
6606-59-3

> <CASRN_ChemName_Relationship>
primary

> <TS_Description>
single chemical compound

> <ChemNote>


> <STRUCTURE_Shown>
tested chemical

> <STRUCTURE_Formula>
C14H22O4

> <STRUCTURE_MW>
254.3221

> <STRUCTURE_ChemType>
defined organic

> <STRUCTURE_DefinedOrganicForm>
parent

> <STRUCTURE_IUPAC>
hexane-1,6-diyl bis(2-methylprop-2-enoate)

> <STRUCTURE_SMILES>
C=C(C)C(=O)OCCCCCCOC(=O)C(=C)C

> <STRUCTURE_SMILES_Desalt>
C=C(C)C(=O)OCCCCCCOC(=O)C(=C)C

> <Substance_modify_yyyymmdd>
20091116

$$$$
