66072-38-6
ChemmineR-0915142007XD

 34 39  0  0  0  0  0  0  0  0  1 V2000
   10.0682    0.0000    0.0000 O   0  0  0  0  0  0  0  0  0  0  0  0
    0.6602  -12.2799    0.0000 O   0  0  0  0  0  0  0  0  0  0  0  0
   15.8285  -12.2799    0.0000 O   0  0  0  0  0  0  0  0  0  0  0  0
    9.4080   -9.1439    0.0000 C   0  0  0  0  0  0  0  0  0  0  0  0
   10.5634   -8.4837    0.0000 C   0  0  0  0  0  0  0  0  0  0  0  0
   11.7022   -9.1439    0.0000 C   0  0  0  0  0  0  0  0  0  0  0  0
   11.7022  -10.4643    0.0000 C   0  0  0  0  0  0  0  0  0  0  0  0
   10.5634  -11.1245    0.0000 C   0  0  0  0  0  0  0  0  0  0  0  0
    9.4080  -10.4643    0.0000 C   0  0  0  0  0  0  0  0  0  0  0  0
   15.1518  -11.1245    0.0000 C   0  0  0  0  0  0  0  0  0  0  0  0
   16.5052  -11.1245    0.0000 C   0  0  0  0  0  0  0  0  0  0  0  0
    8.2526   -7.1303    0.0000 C   0  0  0  0  0  0  0  0  0  0  0  0
    7.0973   -6.4866    0.0000 C   0  0  0  0  0  0  0  0  0  0  0  0
    7.0973   -5.1496    0.0000 C   0  0  0  0  0  0  0  0  0  0  0  0
    8.2526   -4.4894    0.0000 C   0  0  0  0  0  0  0  0  0  0  0  0
    9.4080   -5.1496    0.0000 C   0  0  0  0  0  0  0  0  0  0  0  0
    9.4080   -6.4866    0.0000 C   0  0  0  0  0  0  0  0  0  0  0  0
    9.4080   -1.1554    0.0000 C   0  0  0  0  0  0  0  0  0  0  0  0
    8.7478    0.0000    0.0000 C   0  0  0  0  0  0  0  0  0  0  0  0
    7.0973   -9.1439    0.0000 C   0  0  0  0  0  0  0  0  0  0  0  0
    7.0973  -10.4643    0.0000 C   0  0  0  0  0  0  0  0  0  0  0  0
    5.9419  -11.1245    0.0000 C   0  0  0  0  0  0  0  0  0  0  0  0
    4.8030  -10.4643    0.0000 C   0  0  0  0  0  0  0  0  0  0  0  0
    4.8030   -9.1439    0.0000 C   0  0  0  0  0  0  0  0  0  0  0  0
    5.9419   -8.4837    0.0000 C   0  0  0  0  0  0  0  0  0  0  0  0
    1.3534  -11.1245    0.0000 C   0  0  0  0  0  0  0  0  0  0  0  0
    0.0000  -11.1245    0.0000 C   0  0  0  0  0  0  0  0  0  0  0  0
    8.2526   -8.4837    0.0000 C   0  0  0  0  0  0  0  0  0  0  0  0
    8.2526   -3.1525    0.0000 O   0  0  0  0  0  0  0  0  0  0  0  0
    9.4080   -2.4923    0.0000 C   0  0  0  0  0  0  0  0  0  0  0  0
    3.6477  -11.1245    0.0000 O   0  0  0  0  0  0  0  0  0  0  0  0
    2.4923  -10.4643    0.0000 C   0  0  0  0  0  0  0  0  0  0  0  0
   12.8576  -11.1245    0.0000 O   0  0  0  0  0  0  0  0  0  0  0  0
   14.0129  -10.4643    0.0000 C   0  0  0  0  0  0  0  0  0  0  0  0
  1 19  1  0  0  0  0
  1 18  1  0  0  0  0
  2 27  1  0  0  0  0
  2 26  1  0  0  0  0
  3 11  1  0  0  0  0
  3 10  1  0  0  0  0
  4  5  2  0  0  0  0
  4  9  1  0  0  0  0
  4 28  1  0  0  0  0
  5  6  1  0  0  0  0
  6  7  2  0  0  0  0
  7  8  1  0  0  0  0
  7 33  1  0  0  0  0
  8  9  2  0  0  0  0
 10 11  1  0  0  0  0
 10 34  1  0  0  0  0
 12 13  2  0  0  0  0
 12 17  1  0  0  0  0
 12 28  1  0  0  0  0
 13 14  1  0  0  0  0
 14 15  2  0  0  0  0
 15 16  1  0  0  0  0
 15 29  1  0  0  0  0
 16 17  2  0  0  0  0
 18 19  1  0  0  0  0
 18 30  1  0  0  0  0
 20 25  2  0  0  0  0
 20 21  1  0  0  0  0
 20 28  1  0  0  0  0
 21 22  2  0  0  0  0
 22 23  1  0  0  0  0
 23 24  2  0  0  0  0
 23 31  1  0  0  0  0
 24 25  1  0  0  0  0
 26 27  1  0  0  0  0
 26 32  1  0  0  0  0
 29 30  1  0  0  0  0
 31 32  1  0  0  0  0
 33 34  1  0  0  0  0
M  END
> <ID>
10618

> <Formula>
C28H28O6

> <FW>
460.5183

> <DSSTox_CID>
24971

> <DSSTox_RID>
80621

> <DSSTox_GSID>
44971

> <DSSTox_FileID_Sort>
5303

> <TS_ChemName>
2,2',2''-[Methanetriyltris(benzene-4,1-diyloxymethanediyl)]trioxirane

> <TS_ChemName_Synonyms>
2,2',2''-[Methanetriyltris(benzene-4,1-diyloxymethanediyl)]trioxirane (Oxirane, 2,2',2''-[methylidynetris(phenyleneoxymethylene)]tris-)

> <TS_CASRN>
66072-38-6

> <CASRN_ChemName_Relationship>
primary

> <TS_Description>
single chemical compound

> <ChemNote>


> <STRUCTURE_Shown>
tested chemical

> <STRUCTURE_Formula>
C28H28O6

> <STRUCTURE_MW>
460.5183

> <STRUCTURE_ChemType>
defined organic

> <STRUCTURE_DefinedOrganicForm>
parent

> <STRUCTURE_IUPAC>
2,2',2''-[methanetriyltris(benzene-4,1-diyloxymethanediyl)]trioxirane

> <STRUCTURE_SMILES>
c2cc(OCC1CO1)ccc2C(c4ccc(OCC3CO3)cc4)c6ccc(OCC5CO5)cc6

> <STRUCTURE_SMILES_Desalt>
c2cc(OCC1CO1)ccc2C(c4ccc(OCC3CO3)cc4)c6ccc(OCC5CO5)cc6

> <Substance_modify_yyyymmdd>
20091116

$$$$
