661-19-8
ChemmineR-0915142007XD

 23 22  0  0  0  0  0  0  0  0  1 V2000
    1.1822    0.0000    0.0000 C   0  0  0  0  0  0  0  0  0  0  0  0
    2.3392   -0.6791    0.0000 C   0  0  0  0  0  0  0  0  0  0  0  0
    3.4460    0.0000    0.0000 C   0  0  0  0  0  0  0  0  0  0  0  0
    4.6030   -0.6791    0.0000 C   0  0  0  0  0  0  0  0  0  0  0  0
    5.7852    0.0000    0.0000 C   0  0  0  0  0  0  0  0  0  0  0  0
    6.8668   -0.6791    0.0000 C   0  0  0  0  0  0  0  0  0  0  0  0
    8.0490    0.0000    0.0000 C   0  0  0  0  0  0  0  0  0  0  0  0
    9.2312   -0.6791    0.0000 C   0  0  0  0  0  0  0  0  0  0  0  0
   10.3127    0.0000    0.0000 C   0  0  0  0  0  0  0  0  0  0  0  0
   11.4949   -0.6791    0.0000 C   0  0  0  0  0  0  0  0  0  0  0  0
   12.5765    0.0000    0.0000 C   0  0  0  0  0  0  0  0  0  0  0  0
   13.7587   -0.6791    0.0000 C   0  0  0  0  0  0  0  0  0  0  0  0
   14.9158    0.0000    0.0000 C   0  0  0  0  0  0  0  0  0  0  0  0
   16.0225   -0.6791    0.0000 C   0  0  0  0  0  0  0  0  0  0  0  0
   17.1795    0.0000    0.0000 C   0  0  0  0  0  0  0  0  0  0  0  0
   18.3617   -0.6791    0.0000 C   0  0  0  0  0  0  0  0  0  0  0  0
   19.4433    0.0000    0.0000 C   0  0  0  0  0  0  0  0  0  0  0  0
   20.6255   -0.6791    0.0000 C   0  0  0  0  0  0  0  0  0  0  0  0
   21.8077    0.0000    0.0000 C   0  0  0  0  0  0  0  0  0  0  0  0
   22.8893   -0.6791    0.0000 C   0  0  0  0  0  0  0  0  0  0  0  0
   24.0715    0.0000    0.0000 C   0  0  0  0  0  0  0  0  0  0  0  0
   25.1530   -0.6791    0.0000 C   0  0  0  0  0  0  0  0  0  0  0  0
    0.0000   -0.6791    0.0000 O   0  0  0  0  0  0  0  0  0  0  0  0
  1  2  1  0  0  0  0
  1 23  1  0  0  0  0
  2  3  1  0  0  0  0
  3  4  1  0  0  0  0
  4  5  1  0  0  0  0
  5  6  1  0  0  0  0
  6  7  1  0  0  0  0
  7  8  1  0  0  0  0
  8  9  1  0  0  0  0
  9 10  1  0  0  0  0
 10 11  1  0  0  0  0
 11 12  1  0  0  0  0
 12 13  1  0  0  0  0
 13 14  1  0  0  0  0
 14 15  1  0  0  0  0
 15 16  1  0  0  0  0
 16 17  1  0  0  0  0
 17 18  1  0  0  0  0
 18 19  1  0  0  0  0
 19 20  1  0  0  0  0
 20 21  1  0  0  0  0
 21 22  1  0  0  0  0
M  END
> <ID>
5049

> <Formula>
C22H46O

> <FW>
326.6

> <DSSTox_CID>
7286

> <DSSTox_RID>
78387

> <DSSTox_GSID>
27286

> <DSSTox_FileID_Sort>
3070

> <TS_ChemName>
1-Docosanol

> <TS_ChemName_Synonyms>


> <TS_CASRN>
661-19-8

> <CASRN_ChemName_Relationship>
primary

> <TS_Description>
single chemical compound

> <ChemNote>


> <STRUCTURE_Shown>
tested chemical

> <STRUCTURE_Formula>
C22H46O

> <STRUCTURE_MW>
326.6

> <STRUCTURE_ChemType>
defined organic

> <STRUCTURE_DefinedOrganicForm>
parent

> <STRUCTURE_IUPAC>
docosan-1-ol

> <STRUCTURE_SMILES>
CCCCCCCCCCCCCCCCCCCCCCO

> <STRUCTURE_SMILES_Desalt>
CCCCCCCCCCCCCCCCCCCCCCO

> <Substance_modify_yyyymmdd>
20080429

$$$$
