6610-29-3
ChemmineR-0915142007XD

  6  5  0  0  0  0  0  0  0  0  1 V2000
    3.4397   -2.0023    0.0000 N   0  0  0  0  0  0  0  0  0  0  0  0
    4.5924   -1.3318    0.0000 N   0  0  0  0  0  0  0  0  0  0  0  0
    2.2870   -1.3318    0.0000 C   0  0  0  0  0  0  0  0  0  0  0  0
    1.1527   -2.0023    0.0000 N   0  0  0  0  0  0  0  0  0  0  0  0
    2.2870    0.0000    0.0000 S   0  0  0  0  0  0  0  0  0  0  0  0
    0.0000   -1.3318    0.0000 C   0  0  0  0  0  0  0  0  0  0  0  0
  1  2  1  0  0  0  0
  1  3  1  0  0  0  0
  3  5  2  0  0  0  0
  3  4  1  0  0  0  0
  4  6  1  0  0  0  0
M  END
> <ID>
10047

> <Formula>
C2H7N3S

> <FW>
105.1621

> <DSSTox_CID>
24390

> <DSSTox_RID>
80191

> <DSSTox_GSID>
44390

> <DSSTox_FileID_Sort>
4873

> <TS_ChemName>
N-Methylhydrazinecarbothioamide

> <TS_ChemName_Synonyms>
N-Methylhydrazinecarbothioamide (Hydrazinecarbothioamide, N-methyl-)

> <TS_CASRN>
6610-29-3

> <CASRN_ChemName_Relationship>
primary

> <TS_Description>
single chemical compound

> <ChemNote>


> <STRUCTURE_Shown>
tested chemical

> <STRUCTURE_Formula>
C2H7N3S

> <STRUCTURE_MW>
105.1621

> <STRUCTURE_ChemType>
defined organic

> <STRUCTURE_DefinedOrganicForm>
parent

> <STRUCTURE_IUPAC>
N-methylhydrazinecarbothioamide

> <STRUCTURE_SMILES>
CNC(=S)NN

> <STRUCTURE_SMILES_Desalt>
CNC(=S)NN

> <Substance_modify_yyyymmdd>
20091116

$$$$
