66108-95-0
ChemmineR-0915142007XD

 34 34  0  0  0  0  0  0  0  0  1 V2000
    4.6533   -5.7591    0.0000 C   0  0  0  0  0  0  0  0  0  0  0  0
    3.9853   -4.6073    0.0000 I   0  0  0  0  0  0  0  0  0  0  0  0
    5.9894   -5.7591    0.0000 C   0  0  0  0  0  0  0  0  0  0  0  0
    6.6460   -4.6073    0.0000 C   0  0  0  0  0  0  0  0  0  0  0  0
    7.9821   -4.6073    0.0000 O   0  0  0  0  0  0  0  0  0  0  0  0
    5.9894   -3.4554    0.0000 N   0  0  0  0  0  0  0  0  0  0  0  0
    6.6460   -2.3036    0.0000 C   0  0  0  0  0  0  0  0  0  0  0  0
    5.9894   -1.1518    0.0000 C   0  0  0  0  0  0  0  0  0  0  0  0
    6.6460    0.0000    0.0000 O   0  0  0  0  0  0  0  0  0  0  0  0
    4.6533   -1.1518    0.0000 C   0  0  0  0  0  0  0  0  0  0  0  0
    3.9853   -2.3036    0.0000 O   0  0  0  0  0  0  0  0  0  0  0  0
    6.6460   -6.9109    0.0000 C   0  0  0  0  0  0  0  0  0  0  0  0
    7.9821   -6.9109    0.0000 I   0  0  0  0  0  0  0  0  0  0  0  0
    5.9894   -8.0627    0.0000 C   0  0  0  0  0  0  0  0  0  0  0  0
    6.6460   -9.2145    0.0000 C   0  0  0  0  0  0  0  0  0  0  0  0
    5.9894  -10.3663    0.0000 O   0  0  0  0  0  0  0  0  0  0  0  0
    7.9821   -9.2145    0.0000 N   0  0  0  0  0  0  0  0  0  0  0  0
    8.6501  -10.3663    0.0000 C   0  0  0  0  0  0  0  0  0  0  0  0
    9.9747  -10.3663    0.0000 C   0  0  0  0  0  0  0  0  0  0  0  0
   10.6428  -11.5181    0.0000 O   0  0  0  0  0  0  0  0  0  0  0  0
   10.6428   -9.2145    0.0000 C   0  0  0  0  0  0  0  0  0  0  0  0
    9.9747   -8.0627    0.0000 O   0  0  0  0  0  0  0  0  0  0  0  0
    4.6533   -8.0627    0.0000 C   0  0  0  0  0  0  0  0  0  0  0  0
    3.9853   -9.2145    0.0000 I   0  0  0  0  0  0  0  0  0  0  0  0
    3.9853   -6.9109    0.0000 C   0  0  0  0  0  0  0  0  0  0  0  0
    2.6607   -6.9109    0.0000 N   0  0  0  0  0  0  0  0  0  0  0  0
    1.9926   -5.7591    0.0000 C   0  0  0  0  0  0  0  0  0  0  0  0
    2.6607   -4.6073    0.0000 C   0  0  0  0  0  0  0  0  0  0  0  0
    0.6681   -5.7591    0.0000 O   0  0  0  0  0  0  0  0  0  0  0  0
    1.9926   -8.0627    0.0000 C   0  0  0  0  0  0  0  0  0  0  0  0
    0.6681   -8.0627    0.0000 C   0  0  0  0  0  0  0  0  0  0  0  0
    0.0000   -6.9109    0.0000 O   0  0  0  0  0  0  0  0  0  0  0  0
    0.0000   -9.2145    0.0000 C   0  0  0  0  0  0  0  0  0  0  0  0
    0.6681  -10.3663    0.0000 O   0  0  0  0  0  0  0  0  0  0  0  0
  1  2  1  0  0  0  0
  1  3  1  0  0  0  0
  1 25  2  0  0  0  0
  3  4  1  0  0  0  0
  3 12  2  0  0  0  0
  4  5  2  0  0  0  0
  4  6  1  0  0  0  0
  6  7  1  0  0  0  0
  7  8  1  0  0  0  0
  8  9  1  0  0  0  0
  8 10  1  0  0  0  0
 10 11  1  0  0  0  0
 12 13  1  0  0  0  0
 12 14  1  0  0  0  0
 14 15  1  0  0  0  0
 14 23  2  0  0  0  0
 15 16  2  0  0  0  0
 15 17  1  0  0  0  0
 17 18  1  0  0  0  0
 18 19  1  0  0  0  0
 19 20  1  0  0  0  0
 19 21  1  0  0  0  0
 21 22  1  0  0  0  0
 23 24  1  0  0  0  0
 23 25  1  0  0  0  0
 25 26  1  0  0  0  0
 26 27  1  0  0  0  0
 26 30  1  0  0  0  0
 27 28  1  0  0  0  0
 27 29  2  0  0  0  0
 30 31  1  0  0  0  0
 31 32  1  0  0  0  0
 31 33  1  0  0  0  0
 33 34  1  0  0  0  0
M  END
> <ID>
2834

> <Formula>
C19H26I3N3O9

> <FW>
821.1379

> <DSSTox_CID>
3157

> <DSSTox_RID>
76895

> <DSSTox_GSID>
23157

> <DSSTox_FileID_Sort>
1579

> <TS_ChemName>
Iohexol

> <TS_ChemName_Synonyms>


> <TS_CASRN>
66108-95-0

> <CASRN_ChemName_Relationship>
primary

> <TS_Description>
single chemical compound

> <ChemNote>


> <STRUCTURE_Shown>
tested chemical

> <STRUCTURE_Formula>
C19H26I3N3O9

> <STRUCTURE_MW>
821.1379

> <STRUCTURE_ChemType>
defined organic

> <STRUCTURE_DefinedOrganicForm>
parent

> <STRUCTURE_IUPAC>
5-[acetyl(2,3-dihydroxypropyl)amino]-N,N'-bis(2,3-dihydroxypropyl)-2,4,6-triiodobenzene-1,3-dicarboxamide

> <STRUCTURE_SMILES>
OCC(O)CNC(=O)c1c(I)c(N(CC(O)CO)C(C)=O)c(I)c(c1I)C(=O)NCC(O)CO

> <STRUCTURE_SMILES_Desalt>
OCC(O)CNC(=O)c1c(I)c(N(CC(O)CO)C(C)=O)c(I)c(c1I)C(=O)NCC(O)CO

> <Substance_modify_yyyymmdd>
20080429

$$$$
