66215-27-8
ChemmineR-0915142007XD

 12 13  0  0  0  0  0  0  0  0  1 V2000
    3.4519   -0.7245    0.0000 C   0  0  0  0  0  0  0  0  0  0  0  0
    3.4519   -2.0527    0.0000 N   0  0  0  0  0  0  0  0  0  0  0  0
    2.3226   -0.0497    0.0000 N   0  0  0  0  0  0  0  0  0  0  0  0
    1.1506   -2.0527    0.0000 N   0  0  0  0  0  0  0  0  0  0  0  0
    1.1506   -0.6890    0.0000 C   0  0  0  0  0  0  0  0  0  0  0  0
    2.3226   -2.7062    0.0000 C   0  0  0  0  0  0  0  0  0  0  0  0
    4.6097   -0.0355    0.0000 N   0  0  0  0  0  0  0  0  0  0  0  0
    5.7746   -0.6890    0.0000 C   0  0  0  0  0  0  0  0  0  0  0  0
    7.1028   -0.6748    0.0000 C   0  0  0  0  0  0  0  0  0  0  0  0
    6.4493   -1.8112    0.0000 C   0  0  0  0  0  0  0  0  0  0  0  0
    0.0000    0.0000    0.0000 N   0  0  0  0  0  0  0  0  0  0  0  0
    2.3226   -4.0344    0.0000 N   0  0  0  0  0  0  0  0  0  0  0  0
  1  2  2  0  0  0  0
  1  3  1  0  0  0  0
  1  7  1  0  0  0  0
  2  6  1  0  0  0  0
  3  5  2  0  0  0  0
  4  5  1  0  0  0  0
  4  6  2  0  0  0  0
  5 11  1  0  0  0  0
  6 12  1  0  0  0  0
  7  8  1  0  0  0  0
  8  9  1  0  0  0  0
  8 10  1  0  0  0  0
  9 10  1  0  0  0  0
M  END
> <ID>
3462

> <Formula>
C6H10N6

> <FW>
166.1838

> <DSSTox_CID>
3999

> <DSSTox_RID>
77253

> <DSSTox_GSID>
23999

> <DSSTox_FileID_Sort>
1936

> <TS_ChemName>
Cyromazine

> <TS_ChemName_Synonyms>


> <TS_CASRN>
66215-27-8

> <CASRN_ChemName_Relationship>
primary

> <TS_Description>
single chemical compound

> <ChemNote>


> <STRUCTURE_Shown>
tested chemical

> <STRUCTURE_Formula>
C6H10N6

> <STRUCTURE_MW>
166.1838

> <STRUCTURE_ChemType>
defined organic

> <STRUCTURE_DefinedOrganicForm>
parent

> <STRUCTURE_IUPAC>
N~2~-cyclopropyl-1,3,5-triazine-2,4,6-triamine

> <STRUCTURE_SMILES>
Nc2nc(N)nc(NC1CC1)n2

> <STRUCTURE_SMILES_Desalt>
Nc2nc(N)nc(NC1CC1)n2

> <Substance_modify_yyyymmdd>
20080429

$$$$
