66230-04-4
ChemmineR-0915142007XD

 30 32  0  0  1  0  0  0  0  0  1 V2000
    3.9890   -3.3302    0.0000 C    0  0  0  0  0  0  0  0  0  0  0  0
    5.3187   -3.3302    0.0000 C    0  0  0  0  0  0  0  0  0  0  0  0
    3.3182   -2.2041    0.0000 C    0  0  0  0  0  0  0  0  0  0  0  0
    3.3661   -4.5161    0.0000 C    0  0  0  0  0  0  0  0  0  0  0  0
    5.9775   -4.4801    0.0000 C    0  0  0  0  0  0  0  0  0  0  0  0
    5.9895   -2.2041    0.0000 C    0  0  0  0  0  0  0  0  0  0  0  0
    1.9885   -2.2041    0.0000 C    0  0  0  0  0  0  0  0  0  0  0  0
    2.0364   -4.5161    0.0000 C    0  0  0  0  0  0  0  0  0  0  0  0
    7.2593   -4.4801    0.0000 O    0  0  0  0  0  0  0  0  0  0  0  0
    5.3187   -5.6181    0.0000 O    0  0  0  0  0  0  0  0  0  0  0  0
    7.3072   -2.2041    0.0000 C    0  0  0  0  0  0  0  0  0  0  0  0
    5.3307   -1.0542    0.0000 C    0  0  0  0  0  0  0  0  0  0  0  0
    1.3297   -3.4260    0.0000 C    0  0  0  0  0  0  0  0  0  0  0  0
    7.9900   -5.6541    0.0000 C    0  0  0  0  0  0  0  0  0  0  0  0
    0.0000   -3.4380    0.0000 Cl   0  0  0  0  0  0  0  0  0  0  0  0
    9.3077   -5.6541    0.0000 C    0  0  0  0  0  0  0  0  0  0  0  0
    7.3072   -6.7921    0.0000 C    0  0  0  0  0  0  0  0  0  0  0  0
    9.9785   -4.5640    0.0000 C    0  0  0  0  0  0  0  0  0  0  0  0
    9.9785   -6.8400    0.0000 C    0  0  0  0  0  0  0  0  0  0  0  0
    6.6124   -8.2296    0.0000 N    0  0  0  0  0  0  0  0  0  0  0  0
   11.2603   -4.5640    0.0000 C    0  0  0  0  0  0  0  0  0  0  0  0
   11.2962   -6.8400    0.0000 C    0  0  0  0  0  0  0  0  0  0  0  0
   11.9431   -3.4260    0.0000 O    0  0  0  0  0  0  0  0  0  0  0  0
   11.9790   -5.6780    0.0000 C    0  0  0  0  0  0  0  0  0  0  0  0
   11.2962   -2.2521    0.0000 C    0  0  0  0  0  0  0  0  0  0  0  0
   11.8951   -1.0901    0.0000 C    0  0  0  0  0  0  0  0  0  0  0  0
    9.9905   -2.2521    0.0000 C    0  0  0  0  0  0  0  0  0  0  0  0
   11.2483    0.0000    0.0000 C    0  0  0  0  0  0  0  0  0  0  0  0
    9.2837   -1.1500    0.0000 C    0  0  0  0  0  0  0  0  0  0  0  0
    9.9426    0.0000    0.0000 C    0  0  0  0  0  0  0  0  0  0  0  0
  1  2  1  0  0  0  0
  1  3  2  0  0  0  0
  1  4  1  0  0  0  0
  2  5  1  0  0  0  0
  2  6  1  6  0  0  0
  3  7  1  0  0  0  0
  4  8  2  0  0  0  0
  5  9  1  0  0  0  0
  5 10  2  0  0  0  0
  6 11  1  0  0  0  0
  6 12  1  0  0  0  0
  7 13  2  0  0  0  0
  8 13  1  0  0  0  0
  9 14  1  0  0  0  0
 13 15  1  0  0  0  0
 14 16  1  0  0  0  0
 14 17  1  1  0  0  0
 16 18  1  0  0  0  0
 16 19  2  0  0  0  0
 17 20  3  0  0  0  0
 18 21  2  0  0  0  0
 19 22  1  0  0  0  0
 21 23  1  0  0  0  0
 21 24  1  0  0  0  0
 22 24  2  0  0  0  0
 23 25  1  0  0  0  0
 25 26  2  0  0  0  0
 25 27  1  0  0  0  0
 26 28  1  0  0  0  0
 27 29  2  0  0  0  0
 28 30  2  0  0  0  0
 29 30  1  0  0  0  0
M  END
> <ID>
6572

> <Formula>
C25H22ClNO3

> <FW>
419.9001

> <DSSTox_CID>
12667

> <DSSTox_RID>
79029

> <DSSTox_GSID>
32667

> <DSSTox_FileID_Sort>
3711

> <TS_ChemName>
Esfenvalerate

> <TS_ChemName_Synonyms>


> <TS_CASRN>
66230-04-4

> <CASRN_ChemName_Relationship>
primary

> <TS_Description>
single chemical compound

> <ChemNote>
stereochem

> <STRUCTURE_Shown>
tested chemical

> <STRUCTURE_Formula>
C25H22ClNO3

> <STRUCTURE_MW>
419.9001

> <STRUCTURE_ChemType>
defined organic

> <STRUCTURE_DefinedOrganicForm>
parent

> <STRUCTURE_IUPAC>
(S)-cyano(3-phenoxyphenyl)methyl (2S)-2-(4-chlorophenyl)-3-methylbutanoate

> <STRUCTURE_SMILES>
Clc1ccc(cc1)[C@H](C(C)C)C(=O)O[C@H](C#N)c3cccc(Oc2ccccc2)c3

> <STRUCTURE_SMILES_Desalt>
Clc1ccc(cc1)[C@H](C(C)C)C(=O)O[C@H](C#N)c3cccc(Oc2ccccc2)c3

> <Substance_modify_yyyymmdd>
20080429

$$$$
