6624-73-3
ChemmineR-0915142007XD

 23 24  0  0  0  0  0  0  0  0  1 V2000
    4.6183   -1.9862    0.0000 O   0  0  0  0  0  0  0  0  0  0  0  0
    5.7648   -1.3241    0.0000 C   0  0  0  0  0  0  0  0  0  0  0  0
    3.4718   -1.3241    0.0000 C   0  0  0  0  0  0  0  0  0  0  0  0
    2.3091   -1.9862    0.0000 C   0  0  0  0  0  0  0  0  0  0  0  0
    2.3091   -3.3103    0.0000 C   0  0  0  0  0  0  0  0  0  0  0  0
    1.1626   -1.3241    0.0000 C   0  0  0  0  0  0  0  0  0  0  0  0
    1.1626   -3.9885    0.0000 C   0  0  0  0  0  0  0  0  0  0  0  0
    0.0000   -1.9862    0.0000 C   0  0  0  0  0  0  0  0  0  0  0  0
    0.0000   -3.3103    0.0000 C   0  0  0  0  0  0  0  0  0  0  0  0
    3.4718    0.0000    0.0000 O   0  0  0  0  0  0  0  0  0  0  0  0
    6.9274   -1.9862    0.0000 C   0  0  0  0  0  0  0  0  0  0  0  0
    9.2204   -1.9862    0.0000 C   0  0  0  0  0  0  0  0  0  0  0  0
   10.3831   -1.3241    0.0000 C   0  0  0  0  0  0  0  0  0  0  0  0
   11.5296   -1.9862    0.0000 O   0  0  0  0  0  0  0  0  0  0  0  0
   12.6761   -1.3241    0.0000 C   0  0  0  0  0  0  0  0  0  0  0  0
   13.8387   -1.9862    0.0000 C   0  0  0  0  0  0  0  0  0  0  0  0
   14.9852   -1.3241    0.0000 C   0  0  0  0  0  0  0  0  0  0  0  0
   13.8387   -3.3103    0.0000 C   0  0  0  0  0  0  0  0  0  0  0  0
   16.1479   -1.9862    0.0000 C   0  0  0  0  0  0  0  0  0  0  0  0
   14.9852   -3.9885    0.0000 C   0  0  0  0  0  0  0  0  0  0  0  0
   16.1479   -3.3103    0.0000 C   0  0  0  0  0  0  0  0  0  0  0  0
   12.6761    0.0000    0.0000 O   0  0  0  0  0  0  0  0  0  0  0  0
    8.0739   -1.3241    0.0000 C   0  0  0  0  0  0  0  0  0  0  0  0
  1  2  1  0  0  0  0
  1  3  1  0  0  0  0
  2 11  1  0  0  0  0
  3  4  1  0  0  0  0
  3 10  2  0  0  0  0
  4  5  1  0  0  0  0
  4  6  2  0  0  0  0
  5  7  2  0  0  0  0
  6  8  1  0  0  0  0
  7  9  1  0  0  0  0
  8  9  2  0  0  0  0
 11 23  1  0  0  0  0
 12 13  1  0  0  0  0
 12 23  1  0  0  0  0
 13 14  1  0  0  0  0
 14 15  1  0  0  0  0
 15 16  1  0  0  0  0
 15 22  2  0  0  0  0
 16 17  1  0  0  0  0
 16 18  2  0  0  0  0
 17 19  2  0  0  0  0
 18 20  1  0  0  0  0
 19 21  1  0  0  0  0
 20 21  2  0  0  0  0
M  END
> <ID>
12662

> <Formula>
C19H20O4

> <FW>
312.3597

> <DSSTox_CID>
27538

> <DSSTox_RID>
82404

> <DSSTox_GSID>
47538

> <DSSTox_FileID_Sort>
7085

> <TS_ChemName>
Pentane-1,5-diyl dibenzoate

> <TS_ChemName_Synonyms>
Pentane-1,5-diyl dibenzoate (1,5-PENTANDIYLDIBENZOAT)

> <TS_CASRN>
6624-73-3

> <CASRN_ChemName_Relationship>
primary

> <TS_Description>
single chemical compound

> <ChemNote>


> <STRUCTURE_Shown>
tested chemical

> <STRUCTURE_Formula>
C19H20O4

> <STRUCTURE_MW>
312.3597

> <STRUCTURE_ChemType>
defined organic

> <STRUCTURE_DefinedOrganicForm>
parent

> <STRUCTURE_IUPAC>
pentane-1,5-diyl dibenzoate

> <STRUCTURE_SMILES>
O=C(OCCCCCOC(=O)c1ccccc1)c2ccccc2

> <STRUCTURE_SMILES_Desalt>
O=C(OCCCCCOC(=O)c1ccccc1)c2ccccc2

> <Substance_modify_yyyymmdd>
20100921

$$$$
