6625-46-3
ChemmineR-0915142007XD

 35 35  0  0  0  0  0  0  0  0  2 V2000
    2.3128   -0.6645    0.0000 C    0  0  0  0  0  0  0  0  0  0  0  0
    2.3128   -1.9934    0.0000 C    0  0  0  0  0  0  0  0  0  0  0  0
    1.1500    0.0000    0.0000 C    0  0  0  0  0  0  0  0  0  0  0  0
    1.1500   -2.6579    0.0000 C    0  0  0  0  0  0  0  0  0  0  0  0
    0.0000   -0.6645    0.0000 C    0  0  0  0  0  0  0  0  0  0  0  0
    0.0000   -1.9934    0.0000 C    0  0  0  0  0  0  0  0  0  0  0  0
    3.4629    0.0000    0.0000 O    0  0  0  0  0  0  0  0  0  0  0  0
    3.4629   -2.6579    0.0000 N    0  0  0  0  0  0  0  0  0  0  0  0
    3.4629   -3.9996    0.0000 N    0  0  0  0  0  0  0  0  0  0  0  0
    4.6001   -4.6512    0.0000 C    0  0  0  0  0  0  0  0  0  0  0  0
    5.7502   -3.9996    0.0000 C    0  0  0  0  0  0  0  0  0  0  0  0
    4.6001   -5.9802    0.0000 C    0  0  0  0  0  0  0  0  0  0  0  0
    6.9130   -4.6512    0.0000 C    0  0  0  0  0  0  0  0  0  0  0  0
    5.7502   -6.6574    0.0000 C    0  0  0  0  0  0  0  0  0  0  0  0
    6.9130   -5.9802    0.0000 C    0  0  0  0  0  0  0  0  0  0  0  0
    8.0630   -3.9996    0.0000 C    0  0  0  0  0  0  0  0  0  0  0  0
    9.2131   -4.6512    0.0000 C    0  0  0  0  0  0  0  0  0  0  0  0
    8.0630   -6.6574    0.0000 C    0  0  0  0  0  0  0  0  0  0  0  0
    9.2131   -5.9802    0.0000 C    0  0  0  0  0  0  0  0  0  0  0  0
    5.7502   -2.6579    0.0000 O    0  0  0  0  0  0  0  0  0  0  0  0
    3.4629   -6.6574    0.0000 S    0  0  0  0  0  0  0  0  0  0  0  0
    2.3128   -7.3347    0.0000 O    0  5  0  0  0  0  0  0  0  0  0  0
    4.1146   -7.7947    0.0000 O    0  0  0  0  0  0  0  0  0  0  0  0
    2.7856   -5.5074    0.0000 O    0  0  0  0  0  0  0  0  0  0  0  0
   10.3759   -6.6574    0.0000 S    0  0  0  0  0  0  0  0  0  0  0  0
    9.6986   -7.7947    0.0000 O    0  0  0  0  0  0  0  0  0  0  0  0
   11.0275   -5.5074    0.0000 O    0  0  0  0  0  0  0  0  0  0  0  0
   11.5259   -7.3091    0.0000 O    0  5  0  0  0  0  0  0  0  0  0  0
    8.0630   -2.6579    0.0000 N    0  0  0  0  0  0  0  0  0  0  0  0
    9.2131   -1.9934    0.0000 C    0  0  0  0  0  0  0  0  0  0  0  0
    9.2131   -0.6645    0.0000 O    0  0  0  0  0  0  0  0  0  0  0  0
   10.3759   -2.6579    0.0000 C    0  0  0  0  0  0  0  0  0  0  0  0
    4.6001   -0.6645    0.0000 C    0  0  0  0  0  0  0  0  0  0  0  0
    1.1117   -7.2963    0.0000 Na   0  3  0  0  0  0  0  0  0  0  0  0
   12.7782   -7.2963    0.0000 Na   0  3  0  0  0  0  0  0  0  0  0  0
  1  2  1  0  0  0  0
  1  3  2  0  0  0  0
  1  7  1  0  0  0  0
  2  4  2  0  0  0  0
  2  8  1  0  0  0  0
  3  5  1  0  0  0  0
  4  6  1  0  0  0  0
  5  6  2  0  0  0  0
  7 33  1  0  0  0  0
  8  9  2  0  0  0  0
  9 10  1  0  0  0  0
 10 11  1  0  0  0  0
 10 12  2  0  0  0  0
 11 13  2  0  0  0  0
 11 20  1  0  0  0  0
 12 14  1  0  0  0  0
 12 21  1  0  0  0  0
 13 16  1  0  0  0  0
 13 15  1  0  0  0  0
 14 15  2  0  0  0  0
 15 18  1  0  0  0  0
 16 17  2  0  0  0  0
 16 29  1  0  0  0  0
 17 19  1  0  0  0  0
 18 19  2  0  0  0  0
 19 25  1  0  0  0  0
 21 22  1  0  0  0  0
 21 23  2  0  0  0  0
 21 24  2  0  0  0  0
 25 26  2  0  0  0  0
 25 27  2  0  0  0  0
 25 28  1  0  0  0  0
 29 30  1  0  0  0  0
 30 31  2  0  0  0  0
 30 32  1  0  0  0  0
M  END
> <ID>
8670

> <Formula>
C19H15N3Na2O9S2

> <FW>
539.4466 (493.4682+22.9892+22.9892)

> <DSSTox_CID>
21715

> <DSSTox_RID>
79829

> <DSSTox_GSID>
41715

> <DSSTox_FileID_Sort>
4511

> <TS_ChemName>
C.I. Acid violet 12, disodium salt

> <TS_ChemName_Synonyms>


> <TS_CASRN>
6625-46-3

> <CASRN_ChemName_Relationship>
primary

> <TS_Description>
single chemical compound

> <ChemNote>
C.I.18075; parent [761337-02-4]

> <STRUCTURE_Shown>
tested chemical

> <STRUCTURE_Formula>
C19H15N3Na2O9S2

> <STRUCTURE_MW>
539.4466

> <STRUCTURE_ChemType>
defined organic

> <STRUCTURE_DefinedOrganicForm>
salt

> <STRUCTURE_IUPAC>
disodium 5-(acetylamino)-4-hydroxy-3-[(E)-(2-methoxyphenyl)diazenyl]naphthalene-2,7-disulfonate

> <STRUCTURE_SMILES>
[Na+].[Na+].[O-]S(=O)(=O)c3cc2cc(c(/N=N/c1ccccc1OC)c(O)c2c(c3)NC(C)=O)S([O-])(=O)=O

> <STRUCTURE_SMILES_Desalt>
O=S(=O)(O)c3cc2cc(c(/N=N/c1ccccc1OC)c(O)c2c(c3)NC(C)=O)S(=O)(=O)O

> <Substance_modify_yyyymmdd>
20080825

$$$$
