66309-69-1
ChemmineR-0915142007XD

 37 39  0  0  1  0  0  0  0  0  1 V2000
    7.1631   -7.0724    0.0000 N    0  0  0  0  0  0  0  0  0  0  0  0
    5.8181   -7.0724    0.0000 C    0  0  0  0  0  0  0  0  0  0  0  0
    7.1631   -5.7123    0.0000 C    0  0  0  0  0  0  0  0  0  0  0  0
    5.8181   -5.7123    0.0000 C    0  0  0  0  0  0  0  0  0  0  0  0
   12.8300   -8.9916    0.0000 N    0  0  0  0  0  0  0  0  0  0  0  0
   11.7873   -9.7623    0.0000 C    0  0  0  0  0  0  0  0  0  0  0  0
    8.3267   -7.7524    0.0000 C    0  0  0  0  0  0  0  0  0  0  0  0
   12.1802  -11.0166    0.0000 N    0  0  0  0  0  0  0  0  0  0  0  0
   13.4647  -11.0166    0.0000 N    0  0  0  0  0  0  0  0  0  0  0  0
   13.9030   -9.7623    0.0000 N    0  0  0  0  0  0  0  0  0  0  0  0
    8.3267   -5.0323    0.0000 S    0  0  0  0  0  0  0  0  0  0  0  0
    9.4903   -7.0724    0.0000 C    0  0  0  0  0  0  0  0  0  0  0  0
    2.1761   -2.1157    0.0000 N    0  0  0  0  0  0  0  0  0  0  0  0
    1.0881   -1.3450    0.0000 C    0  0  0  0  0  0  0  0  0  0  0  0
    4.4580   -5.7123    0.0000 N    0  0  0  0  0  0  0  0  0  0  0  0
    1.7530   -3.4002    0.0000 C    0  0  0  0  0  0  0  0  0  0  0  0
    8.3267   -9.0823    0.0000 C    0  0  0  0  0  0  0  0  0  0  0  0
    0.0000   -2.1157    0.0000 S    0  0  0  0  0  0  0  0  0  0  0  0
    3.7931   -4.5487    0.0000 C    0  0  0  0  0  0  0  0  0  0  0  0
   10.6690   -9.1276    0.0000 S    0  0  0  0  0  0  0  0  0  0  0  0
    2.4330   -4.5487    0.0000 C    0  0  0  0  0  0  0  0  0  0  0  0
   12.8300   -7.6315    0.0000 C    0  0  0  0  0  0  0  0  0  0  0  0
    9.4903   -5.7123    0.0000 C    0  0  0  0  0  0  0  0  0  0  0  0
    0.4231   -3.4002    0.0000 C    0  0  0  0  0  0  0  0  0  0  0  0
    4.8812   -7.9942    0.0000 O    0  0  0  0  0  0  0  0  0  0  0  0
   10.6690   -7.7524    0.0000 C    0  0  0  0  0  0  0  0  0  0  0  0
    9.4601   -9.7623    0.0000 O    0  0  0  0  0  0  0  0  0  0  0  0
    4.4580   -3.4002    0.0000 O    0  0  0  0  0  0  0  0  0  0  0  0
    1.0881    0.0000    0.0000 N    0  0  0  0  0  0  0  0  0  0  0  0
   13.9936   -6.9666    0.0000 C    0  0  0  0  0  0  0  0  0  0  0  0
   13.9936   -5.6519    0.0000 N    0  0  0  0  0  0  0  0  0  0  0  0
    7.1631   -9.7623    0.0000 O    0  0  0  0  0  0  0  0  0  0  0  0
   15.1119   -4.9869    0.0000 C    0  0  0  0  0  0  0  0  0  0  0  0
   12.8300   -4.9869    0.0000 C    0  0  0  0  0  0  0  0  0  0  0  0
    5.8181   -4.5185    0.0000 H    0  0  0  0  0  0  0  0  0  0  0  0
    7.1933   -4.5034    0.0000 H    0  0  0  0  0  0  0  0  0  0  0  0
    1.5716   -6.3470    0.0000 Cl   0  0  0  0  0  0  0  0  0  0  0  0
  1  2  1  0  0  0  0
  1  3  1  0  0  0  0
  1  7  1  0  0  0  0
  2 25  2  0  0  0  0
  2  4  1  0  0  0  0
  3  4  1  0  0  0  0
  3 11  1  0  0  0  0
  3 36  1  6  0  0  0
  4 15  1  1  0  0  0
  4 35  1  6  0  0  0
  5  6  1  0  0  0  0
  5 10  1  0  0  0  0
  5 22  1  0  0  0  0
  6 20  1  0  0  0  0
  6  8  2  0  0  0  0
  7 12  2  0  0  0  0
  7 17  1  0  0  0  0
  8  9  1  0  0  0  0
  9 10  2  0  0  0  0
 11 23  1  0  0  0  0
 12 23  1  0  0  0  0
 12 26  1  0  0  0  0
 13 16  1  0  0  0  0
 13 14  2  0  0  0  0
 14 29  1  0  0  0  0
 14 18  1  0  0  0  0
 15 19  1  0  0  0  0
 16 21  1  0  0  0  0
 16 24  2  0  0  0  0
 17 27  2  0  0  0  0
 17 32  1  0  0  0  0
 18 24  1  0  0  0  0
 19 21  1  0  0  0  0
 19 28  2  0  0  0  0
 20 26  1  0  0  0  0
 22 30  1  0  0  0  0
 30 31  1  0  0  0  0
 31 33  1  0  0  0  0
 31 34  1  0  0  0  0
M  END
> <ID>
11008

> <Formula>
C18H24ClN9O4S3

> <FW>
562.0891 (525.6281+36.4609)

> <DSSTox_CID>
25538

> <DSSTox_RID>
80940

> <DSSTox_GSID>
45538

> <DSSTox_FileID_Sort>
5621

> <TS_ChemName>
Cefotiam hydrochloride

> <TS_ChemName_Synonyms>


> <TS_CASRN>
66309-69-1

> <CASRN_ChemName_Relationship>
primary

> <TS_Description>
single chemical compound

> <ChemNote>
stereochem; parent [61622-34-2]

> <STRUCTURE_Shown>
tested chemical

> <STRUCTURE_Formula>
C18H24ClN9O4S3

> <STRUCTURE_MW>
562.0891

> <STRUCTURE_ChemType>
defined organic

> <STRUCTURE_DefinedOrganicForm>
complex

> <STRUCTURE_IUPAC>
(6R,7R)-7-{[(2-amino-1,3-thiazol-4-yl)acetyl]amino}-3-[({1-[2-(dimethylamino)ethyl]-1H-tetrazol-5-yl}sulfanyl)methyl]-8-oxo-5-thia-1-azabicyclo[4.2.0]oct-2-ene-2-carboxylic acid hydrochloride (1:1)

> <STRUCTURE_SMILES>
Cl.Nc1scc(n1)CC(=O)N[C@@H]4C(=O)N3C(=C(CSc2nnnn2CCN(C)C)CS[C@@H]34)C(=O)O

> <STRUCTURE_SMILES_Desalt>
Nc1scc(n1)CC(=O)N[C@@H]4C(=O)N3C(=C(CSc2nnnn2CCN(C)C)CS[C@@H]34)C(=O)O

> <Substance_modify_yyyymmdd>
20100107

$$$$
