66304-03-8
ChemmineR-0915142007XD

 25 27  0  0  0  0  0  0  0  0  1 V2000
    0.0000   -7.4910    0.0000 C   0  0  0  0  0  0  0  0  0  0  0  0
    1.3010   -7.2064    0.0000 C   0  0  0  0  0  0  0  0  0  0  0  0
    2.1853   -8.2025    0.0000 N   0  0  0  0  0  0  0  0  0  0  0  0
    1.9109   -9.5035    0.0000 C   0  0  0  0  0  0  0  0  0  0  0  0
    3.0696  -10.1642    0.0000 C   0  0  0  0  0  0  0  0  0  0  0  0
    4.0555   -9.2697    0.0000 C   0  0  0  0  0  0  0  0  0  0  0  0
    3.5168   -8.0602    0.0000 C   0  0  0  0  0  0  0  0  0  0  0  0
    4.1775   -6.9116    0.0000 C   0  0  0  0  0  0  0  0  0  0  0  0
    3.5168   -5.7529    0.0000 N   0  0  0  0  0  0  0  0  0  0  0  0
    4.1775   -4.6044    0.0000 C   0  0  0  0  0  0  0  0  0  0  0  0
    5.5090   -4.6044    0.0000 O   0  0  0  0  0  0  0  0  0  0  0  0
    3.5168   -3.4558    0.0000 C   0  0  0  0  0  0  0  0  0  0  0  0
    2.3581   -4.1165    0.0000 O   0  0  0  0  0  0  0  0  0  0  0  0
    2.8460   -2.3073    0.0000 C   0  0  0  0  0  0  0  0  0  0  0  0
    3.5168   -1.1486    0.0000 C   0  0  0  0  0  0  0  0  0  0  0  0
    2.8460    0.0000    0.0000 C   0  0  0  0  0  0  0  0  0  0  0  0
    1.5145    0.0000    0.0000 C   0  0  0  0  0  0  0  0  0  0  0  0
    0.8538   -1.1486    0.0000 C   0  0  0  0  0  0  0  0  0  0  0  0
    1.5145   -2.3073    0.0000 C   0  0  0  0  0  0  0  0  0  0  0  0
    4.6654   -2.7850    0.0000 C   0  0  0  0  0  0  0  0  0  0  0  0
    5.8139   -3.4558    0.0000 C   0  0  0  0  0  0  0  0  0  0  0  0
    6.9625   -2.7850    0.0000 C   0  0  0  0  0  0  0  0  0  0  0  0
    6.9625   -1.4636    0.0000 C   0  0  0  0  0  0  0  0  0  0  0  0
    5.8139   -0.7928    0.0000 C   0  0  0  0  0  0  0  0  0  0  0  0
    4.6654   -1.4636    0.0000 C   0  0  0  0  0  0  0  0  0  0  0  0
  1  2  1  0  0  0  0
  2  3  1  0  0  0  0
  3  4  1  0  0  0  0
  3  7  1  0  0  0  0
  4  5  1  0  0  0  0
  5  6  1  0  0  0  0
  6  7  1  0  0  0  0
  7  8  1  0  0  0  0
  8  9  1  0  0  0  0
  9 10  1  0  0  0  0
 10 11  2  0  0  0  0
 10 12  1  0  0  0  0
 12 13  1  0  0  0  0
 12 14  1  0  0  0  0
 12 20  1  0  0  0  0
 14 15  2  0  0  0  0
 14 19  1  0  0  0  0
 15 16  1  0  0  0  0
 16 17  2  0  0  0  0
 17 18  1  0  0  0  0
 18 19  2  0  0  0  0
 20 21  2  0  0  0  0
 20 25  1  0  0  0  0
 21 22  1  0  0  0  0
 22 23  2  0  0  0  0
 23 24  1  0  0  0  0
 24 25  2  0  0  0  0
M  END
> <ID>
16197

> <Formula>
C21H26N2O2

> <FW>
338.4433

> <DSSTox_CID>
31588

> <DSSTox_RID>
97472

> <DSSTox_GSID>
57799

> <DSSTox_FileID_Sort>
8539

> <TS_ChemName>
Epicainide

> <TS_ChemName_Synonyms>


> <TS_CASRN>
66304-03-8

> <CASRN_ChemName_Relationship>
primary

> <TS_Description>
single chemical compound

> <ChemNote>


> <STRUCTURE_Shown>
tested chemical

> <STRUCTURE_Formula>
C21H26N2O2

> <STRUCTURE_MW>
338.4433

> <STRUCTURE_ChemType>
defined organic

> <STRUCTURE_DefinedOrganicForm>
parent

> <STRUCTURE_IUPAC>
N-[(1-ethylpyrrolidin-2-yl)methyl]-2-hydroxy-2,2-diphenylacetamide

> <STRUCTURE_SMILES>
CCN3CCCC3CNC(=O)C(O)(c1ccccc1)c2ccccc2

> <STRUCTURE_SMILES_Desalt>
CCN3CCCC3CNC(=O)C(O)(c1ccccc1)c2ccccc2

> <Substance_modify_yyyymmdd>
20131018

$$$$
