6632-68-4
ChemmineR-0915142007XD

 13 13  0  0  0  0  0  0  0  0  1 V2000
    1.1567   -3.3204    0.0000 N   0  0  0  0  0  0  0  0  0  0  0  0
    2.3076   -1.3293    0.0000 N   0  0  0  0  0  0  0  0  0  0  0  0
    1.1567   -1.9911    0.0000 C   0  0  0  0  0  0  0  0  0  0  0  0
    3.4643   -3.3204    0.0000 C   0  0  0  0  0  0  0  0  0  0  0  0
    2.3076   -3.9937    0.0000 C   0  0  0  0  0  0  0  0  0  0  0  0
    3.4643   -1.9911    0.0000 C   0  0  0  0  0  0  0  0  0  0  0  0
    0.0000   -1.3293    0.0000 O   0  0  0  0  0  0  0  0  0  0  0  0
    4.5980   -1.3293    0.0000 O   0  0  0  0  0  0  0  0  0  0  0  0
    2.3076   -5.3231    0.0000 N   0  0  0  0  0  0  0  0  0  0  0  0
    0.0000   -3.9937    0.0000 C   0  0  0  0  0  0  0  0  0  0  0  0
    2.3076    0.0000    0.0000 C   0  0  0  0  0  0  0  0  0  0  0  0
    4.5980   -3.9937    0.0000 N   0  0  0  0  0  0  0  0  0  0  0  0
    5.7547   -3.3204    0.0000 O   0  0  0  0  0  0  0  0  0  0  0  0
  1  3  1  0  0  0  0
  1  5  1  0  0  0  0
  1 10  1  0  0  0  0
  2  3  1  0  0  0  0
  2  6  1  0  0  0  0
  2 11  1  0  0  0  0
  3  7  2  0  0  0  0
  4  5  2  0  0  0  0
  4  6  1  0  0  0  0
  4 12  1  0  0  0  0
  5  9  1  0  0  0  0
  6  8  2  0  0  0  0
 12 13  2  0  0  0  0
M  END
> <ID>
5917

> <Formula>
C6H8N4O3

> <FW>
184.1527

> <DSSTox_CID>
9280

> <DSSTox_RID>
78745

> <DSSTox_GSID>
29280

> <DSSTox_FileID_Sort>
3427

> <TS_ChemName>
6-Amino-1,3-dimethyl-5-nitroso- 2,4(1H,3H)-pyrimidinedione

> <TS_ChemName_Synonyms>


> <TS_CASRN>
6632-68-4

> <CASRN_ChemName_Relationship>
primary

> <TS_Description>
single chemical compound

> <ChemNote>


> <STRUCTURE_Shown>
tested chemical

> <STRUCTURE_Formula>
C6H8N4O3

> <STRUCTURE_MW>
184.1527

> <STRUCTURE_ChemType>
defined organic

> <STRUCTURE_DefinedOrganicForm>
parent

> <STRUCTURE_IUPAC>
6-amino-1,3-dimethyl-5-nitrosopyrimidine-2,4(1H,3H)-dione

> <STRUCTURE_SMILES>
CN1C(N)=C(N=O)C(=O)N(C)C1=O

> <STRUCTURE_SMILES_Desalt>
CN1C(N)=C(N=O)C(=O)N(C)C1=O

> <Substance_modify_yyyymmdd>
20080429

$$$$
