66332-96-5
ChemmineR-0915142007XD

 23 24  0  0  0  0  0  0  0  0  1 V2000
    2.2909   -5.9435    0.0000 C   0  0  0  0  0  0  0  0  0  0  0  0
    2.2909   -7.2684    0.0000 C   0  0  0  0  0  0  0  0  0  0  0  0
    3.4594   -5.2903    0.0000 C   0  0  0  0  0  0  0  0  0  0  0  0
    1.1685   -5.2903    0.0000 C   0  0  0  0  0  0  0  0  0  0  0  0
    1.1685   -7.9584    0.0000 C   0  0  0  0  0  0  0  0  0  0  0  0
    3.4594   -7.9952    0.0000 C   0  0  0  0  0  0  0  0  0  0  0  0
    4.6094   -5.9803    0.0000 N   0  0  0  0  0  0  0  0  0  0  0  0
    3.4594   -4.0022    0.0000 O   0  0  0  0  0  0  0  0  0  0  0  0
    0.0000   -5.9803    0.0000 C   0  0  0  0  0  0  0  0  0  0  0  0
    0.0000   -7.2684    0.0000 C   0  0  0  0  0  0  0  0  0  0  0  0
    4.6094   -8.6669    0.0000 F   0  0  0  0  0  0  0  0  0  0  0  0
    4.1678   -6.8176    0.0000 F   0  0  0  0  0  0  0  0  0  0  0  0
    2.7601   -9.1453    0.0000 F   0  0  0  0  0  0  0  0  0  0  0  0
    5.7779   -5.2903    0.0000 C   0  0  0  0  0  0  0  0  0  0  0  0
    5.7779   -3.9654    0.0000 C   0  0  0  0  0  0  0  0  0  0  0  0
    6.9096   -5.9803    0.0000 C   0  0  0  0  0  0  0  0  0  0  0  0
    6.9096   -3.3122    0.0000 C   0  0  0  0  0  0  0  0  0  0  0  0
    8.0596   -5.2903    0.0000 C   0  0  0  0  0  0  0  0  0  0  0  0
    8.0596   -4.0022    0.0000 C   0  0  0  0  0  0  0  0  0  0  0  0
    6.9096   -1.9689    0.0000 O   0  0  0  0  0  0  0  0  0  0  0  0
    8.0596   -1.3157    0.0000 C   0  0  0  0  0  0  0  0  0  0  0  0
    8.0596    0.0000    0.0000 C   0  0  0  0  0  0  0  0  0  0  0  0
    9.2005   -1.9689    0.0000 C   0  0  0  0  0  0  0  0  0  0  0  0
  1  2  2  0  0  0  0
  1  3  1  0  0  0  0
  1  4  1  0  0  0  0
  2  5  1  0  0  0  0
  2  6  1  0  0  0  0
  3  7  1  0  0  0  0
  3  8  2  0  0  0  0
  4  9  2  0  0  0  0
  5 10  2  0  0  0  0
  6 11  1  0  0  0  0
  6 12  1  0  0  0  0
  6 13  1  0  0  0  0
  7 14  1  0  0  0  0
  9 10  1  0  0  0  0
 14 15  1  0  0  0  0
 14 16  2  0  0  0  0
 15 17  2  0  0  0  0
 16 18  1  0  0  0  0
 17 19  1  0  0  0  0
 17 20  1  0  0  0  0
 18 19  2  0  0  0  0
 20 21  1  0  0  0  0
 21 22  1  0  0  0  0
 21 23  1  0  0  0  0
M  END
> <ID>
3508

> <Formula>
C17H16F3NO2

> <FW>
323.3096

> <DSSTox_CID>
4109

> <DSSTox_RID>
77294

> <DSSTox_GSID>
24109

> <DSSTox_FileID_Sort>
1977

> <TS_ChemName>
Flutolanil

> <TS_ChemName_Synonyms>


> <TS_CASRN>
66332-96-5

> <CASRN_ChemName_Relationship>
primary

> <TS_Description>
single chemical compound

> <ChemNote>


> <STRUCTURE_Shown>
tested chemical

> <STRUCTURE_Formula>
C17H16F3NO2

> <STRUCTURE_MW>
323.3096

> <STRUCTURE_ChemType>
defined organic

> <STRUCTURE_DefinedOrganicForm>
parent

> <STRUCTURE_IUPAC>
N-[3-(propan-2-yloxy)phenyl]-2-(trifluoromethyl)benzamide

> <STRUCTURE_SMILES>
CC(C)Oc1cccc(c1)NC(=O)c2ccccc2C(F)(F)F

> <STRUCTURE_SMILES_Desalt>
CC(C)Oc1cccc(c1)NC(=O)c2ccccc2C(F)(F)F

> <Substance_modify_yyyymmdd>
20080429

$$$$
