66346-01-8
ChemmineR-0915142007XD

 15 15  0  0  0  0  0  0  0  0  1 V2000
    5.3065   -2.3068    0.0000 C    0  0  0  0  0  0  0  0  0  0  0  0
    5.9812   -1.1488    0.0000 C    0  0  0  0  0  0  0  0  0  0  0  0
    7.3124   -1.1488    0.0000 C    0  0  0  0  0  0  0  0  0  0  0  0
    7.9689   -2.3068    0.0000 C    0  0  0  0  0  0  0  0  0  0  0  0
    9.1177   -1.6321    0.0000 C    0  0  0  0  0  0  0  0  0  0  0  0
    7.9689    0.0000    0.0000 O    0  0  0  0  0  0  0  0  0  0  0  0
    3.9844   -2.3068    0.0000 C    0  0  0  0  0  0  0  0  0  0  0  0
    3.3280   -3.4556    0.0000 C    0  0  0  0  0  0  0  0  0  0  0  0
    3.3280   -1.1488    0.0000 C    0  0  0  0  0  0  0  0  0  0  0  0
    1.9968   -3.4556    0.0000 C    0  0  0  0  0  0  0  0  0  0  0  0
    1.9968   -1.1488    0.0000 C    0  0  0  0  0  0  0  0  0  0  0  0
    1.3312   -2.3068    0.0000 C    0  0  0  0  0  0  0  0  0  0  0  0
    0.0000   -2.3068    0.0000 Cl   0  0  0  0  0  0  0  0  0  0  0  0
    6.8109   -2.9633    0.0000 C    0  0  0  0  0  0  0  0  0  0  0  0
    8.6345   -3.4556    0.0000 C    0  0  0  0  0  0  0  0  0  0  0  0
  1  2  1  0  0  0  0
  1  7  1  0  0  0  0
  2  3  1  0  0  0  0
  3  4  1  0  0  0  0
  3  6  2  0  0  0  0
  4  5  1  0  0  0  0
  4 14  1  0  0  0  0
  4 15  1  0  0  0  0
  7  8  2  0  0  0  0
  7  9  1  0  0  0  0
  8 10  1  0  0  0  0
  9 11  2  0  0  0  0
 10 12  2  0  0  0  0
 11 12  1  0  0  0  0
 12 13  1  0  0  0  0
M  END
> <ID>
5640

> <Formula>
C13H17ClO

> <FW>
224.7265

> <DSSTox_CID>
8300

> <DSSTox_RID>
78650

> <DSSTox_GSID>
28300

> <DSSTox_FileID_Sort>
3332

> <TS_ChemName>
3-Pentanone, 1-(4-chlorophenyl)-4,4-dimethyl-

> <TS_ChemName_Synonyms>


> <TS_CASRN>
66346-01-8

> <CASRN_ChemName_Relationship>
primary

> <TS_Description>
single chemical compound

> <ChemNote>


> <STRUCTURE_Shown>
tested chemical

> <STRUCTURE_Formula>
C13H17ClO

> <STRUCTURE_MW>
224.7265

> <STRUCTURE_ChemType>
defined organic

> <STRUCTURE_DefinedOrganicForm>
parent

> <STRUCTURE_IUPAC>
1-(4-chlorophenyl)-4,4-dimethylpentan-3-one

> <STRUCTURE_SMILES>
Clc1ccc(CCC(=O)C(C)(C)C)cc1

> <STRUCTURE_SMILES_Desalt>
Clc1ccc(CCC(=O)C(C)(C)C)cc1

> <Substance_modify_yyyymmdd>
20080429

$$$$
