664-95-9
ChemmineR-0915142007XD

 20 21  0  0  0  0  0  0  0  0  1 V2000
    6.8800   -2.7267    0.0000 S   0  0  0  0  0  0  0  0  0  0  0  0
    5.7410   -3.4285    0.0000 N   0  0  0  0  0  0  0  0  0  0  0  0
    4.5790   -2.7842    0.0000 C   0  0  0  0  0  0  0  0  0  0  0  0
    8.0420   -2.0249    0.0000 C   0  0  0  0  0  0  0  0  0  0  0  0
    6.1782   -1.5762    0.0000 O   0  0  0  0  0  0  0  0  0  0  0  0
    7.5818   -3.8887    0.0000 O   0  0  0  0  0  0  0  0  0  0  0  0
    3.4055   -3.4630    0.0000 N   0  0  0  0  0  0  0  0  0  0  0  0
    4.5790   -1.4611    0.0000 O   0  0  0  0  0  0  0  0  0  0  0  0
    9.2155   -2.7152    0.0000 C   0  0  0  0  0  0  0  0  0  0  0  0
    8.0420   -0.7133    0.0000 C   0  0  0  0  0  0  0  0  0  0  0  0
    9.2155   -0.0460    0.0000 C   0  0  0  0  0  0  0  0  0  0  0  0
   10.3429   -2.0134    0.0000 C   0  0  0  0  0  0  0  0  0  0  0  0
   10.3429   -0.6903    0.0000 C   0  0  0  0  0  0  0  0  0  0  0  0
    2.2665   -2.8072    0.0000 C   0  0  0  0  0  0  0  0  0  0  0  0
   11.5049    0.0000    0.0000 C   0  0  0  0  0  0  0  0  0  0  0  0
    1.1505   -3.4630    0.0000 C   0  0  0  0  0  0  0  0  0  0  0  0
    2.2665   -1.4841    0.0000 C   0  0  0  0  0  0  0  0  0  0  0  0
    1.1045   -0.8284    0.0000 C   0  0  0  0  0  0  0  0  0  0  0  0
    0.0000   -2.8072    0.0000 C   0  0  0  0  0  0  0  0  0  0  0  0
    0.0000   -1.4841    0.0000 C   0  0  0  0  0  0  0  0  0  0  0  0
  1  2  1  0  0  0  0
  1  4  1  0  0  0  0
  1  5  2  0  0  0  0
  1  6  2  0  0  0  0
  2  3  1  0  0  0  0
  3  7  1  0  0  0  0
  3  8  2  0  0  0  0
  4  9  1  0  0  0  0
  4 10  2  0  0  0  0
  7 14  1  0  0  0  0
  9 12  2  0  0  0  0
 10 11  1  0  0  0  0
 11 13  2  0  0  0  0
 12 13  1  0  0  0  0
 13 15  1  0  0  0  0
 14 16  1  0  0  0  0
 14 17  1  0  0  0  0
 16 19  1  0  0  0  0
 17 18  1  0  0  0  0
 18 20  1  0  0  0  0
 19 20  1  0  0  0  0
M  END
> <ID>
11567

> <Formula>
C14H20N2O3S

> <FW>
296.3852

> <DSSTox_CID>
26273

> <DSSTox_RID>
81500

> <DSSTox_GSID>
46273

> <DSSTox_FileID_Sort>
6181

> <TS_ChemName>
Glycyclamide

> <TS_ChemName_Synonyms>


> <TS_CASRN>
664-95-9

> <CASRN_ChemName_Relationship>
primary

> <TS_Description>
single chemical compound

> <ChemNote>


> <STRUCTURE_Shown>
tested chemical

> <STRUCTURE_Formula>
C14H20N2O3S

> <STRUCTURE_MW>
296.3852

> <STRUCTURE_ChemType>
defined organic

> <STRUCTURE_DefinedOrganicForm>
parent

> <STRUCTURE_IUPAC>
N-(cyclohexylcarbamoyl)-4-methylbenzenesulfonamide

> <STRUCTURE_SMILES>
O=C(NC1CCCCC1)NS(=O)(=O)c2ccc(C)cc2

> <STRUCTURE_SMILES_Desalt>
O=C(NC1CCCCC1)NS(=O)(=O)c2ccc(C)cc2

> <Substance_modify_yyyymmdd>
20110815

$$$$
