6640-24-0
ChemmineR-0915142007XD

 13 14  0  0  0  0  0  0  0  0  1 V2000
    0.0000    0.0000    0.0000 Cl   0  0  0  0  0  0  0  0  0  0  0  0
    0.6652   -1.1574    0.0000 C    0  0  0  0  0  0  0  0  0  0  0  0
    1.9955   -1.1574    0.0000 C    0  0  0  0  0  0  0  0  0  0  0  0
    2.6607   -2.3082    0.0000 C    0  0  0  0  0  0  0  0  0  0  0  0
    1.9955   -3.4589    0.0000 C    0  0  0  0  0  0  0  0  0  0  0  0
    0.6652   -3.4589    0.0000 C    0  0  0  0  0  0  0  0  0  0  0  0
    0.0000   -2.3082    0.0000 C    0  0  0  0  0  0  0  0  0  0  0  0
    3.9910   -2.3082    0.0000 N    0  0  0  0  0  0  0  0  0  0  0  0
    4.6562   -1.1574    0.0000 C    0  0  0  0  0  0  0  0  0  0  0  0
    5.9866   -1.1574    0.0000 C    0  0  0  0  0  0  0  0  0  0  0  0
    6.6517   -2.3082    0.0000 N    0  0  0  0  0  0  0  0  0  0  0  0
    5.9866   -3.4589    0.0000 C    0  0  0  0  0  0  0  0  0  0  0  0
    4.6562   -3.4589    0.0000 C    0  0  0  0  0  0  0  0  0  0  0  0
  1  2  1  0  0  0  0
  2  3  2  0  0  0  0
  2  7  1  0  0  0  0
  3  4  1  0  0  0  0
  4  5  2  0  0  0  0
  4  8  1  0  0  0  0
  5  6  1  0  0  0  0
  6  7  2  0  0  0  0
  8  9  1  0  0  0  0
  8 13  1  0  0  0  0
  9 10  1  0  0  0  0
 10 11  1  0  0  0  0
 11 12  1  0  0  0  0
 12 13  1  0  0  0  0
M  END
> <ID>
10764

> <Formula>
C10H13ClN2

> <FW>
196.6766

> <DSSTox_CID>
25138

> <DSSTox_RID>
80696

> <DSSTox_GSID>
45138

> <DSSTox_FileID_Sort>
5377

> <TS_ChemName>
1-(3-Chlorophenyl)piperazine

> <TS_ChemName_Synonyms>


> <TS_CASRN>
6640-24-0

> <CASRN_ChemName_Relationship>
primary

> <TS_Description>
single chemical compound

> <ChemNote>


> <STRUCTURE_Shown>
tested chemical

> <STRUCTURE_Formula>
C10H13ClN2

> <STRUCTURE_MW>
196.6766

> <STRUCTURE_ChemType>
defined organic

> <STRUCTURE_DefinedOrganicForm>
parent

> <STRUCTURE_IUPAC>
1-(3-chlorophenyl)piperazine

> <STRUCTURE_SMILES>
Clc1cc(ccc1)N2CCNCC2

> <STRUCTURE_SMILES_Desalt>
Clc1cc(ccc1)N2CCNCC2

> <Substance_modify_yyyymmdd>
20100107

$$$$
