66441-23-4
ChemmineR-0915142007XD

 25 27  0  0  0  0  0  0  0  0  1 V2000
    9.5015   -8.2449    0.0000 C    0  0  0  0  0  0  0  0  0  0  0  0
    8.8348   -7.0909    0.0000 C    0  0  0  0  0  0  0  0  0  0  0  0
    7.5012   -7.0909    0.0000 C    0  0  0  0  0  0  0  0  0  0  0  0
    8.8348   -9.3861    0.0000 O    0  0  0  0  0  0  0  0  0  0  0  0
   10.8351   -8.2449    0.0000 O    0  0  0  0  0  0  0  0  0  0  0  0
    9.5015   -5.9369    0.0000 O    0  0  0  0  0  0  0  0  0  0  0  0
    8.8348   -4.7828    0.0000 C    0  0  0  0  0  0  0  0  0  0  0  0
    7.5012   -4.7828    0.0000 C    0  0  0  0  0  0  0  0  0  0  0  0
    9.5015   -3.6288    0.0000 C    0  0  0  0  0  0  0  0  0  0  0  0
    6.8473   -3.6288    0.0000 C    0  0  0  0  0  0  0  0  0  0  0  0
    8.8348   -2.4748    0.0000 C    0  0  0  0  0  0  0  0  0  0  0  0
    7.5012   -2.4748    0.0000 C    0  0  0  0  0  0  0  0  0  0  0  0
    6.8473   -1.3207    0.0000 O    0  0  0  0  0  0  0  0  0  0  0  0
    4.7315   -0.2565    0.0000 N    0  0  0  0  0  0  0  0  0  0  0  0
    5.5137   -1.3207    0.0000 C    0  0  0  0  0  0  0  0  0  0  0  0
    4.7315   -2.3978    0.0000 O    0  0  0  0  0  0  0  0  0  0  0  0
    3.4621   -0.6668    0.0000 C    0  0  0  0  0  0  0  0  0  0  0  0
    3.4621   -2.0003    0.0000 C    0  0  0  0  0  0  0  0  0  0  0  0
    2.3081   -2.6543    0.0000 C    0  0  0  0  0  0  0  0  0  0  0  0
    1.1540   -2.0003    0.0000 C    0  0  0  0  0  0  0  0  0  0  0  0
    1.1540   -0.6668    0.0000 C    0  0  0  0  0  0  0  0  0  0  0  0
    2.3081    0.0000    0.0000 C    0  0  0  0  0  0  0  0  0  0  0  0
    0.0000   -2.6543    0.0000 Cl   0  0  0  0  0  0  0  0  0  0  0  0
   11.4890   -9.3861    0.0000 C    0  0  0  0  0  0  0  0  0  0  0  0
   12.8226   -9.3861    0.0000 C    0  0  0  0  0  0  0  0  0  0  0  0
  1  2  1  0  0  0  0
  1  5  1  0  0  0  0
  1  4  2  0  0  0  0
  2  3  1  0  0  0  0
  2  6  1  0  0  0  0
  5 24  1  0  0  0  0
  6  7  1  0  0  0  0
  7  8  2  0  0  0  0
  7  9  1  0  0  0  0
  8 10  1  0  0  0  0
  9 11  2  0  0  0  0
 10 12  2  0  0  0  0
 11 12  1  0  0  0  0
 12 13  1  0  0  0  0
 13 15  1  0  0  0  0
 14 15  2  0  0  0  0
 14 17  1  0  0  0  0
 15 16  1  0  0  0  0
 16 18  1  0  0  0  0
 17 18  2  0  0  0  0
 17 22  1  0  0  0  0
 18 19  1  0  0  0  0
 19 20  2  0  0  0  0
 20 21  1  0  0  0  0
 20 23  1  0  0  0  0
 21 22  2  0  0  0  0
 24 25  1  0  0  0  0
M  END
> <ID>
6447

> <Formula>
C18H16ClNO5

> <FW>
361.7763

> <DSSTox_CID>
12392

> <DSSTox_RID>
78936

> <DSSTox_GSID>
32392

> <DSSTox_FileID_Sort>
3618

> <TS_ChemName>
Fenoxaprop-ethyl

> <TS_ChemName_Synonyms>


> <TS_CASRN>
66441-23-4

> <CASRN_ChemName_Relationship>
primary

> <TS_Description>
single chemical compound

> <ChemNote>
mixture of (2R,S) isomers; structure shown without stereochem

> <STRUCTURE_Shown>
tested chemical

> <STRUCTURE_Formula>
C18H16ClNO5

> <STRUCTURE_MW>
361.7763

> <STRUCTURE_ChemType>
defined organic

> <STRUCTURE_DefinedOrganicForm>
parent

> <STRUCTURE_IUPAC>
ethyl 2-{4-[(6-chloro-1,3-benzoxazol-2-yl)oxy]phenoxy}propanoate

> <STRUCTURE_SMILES>
O=C(OCC)C(C)Oc1ccc(cc1)Oc2nc3ccc(Cl)cc3o2

> <STRUCTURE_SMILES_Desalt>
O=C(OCC)C(C)Oc1ccc(cc1)Oc2nc3ccc(Cl)cc3o2

> <Substance_modify_yyyymmdd>
20080429

$$$$
