66456-53-9
ChemmineR-0915142007XD

 27 26  0  0  0  0  0  0  0  0  1 V2000
   24.3247   -2.0122    0.0000 C   0  0  0  0  0  0  0  0  0  0  0  0
   18.5173   -1.3500    0.0000 C   0  0  0  0  0  0  0  0  0  0  0  0
   24.3247   -3.3367    0.0000 O   0  0  0  0  0  0  0  0  0  0  0  0
   18.5173    0.0000    0.0000 O   0  0  0  0  0  0  0  0  0  0  0  0
   25.4709   -1.3500    0.0000 O   0  0  0  0  0  0  0  0  0  0  0  0
   19.6890   -2.0122    0.0000 C   0  0  0  0  0  0  0  0  0  0  0  0
   23.1530   -1.3500    0.0000 C   0  0  0  0  0  0  0  0  0  0  0  0
   22.0068   -2.0122    0.0000 C   0  0  0  0  0  0  0  0  0  0  0  0
   20.8352   -1.3500    0.0000 C   0  0  0  0  0  0  0  0  0  0  0  0
   17.3457   -1.9867    0.0000 O   0  0  0  0  0  0  0  0  0  0  0  0
   13.8816   -1.3245    0.0000 O   0  0  0  0  0  0  0  0  0  0  0  0
   16.1995   -1.3245    0.0000 C   0  0  0  0  0  0  0  0  0  0  0  0
   15.0533   -1.9867    0.0000 C   0  0  0  0  0  0  0  0  0  0  0  0
   16.1995    0.0000    0.0000 C   0  0  0  0  0  0  0  0  0  0  0  0
   12.7354   -1.9867    0.0000 C   0  0  0  0  0  0  0  0  0  0  0  0
   12.7354   -3.3112    0.0000 O   0  0  0  0  0  0  0  0  0  0  0  0
   11.5892   -1.3245    0.0000 C   0  0  0  0  0  0  0  0  0  0  0  0
   10.4176   -1.9867    0.0000 C   0  0  0  0  0  0  0  0  0  0  0  0
    1.1462   -1.9613    0.0000 C   0  0  0  0  0  0  0  0  0  0  0  0
    2.3178   -1.3245    0.0000 C   0  0  0  0  0  0  0  0  0  0  0  0
    3.4640   -1.9613    0.0000 C   0  0  0  0  0  0  0  0  0  0  0  0
    4.6357   -1.3245    0.0000 C   0  0  0  0  0  0  0  0  0  0  0  0
    5.7819   -1.9613    0.0000 C   0  0  0  0  0  0  0  0  0  0  0  0
    6.9535   -1.3245    0.0000 C   0  0  0  0  0  0  0  0  0  0  0  0
    8.0997   -1.9867    0.0000 C   0  0  0  0  0  0  0  0  0  0  0  0
    9.2714   -1.3245    0.0000 C   0  0  0  0  0  0  0  0  0  0  0  0
    0.0000   -1.3245    0.0000 C   0  0  0  0  0  0  0  0  0  0  0  0
  1  3  2  0  0  0  0
  1  5  1  0  0  0  0
  1  7  1  0  0  0  0
  2  6  1  0  0  0  0
  2  4  2  0  0  0  0
  2 10  1  0  0  0  0
  6  9  1  0  0  0  0
  7  8  1  0  0  0  0
  8  9  1  0  0  0  0
 10 12  1  0  0  0  0
 11 13  1  0  0  0  0
 11 15  1  0  0  0  0
 12 13  1  0  0  0  0
 12 14  1  0  0  0  0
 15 16  2  0  0  0  0
 15 17  1  0  0  0  0
 17 18  1  0  0  0  0
 18 26  1  0  0  0  0
 19 20  1  0  0  0  0
 19 27  1  0  0  0  0
 20 21  1  0  0  0  0
 21 22  1  0  0  0  0
 22 23  1  0  0  0  0
 23 24  1  0  0  0  0
 24 25  1  0  0  0  0
 25 26  1  0  0  0  0
M  END
> <ID>
12652

> <Formula>
C21H38O6

> <FW>
386.5228

> <DSSTox_CID>
27527

> <DSSTox_RID>
82397

> <DSSTox_GSID>
47527

> <DSSTox_FileID_Sort>
7078

> <TS_ChemName>
Adipic acid, polypropyleneglycol, laurate

> <TS_ChemName_Synonyms>


> <TS_CASRN>
66456-53-9

> <CASRN_ChemName_Relationship>
primary

> <TS_Description>
polymer

> <ChemNote>


> <STRUCTURE_Shown>
monomer of polymer

> <STRUCTURE_Formula>
C21H38O6

> <STRUCTURE_MW>
386.5228

> <STRUCTURE_ChemType>
defined organic

> <STRUCTURE_DefinedOrganicForm>
parent

> <STRUCTURE_IUPAC>
6-{[1-(dodecanoyloxy)propan-2-yl]oxy}-6-oxohexanoic acid

> <STRUCTURE_SMILES>
CC(COC(=O)CCCCCCCCCCC)OC(=O)CCCCC(=O)O

> <STRUCTURE_SMILES_Desalt>
CC(COC(=O)CCCCCCCCCCC)OC(=O)CCCCC(=O)O

> <Substance_modify_yyyymmdd>
20100901

$$$$
