66575-29-9
ChemmineR-0915142007XD

 30 32  0  0  1  0  0  0  0  0  1 V2000
    3.4692   -2.0354    0.0000 C   0  0  0  0  0  0  0  0  0  0  0  0
    4.6146   -2.6781    0.0000 C   0  0  0  0  0  0  0  0  0  0  0  0
    2.3155   -2.6781    0.0000 C   0  0  0  0  0  0  0  0  0  0  0  0
    4.6146   -4.0048    0.0000 C   0  0  0  0  0  0  0  0  0  0  0  0
    2.3155   -4.0048    0.0000 C   0  0  0  0  0  0  0  0  0  0  0  0
    3.4692   -0.6840    0.0000 C   0  0  0  0  0  0  0  0  0  0  0  0
    3.4692   -4.6723    0.0000 C   0  0  0  0  0  0  0  0  0  0  0  0
    5.7600   -2.0354    0.0000 O   0  0  0  0  0  0  0  0  0  0  0  0
    5.7600   -0.6840    0.0000 C   0  0  0  0  0  0  0  0  0  0  0  0
    1.1454   -4.6723    0.0000 C   0  0  0  0  0  0  0  0  0  0  0  0
    4.6146   -0.0165    0.0000 C   0  0  0  0  0  0  0  0  0  0  0  0
    5.7600   -4.6723    0.0000 O   0  0  0  0  0  0  0  0  0  0  0  0
    1.1454   -2.0354    0.0000 C   0  0  0  0  0  0  0  0  0  0  0  0
    6.9137   -4.0048    0.0000 C   0  0  0  0  0  0  0  0  0  0  0  0
    2.3155   -0.0165    0.0000 O   0  0  0  0  0  0  0  0  0  0  0  0
    3.4857   -3.3044    0.0000 O   0  0  0  0  0  0  0  0  0  0  0  0
    6.9549   -1.4091    0.0000 C   0  0  0  0  0  0  0  0  0  0  0  0
    0.0000   -4.0048    0.0000 C   0  0  0  0  0  0  0  0  0  0  0  0
    6.9137   -2.6616    0.0000 O   0  0  0  0  0  0  0  0  0  0  0  0
    0.0000   -2.6781    0.0000 C   0  0  0  0  0  0  0  0  0  0  0  0
    4.6146   -1.4338    0.0000 C   0  0  0  0  0  0  0  0  0  0  0  0
    3.4692   -6.0237    0.0000 O   0  0  0  0  0  0  0  0  0  0  0  0
    2.3155   -1.3514    0.0000 C   0  0  0  0  0  0  0  0  0  0  0  0
    8.2404   -0.8076    0.0000 C   0  0  0  0  0  0  0  0  0  0  0  0
    1.1454   -0.6840    0.0000 O   0  0  0  0  0  0  0  0  0  0  0  0
    6.9301    0.0000    0.0000 C   0  0  0  0  0  0  0  0  0  0  0  0
    1.1454   -6.0237    0.0000 C   0  0  0  0  0  0  0  0  0  0  0  0
    0.1648   -5.4222    0.0000 C   0  0  0  0  0  0  0  0  0  0  0  0
    8.0756   -4.6970    0.0000 C   0  0  0  0  0  0  0  0  0  0  0  0
    2.3155   -5.3150    0.0000 H   0  0  0  0  0  0  0  0  0  0  0  0
  1  2  1  0  0  0  0
  1  3  1  0  0  0  0
  1  6  1  0  0  0  0
  1 16  1  6  0  0  0
  2  4  1  0  0  0  0
  2  8  1  0  0  0  0
  2 21  1  1  0  0  0
  3  5  1  0  0  0  0
  3 13  1  0  0  0  0
  3 23  1  1  0  0  0
  4 12  1  1  0  0  0
  4  7  1  0  0  0  0
  5  7  1  0  0  0  0
  5 10  1  0  0  0  0
  5 30  1  6  0  0  0
  6 11  1  0  0  0  0
  6 15  2  0  0  0  0
  7 22  1  1  0  0  0
  8  9  1  0  0  0  0
  9 11  1  0  0  0  0
  9 17  1  6  0  0  0
  9 26  1  1  0  0  0
 10 27  1  0  0  0  0
 10 28  1  0  0  0  0
 10 18  1  0  0  0  0
 12 14  1  0  0  0  0
 13 20  1  0  0  0  0
 13 25  1  6  0  0  0
 14 19  2  0  0  0  0
 14 29  1  0  0  0  0
 17 24  2  0  0  0  0
 18 20  1  0  0  0  0
M  END
> <ID>
7777

> <Formula>
C22H34O7

> <FW>
410.5012

> <DSSTox_CID>
20484

> <DSSTox_RID>
79500

> <DSSTox_GSID>
40484

> <DSSTox_FileID_Sort>
4182

> <TS_ChemName>
Forskolin

> <TS_ChemName_Synonyms>
Forskolin (Colforsin)

> <TS_CASRN>
66575-29-9

> <CASRN_ChemName_Relationship>
primary

> <TS_Description>
single chemical compound

> <ChemNote>
stereochem

> <STRUCTURE_Shown>
tested chemical

> <STRUCTURE_Formula>
C22H34O7

> <STRUCTURE_MW>
410.5012

> <STRUCTURE_ChemType>
defined organic

> <STRUCTURE_DefinedOrganicForm>
parent

> <STRUCTURE_IUPAC>
(3R,4aR,5S,6S,6aS,10S,10aR,10bS)-3-ethenyl-6,10,10b-trihydroxy-3,4a,7,7,10a-pentamethyl-1-oxododecahydro-1H-benzo[f]chromen-5-yl acetate

> <STRUCTURE_SMILES>
CC(=O)O[C@H]2[C@@H](O)[C@@H]1[C@](C)([C@@H](O)CCC1(C)C)[C@@]3(O)C(=O)C[C@](C)(C=C)O[C@]23C

> <STRUCTURE_SMILES_Desalt>
CC(=O)O[C@H]2[C@@H](O)[C@@H]1[C@](C)([C@@H](O)CCC1(C)C)[C@@]3(O)C(=O)C[C@](C)(C=C)O[C@]23C

> <Substance_modify_yyyymmdd>
20080429

$$$$
