666-99-9
ChemmineR-0915142007XD

 29 28  0  0  0  0  0  0  0  0  1 V2000
    2.3309   -2.6748    0.0000 C   0  0  0  0  0  0  0  0  0  0  0  0
    3.4645   -1.9870    0.0000 C   0  0  0  0  0  0  0  0  0  0  0  0
    1.1336   -3.3498    0.0000 C   0  0  0  0  0  0  0  0  0  0  0  0
    1.6431   -1.4902    0.0000 C   0  0  0  0  0  0  0  0  0  0  0  0
    4.6363   -2.6748    0.0000 C   0  0  0  0  0  0  0  0  0  0  0  0
    1.1463   -4.6745    0.0000 C   0  0  0  0  0  0  0  0  0  0  0  0
    0.3057   -1.5030    0.0000 O   0  0  0  0  0  0  0  0  0  0  0  0
    4.6617   -3.7701    0.0000 O   0  0  0  0  0  0  0  0  0  0  0  0
    2.3054   -5.3495    0.0000 O   0  0  0  0  0  0  0  0  0  0  0  0
    2.9804   -3.8211    0.0000 O   0  0  0  0  0  0  0  0  0  0  0  0
    2.3054   -0.3439    0.0000 O   0  0  0  0  0  0  0  0  0  0  0  0
    5.7953   -2.0124    0.0000 O   0  0  0  0  0  0  0  0  0  0  0  0
    0.0000   -5.3368    0.0000 O   0  0  0  0  0  0  0  0  0  0  0  0
    3.4645   -0.6496    0.0000 C   0  0  0  0  0  0  0  0  0  0  0  0
    4.6108    0.0000    0.0000 C   0  0  0  0  0  0  0  0  0  0  0  0
    6.9416   -2.6875    0.0000 C   0  0  0  0  0  0  0  0  0  0  0  0
    8.1007   -2.0252    0.0000 C   0  0  0  0  0  0  0  0  0  0  0  0
    8.0880   -0.6878    0.0000 C   0  0  0  0  0  0  0  0  0  0  0  0
    5.7826   -0.6623    0.0000 C   0  0  0  0  0  0  0  0  0  0  0  0
    9.2725   -2.6875    0.0000 C   0  0  0  0  0  0  0  0  0  0  0  0
   10.4316   -2.0252    0.0000 C   0  0  0  0  0  0  0  0  0  0  0  0
   10.4316   -0.6878    0.0000 C   0  0  0  0  0  0  0  0  0  0  0  0
    9.2852    0.0000    0.0000 C   0  0  0  0  0  0  0  0  0  0  0  0
   11.5779   -0.0255    0.0000 C   0  0  0  0  0  0  0  0  0  0  0  0
   12.7370   -0.7005    0.0000 C   0  0  0  0  0  0  0  0  0  0  0  0
   12.7370   -2.0379    0.0000 C   0  0  0  0  0  0  0  0  0  0  0  0
   11.5906   -2.6875    0.0000 C   0  0  0  0  0  0  0  0  0  0  0  0
    6.9416    0.0000    0.0000 C   0  0  0  0  0  0  0  0  0  0  0  0
    6.9544   -4.0376    0.0000 C   0  0  0  0  0  0  0  0  0  0  0  0
  1  2  1  0  0  0  0
  1  3  1  0  0  0  0
  1  4  1  0  0  0  0
  1 10  1  0  0  0  0
  2  5  1  0  0  0  0
  2 14  1  0  0  0  0
  3  6  1  0  0  0  0
  4  7  2  0  0  0  0
  4 11  1  0  0  0  0
  5  8  2  0  0  0  0
  5 12  1  0  0  0  0
  6  9  2  0  0  0  0
  6 13  1  0  0  0  0
 14 15  1  0  0  0  0
 15 19  1  0  0  0  0
 16 17  1  0  0  0  0
 16 29  1  0  0  0  0
 17 20  1  0  0  0  0
 18 28  1  0  0  0  0
 18 23  1  0  0  0  0
 19 28  1  0  0  0  0
 20 21  1  0  0  0  0
 21 27  1  0  0  0  0
 22 23  1  0  0  0  0
 22 24  1  0  0  0  0
 24 25  1  0  0  0  0
 25 26  1  0  0  0  0
 26 27  1  0  0  0  0
M  END
> <ID>
11902

> <Formula>
C22H40O7

> <FW>
416.5488

> <DSSTox_CID>
26705

> <DSSTox_RID>
81838

> <DSSTox_GSID>
46705

> <DSSTox_FileID_Sort>
6519

> <TS_ChemName>
Agaric acid

> <TS_ChemName_Synonyms>


> <TS_CASRN>
666-99-9

> <CASRN_ChemName_Relationship>
primary

> <TS_Description>
single chemical compound

> <ChemNote>


> <STRUCTURE_Shown>
tested chemical

> <STRUCTURE_Formula>
C22H40O7

> <STRUCTURE_MW>
416.5488

> <STRUCTURE_ChemType>
defined organic

> <STRUCTURE_DefinedOrganicForm>
parent

> <STRUCTURE_IUPAC>
3-C-carboxy-2,4-dideoxy-2-hexadecylpentaric acid

> <STRUCTURE_SMILES>
O=C(O)C(CCCCCCCCCCCCCCCC)C(O)(CC(=O)O)C(=O)O

> <STRUCTURE_SMILES_Desalt>
O=C(O)C(CCCCCCCCCCCCCCCC)C(O)(CC(=O)O)C(=O)O

> <Substance_modify_yyyymmdd>
20110805

$$$$
