66644-80-2
ChemmineR-0915142007XD

 17 17  0  0  0  0  0  0  0  0  1 V2000
    5.9824   -5.7611    0.0000 C   0  0  0  0  0  0  0  0  0  0  0  0
    4.6545   -5.7611    0.0000 O   0  0  0  0  0  0  0  0  0  0  0  0
    3.9975   -4.6199    0.0000 C   0  0  0  0  0  0  0  0  0  0  0  0
    4.6545   -3.4649    0.0000 C   0  0  0  0  0  0  0  0  0  0  0  0
    3.9975   -2.3100    0.0000 C   0  0  0  0  0  0  0  0  0  0  0  0
    2.6627   -2.3100    0.0000 C   0  0  0  0  0  0  0  0  0  0  0  0
    2.0057   -3.4649    0.0000 C   0  0  0  0  0  0  0  0  0  0  0  0
    2.6627   -4.6199    0.0000 C   0  0  0  0  0  0  0  0  0  0  0  0
    2.0057   -5.7611    0.0000 O   0  0  0  0  0  0  0  0  0  0  0  0
    2.6627   -6.9160    0.0000 C   0  0  0  0  0  0  0  0  0  0  0  0
    0.6570   -3.4649    0.0000 C   0  0  0  0  0  0  0  0  0  0  0  0
    0.0000   -2.3100    0.0000 O   0  0  0  0  0  0  0  0  0  0  0  0
    0.0000   -4.6199    0.0000 O   0  0  0  0  0  0  0  0  0  0  0  0
    4.6545   -1.1550    0.0000 S   0  0  0  0  0  0  0  0  0  0  0  0
    5.8095   -1.8120    0.0000 N   0  0  0  0  0  0  0  0  0  0  0  0
    3.4995   -0.4841    0.0000 O   0  0  0  0  0  0  0  0  0  0  0  0
    5.3253    0.0000    0.0000 O   0  0  0  0  0  0  0  0  0  0  0  0
  1  2  1  0  0  0  0
  2  3  1  0  0  0  0
  3  4  2  0  0  0  0
  3  8  1  0  0  0  0
  4  5  1  0  0  0  0
  5  6  2  0  0  0  0
  5 14  1  0  0  0  0
  6  7  1  0  0  0  0
  7  8  2  0  0  0  0
  7 11  1  0  0  0  0
  8  9  1  0  0  0  0
  9 10  1  0  0  0  0
 11 12  1  0  0  0  0
 11 13  2  0  0  0  0
 14 15  1  0  0  0  0
 14 16  2  0  0  0  0
 14 17  2  0  0  0  0
M  END
> <ID>
16199

> <Formula>
C9H11NO6S

> <FW>
261.2517

> <DSSTox_CID>
31590

> <DSSTox_RID>
97474

> <DSSTox_GSID>
57801

> <DSSTox_FileID_Sort>
8541

> <TS_ChemName>
2,3-Dimethoxy-5-sulphamoylbenzoic acid

> <TS_ChemName_Synonyms>
3-Methoxy-5-sulfamoyl-o-anisic acid

> <TS_CASRN>
66644-80-2

> <CASRN_ChemName_Relationship>
primary

> <TS_Description>
single chemical compound

> <ChemNote>


> <STRUCTURE_Shown>
tested chemical

> <STRUCTURE_Formula>
C9H11NO6S

> <STRUCTURE_MW>
261.2517

> <STRUCTURE_ChemType>
defined organic

> <STRUCTURE_DefinedOrganicForm>
parent

> <STRUCTURE_IUPAC>
2,3-dimethoxy-5-sulfamoylbenzoic acid

> <STRUCTURE_SMILES>
O=S(N)(=O)c1cc(c(OC)c(OC)c1)C(=O)O

> <STRUCTURE_SMILES_Desalt>
O=S(N)(=O)c1cc(c(OC)c(OC)c1)C(=O)O

> <Substance_modify_yyyymmdd>
20131121

$$$$
