66644-81-3
ChemmineR-0915142007XD

 26 27  0  0  0  0  0  0  0  0  1 V2000
    4.4829   -6.3808    0.0000 S   0  0  0  0  0  0  0  0  0  0  0  0
    6.7911   -3.7136    0.0000 C   0  0  0  0  0  0  0  0  0  0  0  0
    5.6627   -5.7037    0.0000 C   0  0  0  0  0  0  0  0  0  0  0  0
    7.9503   -4.3701    0.0000 C   0  0  0  0  0  0  0  0  0  0  0  0
    5.6627   -4.3701    0.0000 C   0  0  0  0  0  0  0  0  0  0  0  0
    6.7911   -2.3902    0.0000 C   0  0  0  0  0  0  0  0  0  0  0  0
    6.7911   -6.3808    0.0000 C   0  0  0  0  0  0  0  0  0  0  0  0
    7.9503   -5.7037    0.0000 C   0  0  0  0  0  0  0  0  0  0  0  0
    2.1132   -2.1338    0.0000 N   0  0  0  0  0  0  0  0  0  0  0  0
    5.6627   -1.7132    0.0000 N   0  0  0  0  0  0  0  0  0  0  0  0
    3.7956   -5.2113    0.0000 O   0  0  0  0  0  0  0  0  0  0  0  0
    5.1497   -7.5502    0.0000 O   0  0  0  0  0  0  0  0  0  0  0  0
    3.3135   -7.0476    0.0000 N   0  0  0  0  0  0  0  0  0  0  0  0
    3.3648   -1.7132    0.0000 C   0  0  0  0  0  0  0  0  0  0  0  0
    7.9503   -1.7132    0.0000 O   0  0  0  0  0  0  0  0  0  0  0  0
    4.5240   -2.3902    0.0000 C   0  0  0  0  0  0  0  0  0  0  0  0
    0.4206   -3.6520    0.0000 C   0  0  0  0  0  0  0  0  0  0  0  0
    0.0000   -4.9241    0.0000 C   0  0  0  0  0  0  0  0  0  0  0  0
    9.1095   -3.6828    0.0000 O   0  0  0  0  0  0  0  0  0  0  0  0
    9.1095   -6.3910    0.0000 O   0  0  0  0  0  0  0  0  0  0  0  0
    1.7132   -3.3648    0.0000 C   0  0  0  0  0  0  0  0  0  0  0  0
    1.3439   -1.0566    0.0000 C   0  0  0  0  0  0  0  0  0  0  0  0
    2.1132    0.0000    0.0000 C   0  0  0  0  0  0  0  0  0  0  0  0
    3.3648   -0.4001    0.0000 C   0  0  0  0  0  0  0  0  0  0  0  0
   10.2585   -4.3393    0.0000 C   0  0  0  0  0  0  0  0  0  0  0  0
    9.1095   -7.7246    0.0000 C   0  0  0  0  0  0  0  0  0  0  0  0
  1  3  1  0  0  0  0
  1 11  2  0  0  0  0
  1 12  2  0  0  0  0
  1 13  1  0  0  0  0
  2  5  2  0  0  0  0
  2  6  1  0  0  0  0
  2  4  1  0  0  0  0
  3  5  1  0  0  0  0
  3  7  2  0  0  0  0
  4  8  2  0  0  0  0
  4 19  1  0  0  0  0
  6 10  1  0  0  0  0
  6 15  2  0  0  0  0
  7  8  1  0  0  0  0
  8 20  1  0  0  0  0
  9 14  1  0  0  0  0
  9 21  1  0  0  0  0
  9 22  1  0  0  0  0
 10 16  1  0  0  0  0
 14 16  1  0  0  0  0
 14 24  1  0  0  0  0
 17 21  1  0  0  0  0
 17 18  2  0  0  0  0
 19 25  1  0  0  0  0
 20 26  1  0  0  0  0
 22 23  1  0  0  0  0
 23 24  1  0  0  0  0
M  END
> <ID>
11562

> <Formula>
C17H25N3O5S

> <FW>
383.4625

> <DSSTox_CID>
26268

> <DSSTox_RID>
81495

> <DSSTox_GSID>
46268

> <DSSTox_FileID_Sort>
6176

> <TS_ChemName>
Veralipride

> <TS_ChemName_Synonyms>


> <TS_CASRN>
66644-81-3

> <CASRN_ChemName_Relationship>
primary

> <TS_Description>
single chemical compound

> <ChemNote>


> <STRUCTURE_Shown>
tested chemical

> <STRUCTURE_Formula>
C17H25N3O5S

> <STRUCTURE_MW>
383.4625

> <STRUCTURE_ChemType>
defined organic

> <STRUCTURE_DefinedOrganicForm>
parent

> <STRUCTURE_IUPAC>
2,3-dimethoxy-N-{[1-(prop-2-en-1-yl)pyrrolidin-2-yl]methyl}-5-sulfamoylbenzamide

> <STRUCTURE_SMILES>
C=CCN2CCCC2CNC(=O)c1cc(cc(OC)c1OC)S(N)(=O)=O

> <STRUCTURE_SMILES_Desalt>
C=CCN2CCCC2CNC(=O)c1cc(cc(OC)c1OC)S(N)(=O)=O

> <Substance_modify_yyyymmdd>
20110816

$$$$
