6673-35-4
ChemmineR-0915142007XD

 19 19  0  0  0  0  0  0  0  0  1 V2000
   11.5045   -5.3536    0.0000 C   0  0  0  0  0  0  0  0  0  0  0  0
   11.5045   -4.0247    0.0000 N   0  0  0  0  0  0  0  0  0  0  0  0
   12.6563   -6.0244    0.0000 O   0  0  0  0  0  0  0  0  0  0  0  0
    2.3034   -1.3289    0.0000 N   0  0  0  0  0  0  0  0  0  0  0  0
   10.3528   -3.3539    0.0000 C   0  0  0  0  0  0  0  0  0  0  0  0
    6.9103   -1.3289    0.0000 O   0  0  0  0  0  0  0  0  0  0  0  0
    4.5942   -1.3289    0.0000 C   0  0  0  0  0  0  0  0  0  0  0  0
    8.0620   -2.0250    0.0000 C   0  0  0  0  0  0  0  0  0  0  0  0
    3.4552   -1.9870    0.0000 C   0  0  0  0  0  0  0  0  0  0  0  0
    5.7459   -1.9870    0.0000 C   0  0  0  0  0  0  0  0  0  0  0  0
   10.3528   -2.0250    0.0000 C   0  0  0  0  0  0  0  0  0  0  0  0
    9.2011   -4.0120    0.0000 C   0  0  0  0  0  0  0  0  0  0  0  0
    9.2011   -1.3416    0.0000 C   0  0  0  0  0  0  0  0  0  0  0  0
    8.0620   -3.3539    0.0000 C   0  0  0  0  0  0  0  0  0  0  0  0
    4.5942    0.0000    0.0000 O   0  0  0  0  0  0  0  0  0  0  0  0
    1.1517   -1.9870    0.0000 C   0  0  0  0  0  0  0  0  0  0  0  0
   10.3528   -6.0244    0.0000 C   0  0  0  0  0  0  0  0  0  0  0  0
    0.0000   -1.3289    0.0000 C   0  0  0  0  0  0  0  0  0  0  0  0
    1.1517   -3.3286    0.0000 C   0  0  0  0  0  0  0  0  0  0  0  0
  1  2  1  0  0  0  0
  1  3  2  0  0  0  0
  1 17  1  0  0  0  0
  2  5  1  0  0  0  0
  4  9  1  0  0  0  0
  4 16  1  0  0  0  0
  5 11  1  0  0  0  0
  5 12  2  0  0  0  0
  6  8  1  0  0  0  0
  6 10  1  0  0  0  0
  7 10  1  0  0  0  0
  7  9  1  0  0  0  0
  7 15  1  0  0  0  0
  8 14  2  0  0  0  0
  8 13  1  0  0  0  0
 11 13  2  0  0  0  0
 12 14  1  0  0  0  0
 16 18  1  0  0  0  0
 16 19  1  0  0  0  0
M  END
> <ID>
1133

> <Formula>
C14H22N2O3

> <FW>
266.3361

> <DSSTox_CID>
1179

> <DSSTox_RID>
75993

> <DSSTox_GSID>
21179

> <DSSTox_FileID_Sort>
677

> <TS_ChemName>
Practolol

> <TS_ChemName_Synonyms>


> <TS_CASRN>
6673-35-4

> <CASRN_ChemName_Relationship>
primary

> <TS_Description>
single chemical compound

> <ChemNote>


> <STRUCTURE_Shown>
tested chemical

> <STRUCTURE_Formula>
C14H22N2O3

> <STRUCTURE_MW>
266.3361

> <STRUCTURE_ChemType>
defined organic

> <STRUCTURE_DefinedOrganicForm>
parent

> <STRUCTURE_IUPAC>
N-{4-[2-hydroxy-3-(propan-2-ylamino)propoxy]phenyl}acetamide

> <STRUCTURE_SMILES>
CC(C)NCC(O)COc1ccc(cc1)NC(C)=O

> <STRUCTURE_SMILES_Desalt>
CC(C)NCC(O)COc1ccc(cc1)NC(C)=O

> <Substance_modify_yyyymmdd>
20080429

$$$$
