66734-13-2
ChemmineR-0915142007XD

 39 42  0  0  1  0  0  0  0  0  1 V2000
    6.9152   -6.4308    0.0000 C    0  0  0  0  0  0  0  0  0  0  0  0
    3.5121   -8.4170    0.0000 C    0  0  0  0  0  0  0  0  0  0  0  0
    6.9152   -7.7872    0.0000 C    0  0  0  0  0  0  0  0  0  0  0  0
    4.6384   -7.7872    0.0000 C    0  0  0  0  0  0  0  0  0  0  0  0
    5.7647   -8.4170    0.0000 C    0  0  0  0  0  0  0  0  0  0  0  0
    8.2111   -6.0069    0.0000 C    0  0  0  0  0  0  0  0  0  0  0  0
    3.5121   -9.7734    0.0000 C    0  0  0  0  0  0  0  0  0  0  0  0
    4.6384   -6.4308    0.0000 C    0  0  0  0  0  0  0  0  0  0  0  0
    5.7647   -5.7647    0.0000 C    0  0  0  0  0  0  0  0  0  0  0  0
    5.7647   -9.7734    0.0000 C    0  0  0  0  0  0  0  0  0  0  0  0
    8.9620   -7.0969    0.0000 C    0  0  0  0  0  0  0  0  0  0  0  0
    2.3858   -7.7872    0.0000 C    0  0  0  0  0  0  0  0  0  0  0  0
    8.2111   -8.1627    0.0000 C    0  0  0  0  0  0  0  0  0  0  0  0
    2.3858  -10.4274    0.0000 C    0  0  0  0  0  0  0  0  0  0  0  0
    4.6384  -10.4274    0.0000 C    0  0  0  0  0  0  0  0  0  0  0  0
    8.2111   -4.6869    0.0000 C    0  0  0  0  0  0  0  0  0  0  0  0
    1.1869   -8.4170    0.0000 C    0  0  0  0  0  0  0  0  0  0  0  0
    1.1869   -9.7734    0.0000 C    0  0  0  0  0  0  0  0  0  0  0  0
    7.0485   -3.9844    0.0000 O    0  0  0  0  0  0  0  0  0  0  0  0
    0.0000  -10.4758    0.0000 O    0  0  0  0  0  0  0  0  0  0  0  0
    9.5312   -6.0069    0.0000 O    0  0  0  0  0  0  0  0  0  0  0  0
    6.8547  -10.4153    0.0000 Cl   0  0  0  0  0  0  0  0  0  0  0  0
    6.9152   -5.0744    0.0000 C    0  0  0  0  0  0  0  0  0  0  0  0
    3.4637   -5.7284    0.0000 O    0  0  0  0  0  0  0  0  0  0  0  0
    3.5121   -7.0969    0.0000 C    0  0  0  0  0  0  0  0  0  0  0  0
    9.3253   -4.0329    0.0000 C    0  0  0  0  0  0  0  0  0  0  0  0
   10.3184   -7.0848    0.0000 C    0  0  0  0  0  0  0  0  0  0  0  0
    9.3253   -2.6765    0.0000 O    0  0  0  0  0  0  0  0  0  0  0  0
    5.7647   -7.0969    0.0000 H    0  0  0  0  0  0  0  0  0  0  0  0
    6.9152   -9.0831    0.0000 H    0  0  0  0  0  0  0  0  0  0  0  0
    4.6384   -9.0831    0.0000 H    0  0  0  0  0  0  0  0  0  0  0  0
   10.4758   -2.0104    0.0000 C    0  0  0  0  0  0  0  0  0  0  0  0
   11.6384   -2.6765    0.0000 O    0  0  0  0  0  0  0  0  0  0  0  0
   10.4758   -0.6661    0.0000 C    0  0  0  0  0  0  0  0  0  0  0  0
   11.6384    0.0000    0.0000 C    0  0  0  0  0  0  0  0  0  0  0  0
   10.4637   -5.0744    0.0000 C    0  0  0  0  0  0  0  0  0  0  0  0
   11.7353   -5.4135    0.0000 C    0  0  0  0  0  0  0  0  0  0  0  0
   10.1367   -3.7664    0.0000 O    0  0  0  0  0  0  0  0  0  0  0  0
   12.1108   -6.7094    0.0000 C    0  0  0  0  0  0  0  0  0  0  0  0
  1  3  1  0  0  0  0
  1  6  1  0  0  0  0
  1  9  1  0  0  0  0
  1 23  1  1  0  0  0
  2  4  1  0  0  0  0
  2  7  1  0  0  0  0
  2 12  1  0  0  0  0
  2 25  1  1  0  0  0
  3  5  1  0  0  0  0
  3 13  1  0  0  0  0
  3 30  1  6  0  0  0
  4  8  1  0  0  0  0
  4  5  1  0  0  0  0
  4 31  1  6  0  0  0
  5 10  1  0  0  0  0
  5 29  1  1  0  0  0
  6 11  1  0  0  0  0
  6 16  1  0  0  0  0
  6 21  1  6  0  0  0
  7 14  2  0  0  0  0
  7 15  1  0  0  0  0
  8  9  1  0  0  0  0
  8 24  1  1  0  0  0
 10 15  1  0  0  0  0
 10 22  1  6  0  0  0
 11 27  1  6  0  0  0
 11 13  1  0  0  0  0
 12 17  2  0  0  0  0
 14 18  1  0  0  0  0
 16 19  2  0  0  0  0
 16 26  1  0  0  0  0
 17 18  1  0  0  0  0
 18 20  2  0  0  0  0
 21 36  1  0  0  0  0
 26 28  1  0  0  0  0
 28 32  1  0  0  0  0
 32 33  2  0  0  0  0
 32 34  1  0  0  0  0
 34 35  1  0  0  0  0
 36 37  1  0  0  0  0
 36 38  2  0  0  0  0
 37 39  1  0  0  0  0
M  END
> <ID>
11005

> <Formula>
C28H37ClO7

> <FW>
521.0422

> <DSSTox_CID>
25535

> <DSSTox_RID>
80937

> <DSSTox_GSID>
45535

> <DSSTox_FileID_Sort>
5618

> <TS_ChemName>
Alclometasone dipropionate

> <TS_ChemName_Synonyms>


> <TS_CASRN>
66734-13-2

> <CASRN_ChemName_Relationship>
primary

> <TS_Description>
single chemical compound

> <ChemNote>
stereochem; tautomers

> <STRUCTURE_Shown>
tested chemical

> <STRUCTURE_Formula>
C28H37ClO7

> <STRUCTURE_MW>
521.0422

> <STRUCTURE_ChemType>
defined organic

> <STRUCTURE_DefinedOrganicForm>
parent

> <STRUCTURE_IUPAC>
(7alpha,8xi,11beta,16alpha)-7-chloro-11-hydroxy-16-methyl-3,20-dioxopregna-1,4-diene-17,21-diyl dipropanoate

> <STRUCTURE_SMILES>
CCC(=O)OCC(=O)[C@@]4(OC(=O)CC)[C@H](C)C[C@@H]3[C@]4(C)C[C@H](O)[C@H]2[C@H]3[C@H](Cl)CC1=CC(=O)C=C[C@@]12C

> <STRUCTURE_SMILES_Desalt>
CCC(=O)OCC(=O)[C@@]4(OC(=O)CC)[C@H](C)C[C@@H]3[C@]4(C)C[C@H](O)[C@H]2[C@H]3[C@H](Cl)CC1=CC(=O)C=C[C@@]12C

> <Substance_modify_yyyymmdd>
20100107

$$$$
