6674-22-2
ChemmineR-0915142007XD

 11 12  0  0  0  0  0  0  0  0  1 V2000
    2.8920   -2.1533    0.0000 N   0  0  0  0  0  0  0  0  0  0  0  0
    4.0918   -0.1467    0.0000 N   0  0  0  0  0  0  0  0  0  0  0  0
    2.8920   -0.8278    0.0000 C   0  0  0  0  0  0  0  0  0  0  0  0
    1.8599    0.0000    0.0000 C   0  0  0  0  0  0  0  0  0  0  0  0
    0.5815   -0.2777    0.0000 C   0  0  0  0  0  0  0  0  0  0  0  0
    0.0000   -1.4565    0.0000 C   0  0  0  0  0  0  0  0  0  0  0  0
    0.5658   -2.6353    0.0000 C   0  0  0  0  0  0  0  0  0  0  0  0
    1.8285   -2.9444    0.0000 C   0  0  0  0  0  0  0  0  0  0  0  0
    5.2391   -2.1690    0.0000 C   0  0  0  0  0  0  0  0  0  0  0  0
    5.2391   -0.8278    0.0000 C   0  0  0  0  0  0  0  0  0  0  0  0
    4.0760   -2.8291    0.0000 C   0  0  0  0  0  0  0  0  0  0  0  0
  1  3  1  0  0  0  0
  1  8  1  0  0  0  0
  1 11  1  0  0  0  0
  2  3  2  0  0  0  0
  2 10  1  0  0  0  0
  3  4  1  0  0  0  0
  4  5  1  0  0  0  0
  5  6  1  0  0  0  0
  6  7  1  0  0  0  0
  7  8  1  0  0  0  0
  9 10  1  0  0  0  0
  9 11  1  0  0  0  0
M  END
> <ID>
14288

> <Formula>
C9H16N2

> <FW>
152.2367

> <DSSTox_CID>
29384

> <DSSTox_RID>
83499

> <DSSTox_GSID>
49424

> <DSSTox_FileID_Sort>
8174

> <TS_ChemName>
1,8-Diazabicyclo[5.4.0]undec-7-ene

> <TS_ChemName_Synonyms>


> <TS_CASRN>
6674-22-2

> <CASRN_ChemName_Relationship>
primary

> <TS_Description>
single chemical compound

> <ChemNote>


> <STRUCTURE_Shown>
tested chemical

> <STRUCTURE_Formula>
C9H16N2

> <STRUCTURE_MW>
152.2367

> <STRUCTURE_ChemType>
defined organic

> <STRUCTURE_DefinedOrganicForm>
parent

> <STRUCTURE_IUPAC>
2,3,4,6,7,8,9,10-octahydropyrimido[1,2-a]azepine

> <STRUCTURE_SMILES>
C1CCC2=NCCCN2CC1

> <STRUCTURE_SMILES_Desalt>
C1CCC2=NCCCN2CC1

> <Substance_modify_yyyymmdd>
20111204

$$$$
