66794-74-9
ChemmineR-0915142007XD

 27 28  0  0  0  0  0  0  0  0  1 V2000
    5.7927   -5.9591    0.0000 C    0  0  0  0  0  0  0  0  0  0  0  0
    5.7927   -4.6071    0.0000 N    0  0  0  0  0  0  0  0  0  0  0  0
    9.2662   -2.6104    0.0000 N    0  0  0  0  0  0  0  0  0  0  0  0
    4.6591   -3.9623    0.0000 C    0  0  0  0  0  0  0  0  0  0  0  0
    4.6591   -6.6247    0.0000 C    0  0  0  0  0  0  0  0  0  0  0  0
    6.9679   -6.6559    0.0000 O    0  0  0  0  0  0  0  0  0  0  0  0
    8.1015   -1.9968    0.0000 C    0  0  0  0  0  0  0  0  0  0  0  0
    4.6591   -2.6104    0.0000 C    0  0  0  0  0  0  0  0  0  0  0  0
    5.7927   -1.9968    0.0000 C    0  0  0  0  0  0  0  0  0  0  0  0
    6.9679   -2.6520    0.0000 C    0  0  0  0  0  0  0  0  0  0  0  0
    3.5255   -5.9591    0.0000 C    0  0  0  0  0  0  0  0  0  0  0  0
    4.6591   -7.9559    0.0000 C    0  0  0  0  0  0  0  0  0  0  0  0
    2.3608   -7.9247    0.0000 C    0  0  0  0  0  0  0  0  0  0  0  0
    3.5255   -8.6214    0.0000 C    0  0  0  0  0  0  0  0  0  0  0  0
    2.3608   -6.6247    0.0000 C    0  0  0  0  0  0  0  0  0  0  0  0
    9.2662   -4.0351    0.0000 C    0  0  0  0  0  0  0  0  0  0  0  0
   10.3998   -1.9656    0.0000 C    0  0  0  0  0  0  0  0  0  0  0  0
    1.1336   -8.5694    0.0000 O    0  0  0  0  0  0  0  0  0  0  0  0
    3.5255   -4.6071    0.0000 C    0  0  0  0  0  0  0  0  0  0  0  0
    3.5255   -1.9968    0.0000 C    0  0  0  0  0  0  0  0  0  0  0  0
    8.1015   -0.6552    0.0000 C    0  0  0  0  0  0  0  0  0  0  0  0
    0.0000   -7.9247    0.0000 C    0  0  0  0  0  0  0  0  0  0  0  0
   10.3998   -0.6136    0.0000 C    0  0  0  0  0  0  0  0  0  0  0  0
    2.3608   -3.9623    0.0000 C    0  0  0  0  0  0  0  0  0  0  0  0
    2.3608   -2.6104    0.0000 C    0  0  0  0  0  0  0  0  0  0  0  0
    9.2246    0.0000    0.0000 C    0  0  0  0  0  0  0  0  0  0  0  0
    6.2295   -9.0582    0.0000 Cl   0  0  0  0  0  0  0  0  0  0  0  0
  1  2  1  0  0  0  0
  1  5  1  0  0  0  0
  1  6  2  0  0  0  0
  2  4  1  0  0  0  0
  3  7  1  0  0  0  0
  3 16  1  0  0  0  0
  3 17  1  0  0  0  0
  4  8  1  0  0  0  0
  4 19  2  0  0  0  0
  5 11  1  0  0  0  0
  5 12  2  0  0  0  0
  7 10  1  0  0  0  0
  7 21  1  0  0  0  0
  8  9  1  0  0  0  0
  8 20  2  0  0  0  0
  9 10  1  0  0  0  0
 11 15  2  0  0  0  0
 12 14  1  0  0  0  0
 13 14  2  0  0  0  0
 13 18  1  0  0  0  0
 13 15  1  0  0  0  0
 17 23  1  0  0  0  0
 18 22  1  0  0  0  0
 19 24  1  0  0  0  0
 20 25  1  0  0  0  0
 21 26  1  0  0  0  0
 23 26  1  0  0  0  0
 24 25  2  0  0  0  0
M  END
> <ID>
13989

> <Formula>
C22H29ClN2O2

> <FW>
388.9309 (352.4699+36.4609)

> <DSSTox_CID>
28930

> <DSSTox_RID>
83196

> <DSSTox_GSID>
49004

> <DSSTox_FileID_Sort>
7872

> <TS_ChemName>
Encainide hydrochloride

> <TS_ChemName_Synonyms>


> <TS_CASRN>
66794-74-9

> <CASRN_ChemName_Relationship>
primary

> <TS_Description>
single chemical compound

> <ChemNote>


> <STRUCTURE_Shown>
tested chemical

> <STRUCTURE_Formula>
C22H29ClN2O2

> <STRUCTURE_MW>
388.9309

> <STRUCTURE_ChemType>
defined organic

> <STRUCTURE_DefinedOrganicForm>
complex

> <STRUCTURE_IUPAC>
4-methoxy-N-{2-[2-(1-methylpiperidin-2-yl)ethyl]phenyl}benzamide hydrochloride (1:1)

> <STRUCTURE_SMILES>
Cl.CN3CCCCC3CCc2ccccc2NC(=O)c1ccc(OC)cc1

> <STRUCTURE_SMILES_Desalt>
CN3CCCCC3CCc2ccccc2NC(=O)c1ccc(OC)cc1

> <Substance_modify_yyyymmdd>
20111204

$$$$
