66803-19-8
ChemmineR-0915142007XD

 37 38  0  0  1  0  0  0  0  0  1 V2000
    3.4536   -3.9920    0.0000 C   0  0  0  0  0  0  0  0  0  0  0  0
    2.2838   -4.6605    0.0000 C   0  0  0  0  0  0  0  0  0  0  0  0
    3.4536   -2.6552    0.0000 O   0  0  0  0  0  0  0  0  0  0  0  0
    1.1512   -3.9920    0.0000 C   0  0  0  0  0  0  0  0  0  0  0  0
    2.2838   -2.0053    0.0000 C   0  0  0  0  0  0  0  0  0  0  0  0
    1.1512   -2.6552    0.0000 C   0  0  0  0  0  0  0  0  0  0  0  0
    4.6233   -4.6605    0.0000 O   0  0  0  0  0  0  0  0  0  0  0  0
    2.2838   -5.9973    0.0000 N   0  0  0  0  0  0  0  0  0  0  0  0
    2.2838   -0.6684    0.0000 C   0  0  0  0  0  0  0  0  0  0  0  0
    1.1512    0.0000    0.0000 N   0  0  0  0  0  0  0  0  0  0  0  0
    6.9257   -2.0053    0.0000 C   0  0  0  0  0  0  0  0  0  0  0  0
    8.0583   -2.6552    0.0000 C   0  0  0  0  0  0  0  0  0  0  0  0
    5.7745   -2.6552    0.0000 C   0  0  0  0  0  0  0  0  0  0  0  0
    8.0583   -3.9920    0.0000 C   0  0  0  0  0  0  0  0  0  0  0  0
    5.7745   -3.9920    0.0000 C   0  0  0  0  0  0  0  0  0  0  0  0
    6.9257   -4.6605    0.0000 C   0  0  0  0  0  0  0  0  0  0  0  0
    4.6233   -2.0053    0.0000 N   0  0  0  0  0  0  0  0  0  0  0  0
    9.2281   -2.0053    0.0000 N   0  0  0  0  0  0  0  0  0  0  0  0
    9.2281   -4.6605    0.0000 O   0  0  0  0  0  0  0  0  0  0  0  0
    6.9257   -5.9973    0.0000 O   0  0  0  0  0  0  0  0  0  0  0  0
   11.5305   -2.0053    0.0000 C   0  0  0  0  0  0  0  0  0  0  0  0
   12.6817   -2.6552    0.0000 C   0  0  0  0  0  0  0  0  0  0  0  0
   10.3979   -2.6552    0.0000 O   0  0  0  0  0  0  0  0  0  0  0  0
   12.6817   -3.9920    0.0000 C   0  0  0  0  0  0  0  0  0  0  0  0
   10.3979   -3.9920    0.0000 C   0  0  0  0  0  0  0  0  0  0  0  0
   11.5305   -4.6605    0.0000 C   0  0  0  0  0  0  0  0  0  0  0  0
   14.0185   -2.6552    0.0000 C   0  0  0  0  0  0  0  0  0  0  0  0
   13.3315   -1.5040    0.0000 O   0  0  0  0  0  0  0  0  0  0  0  0
   13.8329   -4.6605    0.0000 N   0  0  0  0  0  0  0  0  0  0  0  0
   11.5305   -5.9973    0.0000 O   0  0  0  0  0  0  0  0  0  0  0  0
   13.8329   -5.9973    0.0000 C   0  0  0  0  0  0  0  0  0  0  0  0
    0.0000   -0.6684    0.0000 C   0  0  0  0  0  0  0  0  0  0  0  0
   17.2307   -3.8435    0.0000 S   0  0  0  0  0  0  0  0  0  0  0  0
   18.5676   -3.8435    0.0000 O   0  0  0  0  0  0  0  0  0  0  0  0
   15.9124   -3.8435    0.0000 O   0  0  0  0  0  0  0  0  0  0  0  0
   17.2307   -5.1804    0.0000 O   0  0  0  0  0  0  0  0  0  0  0  0
   17.2307   -2.5252    0.0000 O   0  0  0  0  0  0  0  0  0  0  0  0
  1  2  1  0  0  0  0
  1  3  1  0  0  0  0
  1  7  1  6  0  0  0
  2  4  1  0  0  0  0
  2  8  1  6  0  0  0
  3  5  1  0  0  0  0
  4  6  1  0  0  0  0
  5  6  1  0  0  0  0
  5  9  1  1  0  0  0
 15  7  1  6  0  0  0
  9 10  1  0  0  0  0
 10 32  1  0  0  0  0
 11 12  1  0  0  0  0
 11 13  1  0  0  0  0
 12 14  1  0  0  0  0
 12 18  1  1  0  0  0
 13 15  1  0  0  0  0
 13 17  1  1  0  0  0
 14 16  1  0  0  0  0
 14 19  1  6  0  0  0
 15 16  1  0  0  0  0
 16 20  1  1  0  0  0
 25 19  1  1  0  0  0
 21 22  1  0  0  0  0
 21 23  1  0  0  0  0
 22 24  1  0  0  0  0
 22 27  1  0  0  0  0
 22 28  1  6  0  0  0
 23 25  1  0  0  0  0
 24 26  1  0  0  0  0
 24 29  1  6  0  0  0
 25 26  1  0  0  0  0
 26 30  1  1  0  0  0
 29 31  1  0  0  0  0
 33 34  2  0  0  0  0
 33 35  2  0  0  0  0
 33 36  1  0  0  0  0
 33 37  1  0  0  0  0
M  END
> <ID>
13606

> <Formula>
C20H43N5O11S

> <FW>
561.6473 (463.5688+98.0785)

> <DSSTox_CID>
28535

> <DSSTox_RID>
82807

> <DSSTox_GSID>
48609

> <DSSTox_FileID_Sort>
7484

> <TS_ChemName>
Micronomicin sulfate

> <TS_ChemName_Synonyms>


> <TS_CASRN>
66803-19-8

> <CASRN_ChemName_Relationship>
primary

> <TS_Description>
single chemical compound

> <ChemNote>
stereochem; parent [52093-21-7]

> <STRUCTURE_Shown>
tested chemical

> <STRUCTURE_Formula>
C20H43N5O11S

> <STRUCTURE_MW>
561.6473

> <STRUCTURE_ChemType>
defined organic

> <STRUCTURE_DefinedOrganicForm>
complex

> <STRUCTURE_IUPAC>
(1R,2S,3S,4R,6S)-4,6-diamino-3-{[3-deoxy-4-C-methyl-3-(methylamino)-beta-L-arabinopyranosyl]oxy}-2-hydroxycyclohexyl 2-amino-2,3,4,6-tetradeoxy-6-(methylamino)-alpha-D-erythro-hexopyranoside sulfate (1:1)

> <STRUCTURE_SMILES>
O=S(=O)(O)O.N[C@@H]3CC[C@@H](CNC)O[C@@H]3O[C@H]2[C@H](O)[C@@H](O[C@H]1OC[C@](C)(O)[C@H](NC)[C@H]1O)[C@H](N)C[C@@H]2N

> <STRUCTURE_SMILES_Desalt>
N[C@@H]3CC[C@@H](CNC)O[C@@H]3O[C@H]2[C@H](O)[C@@H](O[C@H]1OC[C@](C)(O)[C@H](NC)[C@H]1O)[C@H](N)C[C@@H]2N

> <Substance_modify_yyyymmdd>
20111014

$$$$
