6683-19-8
ChemmineR-0915142007XD

 85 88  0  0  0  0  0  0  0  0  1 V2000
   10.3738  -11.5264    0.0000 C   0  0  0  0  0  0  0  0  0  0  0  0
    9.2211  -10.8579    0.0000 C   0  0  0  0  0  0  0  0  0  0  0  0
    8.0685  -11.5264    0.0000 O   0  0  0  0  0  0  0  0  0  0  0  0
    6.9158  -10.8579    0.0000 C   0  0  0  0  0  0  0  0  0  0  0  0
    6.9158   -9.5439    0.0000 O   0  0  0  0  0  0  0  0  0  0  0  0
    5.7632  -11.5264    0.0000 C   0  0  0  0  0  0  0  0  0  0  0  0
    5.7632  -12.8635    0.0000 C   0  0  0  0  0  0  0  0  0  0  0  0
    4.6106  -13.5320    0.0000 C   0  0  0  0  0  0  0  0  0  0  0  0
    4.6106  -14.8691    0.0000 C   0  0  0  0  0  0  0  0  0  0  0  0
    3.4579  -12.8635    0.0000 C   0  0  0  0  0  0  0  0  0  0  0  0
    3.4579  -15.5145    0.0000 C   0  0  0  0  0  0  0  0  0  0  0  0
    2.2822  -13.5320    0.0000 C   0  0  0  0  0  0  0  0  0  0  0  0
    2.2822  -14.8691    0.0000 C   0  0  0  0  0  0  0  0  0  0  0  0
    1.1526  -15.5145    0.0000 O   0  0  0  0  0  0  0  0  0  0  0  0
    3.4579  -16.8516    0.0000 C   0  0  0  0  0  0  0  0  0  0  0  0
    2.1209  -16.8516    0.0000 C   0  0  0  0  0  0  0  0  0  0  0  0
    4.7719  -16.8516    0.0000 C   0  0  0  0  0  0  0  0  0  0  0  0
    3.4579  -18.1887    0.0000 C   0  0  0  0  0  0  0  0  0  0  0  0
    1.1526  -12.8635    0.0000 C   0  0  0  0  0  0  0  0  0  0  0  0
    1.8212  -11.7108    0.0000 C   0  0  0  0  0  0  0  0  0  0  0  0
    0.4841  -14.0161    0.0000 C   0  0  0  0  0  0  0  0  0  0  0  0
    0.0000  -12.1949    0.0000 C   0  0  0  0  0  0  0  0  0  0  0  0
   11.0192  -10.3738    0.0000 C   0  0  0  0  0  0  0  0  0  0  0  0
   10.3738   -9.2211    0.0000 O   0  0  0  0  0  0  0  0  0  0  0  0
   11.0192   -8.0685    0.0000 C   0  0  0  0  0  0  0  0  0  0  0  0
   12.3563   -8.0685    0.0000 O   0  0  0  0  0  0  0  0  0  0  0  0
   10.3738   -6.9158    0.0000 C   0  0  0  0  0  0  0  0  0  0  0  0
   11.0192   -5.7632    0.0000 C   0  0  0  0  0  0  0  0  0  0  0  0
   10.3738   -4.6106    0.0000 C   0  0  0  0  0  0  0  0  0  0  0  0
    9.0367   -4.6106    0.0000 C   0  0  0  0  0  0  0  0  0  0  0  0
   11.0192   -3.4579    0.0000 C   0  0  0  0  0  0  0  0  0  0  0  0
    8.3682   -3.4579    0.0000 C   0  0  0  0  0  0  0  0  0  0  0  0
   10.3738   -2.3053    0.0000 C   0  0  0  0  0  0  0  0  0  0  0  0
    9.0367   -2.3053    0.0000 C   0  0  0  0  0  0  0  0  0  0  0  0
    8.3682   -1.1526    0.0000 O   0  0  0  0  0  0  0  0  0  0  0  0
    7.0311   -3.4579    0.0000 C   0  0  0  0  0  0  0  0  0  0  0  0
    7.0311   -2.1209    0.0000 C   0  0  0  0  0  0  0  0  0  0  0  0
    7.0311   -4.7950    0.0000 C   0  0  0  0  0  0  0  0  0  0  0  0
    5.7171   -3.4579    0.0000 C   0  0  0  0  0  0  0  0  0  0  0  0
   11.0192   -1.1526    0.0000 C   0  0  0  0  0  0  0  0  0  0  0  0
   12.1949   -1.8212    0.0000 C   0  0  0  0  0  0  0  0  0  0  0  0
    9.8666   -0.5072    0.0000 C   0  0  0  0  0  0  0  0  0  0  0  0
   11.7108    0.0000    0.0000 C   0  0  0  0  0  0  0  0  0  0  0  0
    9.7052  -12.6790    0.0000 C   0  0  0  0  0  0  0  0  0  0  0  0
   10.3738  -13.8317    0.0000 O   0  0  0  0  0  0  0  0  0  0  0  0
    9.7052  -14.9843    0.0000 C   0  0  0  0  0  0  0  0  0  0  0  0
    8.3682  -14.9843    0.0000 O   0  0  0  0  0  0  0  0  0  0  0  0
   10.3738  -16.1370    0.0000 C   0  0  0  0  0  0  0  0  0  0  0  0
    9.7052  -17.2896    0.0000 C   0  0  0  0  0  0  0  0  0  0  0  0
   10.3738  -18.4423    0.0000 C   0  0  0  0  0  0  0  0  0  0  0  0
   11.7108  -18.4423    0.0000 C   0  0  0  0  0  0  0  0  0  0  0  0
    9.7052  -19.5949    0.0000 C   0  0  0  0  0  0  0  0  0  0  0  0
   12.3563  -19.5949    0.0000 C   0  0  0  0  0  0  0  0  0  0  0  0
   10.3738  -20.7475    0.0000 C   0  0  0  0  0  0  0  0  0  0  0  0
   11.7108  -20.7475    0.0000 C   0  0  0  0  0  0  0  0  0  0  0  0
   12.3563  -21.9002    0.0000 O   0  0  0  0  0  0  0  0  0  0  0  0
   13.6934  -19.5949    0.0000 C   0  0  0  0  0  0  0  0  0  0  0  0
   13.6934  -20.9320    0.0000 C   0  0  0  0  0  0  0  0  0  0  0  0
   13.6934  -18.2578    0.0000 C   0  0  0  0  0  0  0  0  0  0  0  0
   15.0304  -19.5949    0.0000 C   0  0  0  0  0  0  0  0  0  0  0  0
    9.7052  -21.9002    0.0000 C   0  0  0  0  0  0  0  0  0  0  0  0
    8.5526  -21.2316    0.0000 C   0  0  0  0  0  0  0  0  0  0  0  0
   10.8579  -22.5457    0.0000 C   0  0  0  0  0  0  0  0  0  0  0  0
    9.0367  -23.0528    0.0000 C   0  0  0  0  0  0  0  0  0  0  0  0
   11.5034  -12.1949    0.0000 C   0  0  0  0  0  0  0  0  0  0  0  0
   12.6560  -11.5264    0.0000 O   0  0  0  0  0  0  0  0  0  0  0  0
   13.8086  -12.1949    0.0000 C   0  0  0  0  0  0  0  0  0  0  0  0
   13.8086  -13.5090    0.0000 O   0  0  0  0  0  0  0  0  0  0  0  0
   14.9843  -11.5264    0.0000 C   0  0  0  0  0  0  0  0  0  0  0  0
   16.1370  -12.1949    0.0000 C   0  0  0  0  0  0  0  0  0  0  0  0
   17.2896  -11.5264    0.0000 C   0  0  0  0  0  0  0  0  0  0  0  0
   17.2896  -10.1893    0.0000 C   0  0  0  0  0  0  0  0  0  0  0  0
   18.4423  -12.1949    0.0000 C   0  0  0  0  0  0  0  0  0  0  0  0
   18.4423   -9.5208    0.0000 C   0  0  0  0  0  0  0  0  0  0  0  0
   19.5949  -11.5264    0.0000 C   0  0  0  0  0  0  0  0  0  0  0  0
   19.5949  -10.1893    0.0000 C   0  0  0  0  0  0  0  0  0  0  0  0
   20.7245   -9.5208    0.0000 O   0  0  0  0  0  0  0  0  0  0  0  0
   18.4423   -8.1838    0.0000 C   0  0  0  0  0  0  0  0  0  0  0  0
   19.7563   -8.1838    0.0000 C   0  0  0  0  0  0  0  0  0  0  0  0
   17.1052   -8.2068    0.0000 C   0  0  0  0  0  0  0  0  0  0  0  0
   18.4423   -6.8697    0.0000 C   0  0  0  0  0  0  0  0  0  0  0  0
   20.7245  -12.1949    0.0000 C   0  0  0  0  0  0  0  0  0  0  0  0
   20.0790  -13.3476    0.0000 C   0  0  0  0  0  0  0  0  0  0  0  0
   21.3930  -11.0423    0.0000 C   0  0  0  0  0  0  0  0  0  0  0  0
   21.8771  -12.8635    0.0000 C   0  0  0  0  0  0  0  0  0  0  0  0
  1  2  1  0  0  0  0
  1 23  1  0  0  0  0
  1 44  1  0  0  0  0
  1 65  1  0  0  0  0
  2  3  1  0  0  0  0
  3  4  1  0  0  0  0
  4  5  2  0  0  0  0
  4  6  1  0  0  0  0
  6  7  1  0  0  0  0
  7  8  1  0  0  0  0
  8  9  2  0  0  0  0
  8 10  1  0  0  0  0
  9 11  1  0  0  0  0
 10 12  2  0  0  0  0
 11 13  2  0  0  0  0
 11 15  1  0  0  0  0
 12 13  1  0  0  0  0
 12 19  1  0  0  0  0
 13 14  1  0  0  0  0
 15 16  1  0  0  0  0
 15 17  1  0  0  0  0
 15 18  1  0  0  0  0
 19 20  1  0  0  0  0
 19 21  1  0  0  0  0
 19 22  1  0  0  0  0
 23 24  1  0  0  0  0
 24 25  1  0  0  0  0
 25 26  2  0  0  0  0
 25 27  1  0  0  0  0
 27 28  1  0  0  0  0
 28 29  1  0  0  0  0
 29 30  2  0  0  0  0
 29 31  1  0  0  0  0
 30 32  1  0  0  0  0
 31 33  2  0  0  0  0
 32 34  2  0  0  0  0
 32 36  1  0  0  0  0
 33 34  1  0  0  0  0
 33 40  1  0  0  0  0
 34 35  1  0  0  0  0
 36 37  1  0  0  0  0
 36 38  1  0  0  0  0
 36 39  1  0  0  0  0
 40 41  1  0  0  0  0
 40 42  1  0  0  0  0
 40 43  1  0  0  0  0
 44 45  1  0  0  0  0
 45 46  1  0  0  0  0
 46 47  2  0  0  0  0
 46 48  1  0  0  0  0
 48 49  1  0  0  0  0
 49 50  1  0  0  0  0
 50 51  2  0  0  0  0
 50 52  1  0  0  0  0
 51 53  1  0  0  0  0
 52 54  2  0  0  0  0
 53 55  2  0  0  0  0
 53 57  1  0  0  0  0
 54 55  1  0  0  0  0
 54 61  1  0  0  0  0
 55 56  1  0  0  0  0
 57 58  1  0  0  0  0
 57 59  1  0  0  0  0
 57 60  1  0  0  0  0
 61 62  1  0  0  0  0
 61 63  1  0  0  0  0
 61 64  1  0  0  0  0
 65 66  1  0  0  0  0
 66 67  1  0  0  0  0
 67 68  2  0  0  0  0
 67 69  1  0  0  0  0
 69 70  1  0  0  0  0
 70 71  1  0  0  0  0
 71 72  2  0  0  0  0
 71 73  1  0  0  0  0
 72 74  1  0  0  0  0
 73 75  2  0  0  0  0
 74 76  2  0  0  0  0
 74 78  1  0  0  0  0
 75 76  1  0  0  0  0
 75 82  1  0  0  0  0
 76 77  1  0  0  0  0
 78 79  1  0  0  0  0
 78 80  1  0  0  0  0
 78 81  1  0  0  0  0
 82 83  1  0  0  0  0
 82 84  1  0  0  0  0
 82 85  1  0  0  0  0
M  END
> <ID>
5310

> <Formula>
C73H108O12

> <FW>
1177.6314

> <DSSTox_CID>
7633

> <DSSTox_RID>
78534

> <DSSTox_GSID>
27633

> <DSSTox_FileID_Sort>
3217

> <TS_ChemName>
Pentaerythritol tetrakis(3,5-di-tert-butyl-4-hydroxyhydrocinnamate)

> <TS_ChemName_Synonyms>
Pentaerythritol tetrakis(3,5-di-tert-butyl-4-hydroxyhydrocinnamate) (Benzenepropanoic acid, 3,5-bis(1,1-dimethylethyl)-4-hydroxy-, 2,2-bis[[3-[3,5-bis(1,1-dimethylethyl)-4-hydroxyphenyl]-1-oxopropoxy]methyl]-1,3-propanediyl ester)

> <TS_CASRN>
6683-19-8

> <CASRN_ChemName_Relationship>
primary

> <TS_Description>
single chemical compound

> <ChemNote>


> <STRUCTURE_Shown>
tested chemical

> <STRUCTURE_Formula>
C73H108O12

> <STRUCTURE_MW>
1177.6314

> <STRUCTURE_ChemType>
defined organic

> <STRUCTURE_DefinedOrganicForm>
parent

> <STRUCTURE_IUPAC>
3-{[3-(3,5-di-tert-butyl-4-hydroxyphenyl)propanoyl]oxy}-2,2-bis({[3-(3,5-di-tert-butyl-4-hydroxyphenyl)propanoyl]oxy}methyl)propyl 3-(3,5-di-tert-butyl-4-hydroxyphenyl)propanoate

> <STRUCTURE_SMILES>
CC(C)(C)c1cc(cc(c1O)C(C)(C)C)CCC(=O)OCC(COC(=O)CCc2cc(c(O)c(c2)C(C)(C)C)C(C)(C)C)(COC(=O)CCc3cc(c(O)c(c3)C(C)(C)C)C(C)(C)C)COC(=O)CCc4cc(c(O)c(c4)C(C)(C)C)C(C)(C)C

> <STRUCTURE_SMILES_Desalt>
CC(C)(C)c1cc(cc(c1O)C(C)(C)C)CCC(=O)OCC(COC(=O)CCc2cc(c(O)c(c2)C(C)(C)C)C(C)(C)C)(COC(=O)CCc3cc(c(O)c(c3)C(C)(C)C)C(C)(C)C)COC(=O)CCc4cc(c(O)c(c4)C(C)(C)C)C(C)(C)C

> <Substance_modify_yyyymmdd>
20080429

$$$$
