66852-54-8
ChemmineR-0915142007XD

 35 38  0  0  1  0  0  0  0  0  1 V2000
    6.9293   -2.5645    0.0000 C    0  0  0  0  0  0  0  0  0  0  0  0
    4.6368   -3.8726    0.0000 C    0  0  0  0  0  0  0  0  0  0  0  0
    3.4711   -4.5461    0.0000 C    0  0  0  0  0  0  0  0  0  0  0  0
    6.9293   -3.8726    0.0000 C    0  0  0  0  0  0  0  0  0  0  0  0
    5.7766   -4.5461    0.0000 C    0  0  0  0  0  0  0  0  0  0  0  0
    8.1986   -2.1371    0.0000 C    0  0  0  0  0  0  0  0  0  0  0  0
    3.4711   -5.8931    0.0000 C    0  0  0  0  0  0  0  0  0  0  0  0
    4.6368   -2.5645    0.0000 C    0  0  0  0  0  0  0  0  0  0  0  0
    5.7766   -1.8780    0.0000 C    0  0  0  0  0  0  0  0  0  0  0  0
    8.9886   -3.2250    0.0000 C    0  0  0  0  0  0  0  0  0  0  0  0
    2.3572   -3.8726    0.0000 C    0  0  0  0  0  0  0  0  0  0  0  0
    8.1986   -4.2871    0.0000 C    0  0  0  0  0  0  0  0  0  0  0  0
    2.3572   -6.5666    0.0000 C    0  0  0  0  0  0  0  0  0  0  0  0
    8.1986   -0.7901    0.0000 C    0  0  0  0  0  0  0  0  0  0  0  0
    5.7766   -5.8931    0.0000 C    0  0  0  0  0  0  0  0  0  0  0  0
    1.1786   -4.5461    0.0000 C    0  0  0  0  0  0  0  0  0  0  0  0
    1.1786   -5.8931    0.0000 C    0  0  0  0  0  0  0  0  0  0  0  0
    4.6368   -6.5666    0.0000 C    0  0  0  0  0  0  0  0  0  0  0  0
    4.6109   -5.0253    0.0000 F    0  0  0  0  0  0  0  0  0  0  0  0
    0.0000   -6.5666    0.0000 O    0  0  0  0  0  0  0  0  0  0  0  0
    9.4938   -2.1112    0.0000 O    0  0  0  0  0  0  0  0  0  0  0  0
    6.9293   -1.2175    0.0000 C    0  0  0  0  0  0  0  0  0  0  0  0
    3.4582   -1.8780    0.0000 O    0  0  0  0  0  0  0  0  0  0  0  0
    3.4711   -3.2250    0.0000 C    0  0  0  0  0  0  0  0  0  0  0  0
   10.3227   -3.1991    0.0000 C    0  0  0  0  0  0  0  0  0  0  0  0
    7.0070   -0.2461    0.0000 C    0  0  0  0  0  0  0  0  0  0  0  0
    5.9190   -1.0491    0.0000 Cl   0  0  0  0  0  0  0  0  0  0  0  0
    5.7766   -3.1991    0.0000 H    0  0  0  0  0  0  0  0  0  0  0  0
    6.9293   -5.2196    0.0000 H    0  0  0  0  0  0  0  0  0  0  0  0
    4.6368   -7.8877    0.0000 F    0  0  0  0  0  0  0  0  0  0  0  0
   10.6594   -1.4247    0.0000 C    0  0  0  0  0  0  0  0  0  0  0  0
    9.2865    0.0000    0.0000 O    0  0  0  0  0  0  0  0  0  0  0  0
   11.7992   -2.1112    0.0000 C    0  0  0  0  0  0  0  0  0  0  0  0
   12.9519   -1.4247    0.0000 C    0  0  0  0  0  0  0  0  0  0  0  0
   10.6594   -0.1166    0.0000 O    0  0  0  0  0  0  0  0  0  0  0  0
  1  4  1  0  0  0  0
  1  6  1  0  0  0  0
  1  9  1  0  0  0  0
  1 22  1  1  0  0  0
  2  8  1  0  0  0  0
  2  3  1  0  0  0  0
  2 19  1  6  0  0  0
  2  5  1  0  0  0  0
  3  7  1  0  0  0  0
  3 11  1  0  0  0  0
  3 24  1  1  0  0  0
  4  5  1  0  0  0  0
  4 12  1  0  0  0  0
  4 29  1  6  0  0  0
  5 15  1  0  0  0  0
  5 28  1  1  0  0  0
  6 10  1  0  0  0  0
  6 14  1  0  0  0  0
  6 21  1  6  0  0  0
  7 13  2  0  0  0  0
  7 18  1  0  0  0  0
  8  9  1  0  0  0  0
  8 23  1  1  0  0  0
 10 25  1  1  0  0  0
 10 12  1  0  0  0  0
 11 16  2  0  0  0  0
 13 17  1  0  0  0  0
 14 32  2  0  0  0  0
 14 26  1  0  0  0  0
 15 18  1  0  0  0  0
 16 17  1  0  0  0  0
 17 20  2  0  0  0  0
 18 30  1  6  0  0  0
 21 31  1  0  0  0  0
 26 27  1  0  0  0  0
 31 33  1  0  0  0  0
 31 35  2  0  0  0  0
 33 34  1  0  0  0  0
M  END
> <ID>
11847

> <Formula>
C25H31ClF2O5

> <FW>
484.9604

> <DSSTox_CID>
26636

> <DSSTox_RID>
81782

> <DSSTox_GSID>
46636

> <DSSTox_FileID_Sort>
6463

> <TS_ChemName>
Halobetasol propionate

> <TS_ChemName_Synonyms>


> <TS_CASRN>
66852-54-8

> <CASRN_ChemName_Relationship>
primary

> <TS_Description>
single chemical compound

> <ChemNote>
stereochem

> <STRUCTURE_Shown>
tested chemical

> <STRUCTURE_Formula>
C25H31ClF2O5

> <STRUCTURE_MW>
484.9604

> <STRUCTURE_ChemType>
defined organic

> <STRUCTURE_DefinedOrganicForm>
parent

> <STRUCTURE_IUPAC>
(6alpha,11beta,16beta)-21-chloro-6,9-difluoro-11-hydroxy-16-methyl-3,20-dioxopregna-1,4-dien-17-yl propanoate

> <STRUCTURE_SMILES>
ClCC(=O)[C@@]4(OC(=O)CC)[C@@H](C)C[C@@H]3[C@]4(C)C[C@H](O)[C@@]2(F)[C@H]3C[C@H](F)C1=CC(=O)C=C[C@@]12C

> <STRUCTURE_SMILES_Desalt>
ClCC(=O)[C@@]4(OC(=O)CC)[C@@H](C)C[C@@H]3[C@]4(C)C[C@H](O)[C@@]2(F)[C@H]3C[C@H](F)C1=CC(=O)C=C[C@@]12C

> <Substance_modify_yyyymmdd>
20110809

$$$$
