668981-02-0
ChemmineR-0915142007XD

 25 28  0  0  0  0  0  0  0  0  1 V2000
    2.1032   -4.4082    0.0000 C   0  0  0  0  0  0  0  0  0  0  0  0
    1.9757   -3.0698    0.0000 C   0  0  0  0  0  0  0  0  0  0  0  0
    3.2610   -5.0667    0.0000 C   0  0  0  0  0  0  0  0  0  0  0  0
    0.8816   -4.9499    0.0000 O   0  0  0  0  0  0  0  0  0  0  0  0
    2.9529   -2.1988    0.0000 C   0  0  0  0  0  0  0  0  0  0  0  0
    0.6586   -2.8149    0.0000 N   0  0  0  0  0  0  0  0  0  0  0  0
    3.2610   -6.3945    0.0000 C   0  0  0  0  0  0  0  0  0  0  0  0
    4.4188   -4.4082    0.0000 C   0  0  0  0  0  0  0  0  0  0  0  0
    0.0000   -3.9514    0.0000 C   0  0  0  0  0  0  0  0  0  0  0  0
    2.6661   -0.8816    0.0000 C   0  0  0  0  0  0  0  0  0  0  0  0
    4.2276   -2.6024    0.0000 C   0  0  0  0  0  0  0  0  0  0  0  0
    4.4188   -7.0743    0.0000 N   0  0  0  0  0  0  0  0  0  0  0  0
    5.5554   -5.0667    0.0000 C   0  0  0  0  0  0  0  0  0  0  0  0
    3.6646    0.0000    0.0000 C   0  0  0  0  0  0  0  0  0  0  0  0
    1.4127   -0.4780    0.0000 F   0  0  0  0  0  0  0  0  0  0  0  0
    5.2048   -1.7208    0.0000 C   0  0  0  0  0  0  0  0  0  0  0  0
    5.5554   -6.3945    0.0000 C   0  0  0  0  0  0  0  0  0  0  0  0
    4.6950   -8.3702    0.0000 C   0  0  0  0  0  0  0  0  0  0  0  0
    4.9287   -0.4036    0.0000 C   0  0  0  0  0  0  0  0  0  0  0  0
    6.4795   -2.1244    0.0000 F   0  0  0  0  0  0  0  0  0  0  0  0
    6.5432   -7.2974    0.0000 N   0  0  0  0  0  0  0  0  0  0  0  0
    6.0121   -8.4977    0.0000 N   0  0  0  0  0  0  0  0  0  0  0  0
    3.8133   -9.3474    0.0000 C   0  0  0  0  0  0  0  0  0  0  0  0
    2.4856   -9.0819    0.0000 C   0  0  0  0  0  0  0  0  0  0  0  0
    4.2064  -10.6221    0.0000 C   0  0  0  0  0  0  0  0  0  0  0  0
  1  2  2  0  0  0  0
  1  3  1  0  0  0  0
  1  4  1  0  0  0  0
  2  5  1  0  0  0  0
  2  6  1  0  0  0  0
  3  7  2  0  0  0  0
  3  8  1  0  0  0  0
  4  9  1  0  0  0  0
  5 10  1  0  0  0  0
  5 11  2  0  0  0  0
  6  9  2  0  0  0  0
  7 12  1  0  0  0  0
  8 13  2  0  0  0  0
 10 14  2  0  0  0  0
 10 15  1  0  0  0  0
 11 16  1  0  0  0  0
 12 17  1  0  0  0  0
 12 18  1  0  0  0  0
 13 17  1  0  0  0  0
 14 19  1  0  0  0  0
 16 20  1  0  0  0  0
 16 19  2  0  0  0  0
 17 21  2  0  0  0  0
 18 22  2  0  0  0  0
 18 23  1  0  0  0  0
 21 22  1  0  0  0  0
 23 24  1  0  0  0  0
 23 25  1  0  0  0  0
M  END
> <ID>
12436

> <Formula>
C18H14F2N4O

> <FW>
340.3268

> <DSSTox_CID>
27294

> <DSSTox_RID>
82247

> <DSSTox_GSID>
47294

> <DSSTox_FileID_Sort>
6928

> <TS_ChemName>
CP-863187

> <TS_ChemName_Synonyms>


> <TS_CASRN>
668981-02-0

> <CASRN_ChemName_Relationship>
primary

> <TS_Description>
single chemical compound

> <ChemNote>


> <STRUCTURE_Shown>
tested chemical

> <STRUCTURE_Formula>
C18H14F2N4O

> <STRUCTURE_MW>
340.3268

> <STRUCTURE_ChemType>
defined organic

> <STRUCTURE_DefinedOrganicForm>
parent

> <STRUCTURE_IUPAC>
6-[4-(2,5-difluorophenyl)-1,3-oxazol-5-yl]-3-(propan-2-yl)[1,2,4]triazolo[4,3-a]pyridine

> <STRUCTURE_SMILES>
CC(C)c2nnc1ccc(cn12)c4ocnc4c3cc(F)ccc3F

> <STRUCTURE_SMILES_Desalt>
CC(C)c2nnc1ccc(cn12)c4ocnc4c3cc(F)ccc3F

> <Substance_modify_yyyymmdd>
20130910

$$$$
