66898-62-2
ChemmineR-0915142007XD

 30 33  0  0  0  0  0  0  0  0  1 V2000
    4.4965   -2.6071    0.0000 C   0  0  0  0  0  0  0  0  0  0  0  0
    4.4965   -3.8960    0.0000 O   0  0  0  0  0  0  0  0  0  0  0  0
    3.3687   -4.5404    0.0000 C   0  0  0  0  0  0  0  0  0  0  0  0
    6.7374   -2.6071    0.0000 C   0  0  0  0  0  0  0  0  0  0  0  0
    7.8651   -1.9626    0.0000 C   0  0  0  0  0  0  0  0  0  0  0  0
    8.9783   -2.6071    0.0000 C   0  0  0  0  0  0  0  0  0  0  0  0
    5.5949   -1.9626    0.0000 O   0  0  0  0  0  0  0  0  0  0  0  0
   13.4894   -3.8520    0.0000 C   0  0  0  0  0  0  0  0  0  0  0  0
    2.2409   -2.6071    0.0000 C   0  0  0  0  0  0  0  0  0  0  0  0
    2.2409   -3.8960    0.0000 C   0  0  0  0  0  0  0  0  0  0  0  0
    8.9783   -3.8960    0.0000 N   0  0  0  0  0  0  0  0  0  0  0  0
   12.3323   -4.5404    0.0000 C   0  0  0  0  0  0  0  0  0  0  0  0
   10.0914   -1.9626    0.0000 N   0  0  0  0  0  0  0  0  0  0  0  0
    3.3687   -5.8586    0.0000 O   0  0  0  0  0  0  0  0  0  0  0  0
    6.7374   -3.8960    0.0000 O   0  0  0  0  0  0  0  0  0  0  0  0
   10.0914   -4.5404    0.0000 C   0  0  0  0  0  0  0  0  0  0  0  0
   11.2192   -3.8960    0.0000 C   0  0  0  0  0  0  0  0  0  0  0  0
   14.6464   -3.1929    0.0000 F   0  0  0  0  0  0  0  0  0  0  0  0
   12.8156   -2.7389    0.0000 F   0  0  0  0  0  0  0  0  0  0  0  0
   14.1631   -5.0237    0.0000 F   0  0  0  0  0  0  0  0  0  0  0  0
    7.8651   -0.6298    0.0000 C   0  0  0  0  0  0  0  0  0  0  0  0
    1.1278   -4.5404    0.0000 C   0  0  0  0  0  0  0  0  0  0  0  0
    1.1278   -1.9626    0.0000 C   0  0  0  0  0  0  0  0  0  0  0  0
   12.3323   -5.8586    0.0000 C   0  0  0  0  0  0  0  0  0  0  0  0
   11.2192   -6.5030    0.0000 C   0  0  0  0  0  0  0  0  0  0  0  0
   10.0914   -0.6298    0.0000 C   0  0  0  0  0  0  0  0  0  0  0  0
   10.0914   -5.8586    0.0000 C   0  0  0  0  0  0  0  0  0  0  0  0
    8.9783    0.0000    0.0000 C   0  0  0  0  0  0  0  0  0  0  0  0
    0.0000   -2.6071    0.0000 C   0  0  0  0  0  0  0  0  0  0  0  0
    0.0000   -3.8960    0.0000 C   0  0  0  0  0  0  0  0  0  0  0  0
  1  2  1  0  0  0  0
  1  7  1  0  0  0  0
  1  9  1  0  0  0  0
  2  3  1  0  0  0  0
  3 14  2  0  0  0  0
  3 10  1  0  0  0  0
  4  7  1  0  0  0  0
  4  5  1  0  0  0  0
  4 15  2  0  0  0  0
  5  6  2  0  0  0  0
  5 21  1  0  0  0  0
  6 11  1  0  0  0  0
  6 13  1  0  0  0  0
  8 12  1  0  0  0  0
  8 18  1  0  0  0  0
  8 19  1  0  0  0  0
  8 20  1  0  0  0  0
  9 10  2  0  0  0  0
  9 23  1  0  0  0  0
 10 22  1  0  0  0  0
 11 16  1  0  0  0  0
 12 17  2  0  0  0  0
 12 24  1  0  0  0  0
 13 26  2  0  0  0  0
 16 17  1  0  0  0  0
 16 27  2  0  0  0  0
 21 28  2  0  0  0  0
 22 30  2  0  0  0  0
 23 29  2  0  0  0  0
 24 25  2  0  0  0  0
 25 27  1  0  0  0  0
 26 28  1  0  0  0  0
 29 30  1  0  0  0  0
M  END
> <ID>
11933

> <Formula>
C21H13F3N2O4

> <FW>
414.3341

> <DSSTox_CID>
26740

> <DSSTox_RID>
81869

> <DSSTox_GSID>
46740

> <DSSTox_FileID_Sort>
6550

> <TS_ChemName>
Talniflumate

> <TS_ChemName_Synonyms>


> <TS_CASRN>
66898-62-2

> <CASRN_ChemName_Relationship>
primary

> <TS_Description>
single chemical compound

> <ChemNote>


> <STRUCTURE_Shown>
tested chemical

> <STRUCTURE_Formula>
C21H13F3N2O4

> <STRUCTURE_MW>
414.3341

> <STRUCTURE_ChemType>
defined organic

> <STRUCTURE_DefinedOrganicForm>
parent

> <STRUCTURE_IUPAC>
3-oxo-1,3-dihydro-2-benzofuran-1-yl 2-{[3-(trifluoromethyl)phenyl]amino}pyridine-3-carboxylate

> <STRUCTURE_SMILES>
FC(F)(F)c1cc(ccc1)Nc2ncccc2C(=O)OC4OC(=O)c3ccccc34

> <STRUCTURE_SMILES_Desalt>
FC(F)(F)c1cc(ccc1)Nc2ncccc2C(=O)OC4OC(=O)c3ccccc34

> <Substance_modify_yyyymmdd>
20110803

$$$$
