66985-17-9
ChemmineR-0915142007XD

 26 26  0  0  0  0  0  0  0  0  2 V2000
    3.3668   -1.3376    0.0000 Br   0  5  0  0  0  0  0  0  0  0  0  0
    2.9360   -3.0380    0.0000 C    0  0  0  0  0  0  0  0  0  0  0  0
    4.6591   -4.3190    0.0000 C    0  0  0  0  0  0  0  0  0  0  0  0
    3.8202   -3.6275    0.0000 C    0  0  0  0  0  0  0  0  0  0  0  0
    2.2445   -3.6275    0.0000 C    0  0  0  0  0  0  0  0  0  0  0  0
    2.0178   -2.3125    0.0000 N    0  3  0  0  0  0  0  0  0  0  0  0
    4.3643   -3.0040    0.0000 C    0  0  0  0  0  0  0  0  0  0  0  0
    1.4057   -4.7951    0.0000 C    0  0  0  0  0  0  0  0  0  0  0  0
    2.4032   -4.1830    0.0000 C    0  0  0  0  0  0  0  0  0  0  0  0
    1.3376   -1.1676    0.0000 C    0  0  0  0  0  0  0  0  0  0  0  0
    0.7595   -2.7886    0.0000 C    0  0  0  0  0  0  0  0  0  0  0  0
    1.9838    0.0000    0.0000 C    0  0  0  0  0  0  0  0  0  0  0  0
    0.0000   -1.1789    0.0000 C    0  0  0  0  0  0  0  0  0  0  0  0
    5.3165   -5.4866    0.0000 O    0  0  0  0  0  0  0  0  0  0  0  0
    6.6542   -5.4866    0.0000 C    0  0  0  0  0  0  0  0  0  0  0  0
    7.3230   -6.6429    0.0000 C    0  0  0  0  0  0  0  0  0  0  0  0
    8.6606   -6.6429    0.0000 C    0  0  0  0  0  0  0  0  0  0  0  0
    9.3181   -5.4866    0.0000 C    0  0  0  0  0  0  0  0  0  0  0  0
    9.3181   -7.8105    0.0000 C    0  0  0  0  0  0  0  0  0  0  0  0
   10.6558   -5.4866    0.0000 C    0  0  0  0  0  0  0  0  0  0  0  0
   10.6558   -7.8105    0.0000 C    0  0  0  0  0  0  0  0  0  0  0  0
   11.3359   -6.6429    0.0000 C    0  0  0  0  0  0  0  0  0  0  0  0
    6.6542   -7.8105    0.0000 C    0  0  0  0  0  0  0  0  0  0  0  0
    7.3230   -8.9667    0.0000 O    0  0  0  0  0  0  0  0  0  0  0  0
    7.3230   -4.3190    0.0000 O    0  0  0  0  0  0  0  0  0  0  0  0
    2.4032   -6.0987    0.0000 O    0  0  0  0  0  0  0  0  0  0  0  0
  2  6  1  0  0  0  0
  2  7  1  0  0  0  0
  2  9  1  0  0  0  0
  3  4  1  0  0  0  0
  3  7  1  0  0  0  0
  3 14  1  0  0  0  0
  4  5  1  0  0  0  0
  5  6  1  0  0  0  0
  5  8  1  0  0  0  0
  6 10  1  0  0  0  0
  6 11  1  0  0  0  0
  8  9  1  0  0  0  0
 10 12  1  0  0  0  0
 10 13  1  0  0  0  0
 14 15  1  0  0  0  0
 15 16  1  0  0  0  0
 15 25  2  0  0  0  0
 16 17  1  0  0  0  0
 16 23  1  0  0  0  0
 17 18  1  0  0  0  0
 17 19  2  0  0  0  0
 18 20  2  0  0  0  0
 19 21  1  0  0  0  0
 20 22  1  0  0  0  0
 21 22  2  0  0  0  0
 23 24  1  0  0  0  0
M  END
> <ID>
11182

> <Formula>
C20H32BrNO4

> <FW>
430.3764 (79.9045+332.4566+18.0153)

> <DSSTox_CID>
25772

> <DSSTox_RID>
81114

> <DSSTox_GSID>
45772

> <DSSTox_FileID_Sort>
5795

> <TS_ChemName>
Ipratropium bromide hydrate

> <TS_ChemName_Synonyms>


> <TS_CASRN>
66985-17-9

> <CASRN_ChemName_Relationship>
primary

> <TS_Description>
single chemical compound

> <ChemNote>
ammonium; parent [60205-81-4]

> <STRUCTURE_Shown>
tested chemical

> <STRUCTURE_Formula>
C20H32BrNO4

> <STRUCTURE_MW>
430.3764

> <STRUCTURE_ChemType>
defined organic

> <STRUCTURE_DefinedOrganicForm>
salt complex

> <STRUCTURE_IUPAC>
3-[(3-hydroxy-2-phenylpropanoyl)oxy]-8-methyl-8-(propan-2-yl)-8-azoniabicyclo[3.2.1]octane bromide hydrate (1:1:1)

> <STRUCTURE_SMILES>
[Br-].O.C[N+]2(C1CC(CC2CC1)OC(=O)C(CO)c3ccccc3)C(C)C

> <STRUCTURE_SMILES_Desalt>
C[N+]2(C1CC(CC2CC1)OC(=O)C(CO)c3ccccc3)C(C)C

> <Substance_modify_yyyymmdd>
20120220

$$$$
