67-03-8
ChemmineR-0915142007XD

 20 19  0  0  0  0  0  0  0  0  2 V2000
    5.3744   -2.4196    0.0000 N    0  3  0  0  0  0  0  0  0  0  0  0
    4.1255   -2.8321    0.0000 C    0  0  0  0  0  0  0  0  0  0  0  0
    9.9905   -2.4196    0.0000 N    0  0  0  0  0  0  0  0  0  0  0  0
    5.3744   -1.0927    0.0000 C    0  0  0  0  0  0  0  0  0  0  0  0
    8.8420   -3.0774    0.0000 C    0  0  0  0  0  0  0  0  0  0  0  0
    7.6824   -2.4196    0.0000 C    0  0  0  0  0  0  0  0  0  0  0  0
    4.1032   -0.6802    0.0000 S    0  0  0  0  0  0  0  0  0  0  0  0
    6.5451   -3.0774    0.0000 C    0  0  0  0  0  0  0  0  0  0  0  0
    3.3339   -1.7617    0.0000 C    0  0  0  0  0  0  0  0  0  0  0  0
    8.8420   -0.4126    0.0000 N    0  0  0  0  0  0  0  0  0  0  0  0
    9.9905   -1.0927    0.0000 C    0  0  0  0  0  0  0  0  0  0  0  0
    8.8420   -4.4043    0.0000 N    0  0  0  0  0  0  0  0  0  0  0  0
    7.6824   -1.0927    0.0000 C    0  0  0  0  0  0  0  0  0  0  0  0
    2.0070   -1.7617    0.0000 C    0  0  0  0  0  0  0  0  0  0  0  0
    3.7130   -4.1032    0.0000 C    0  0  0  0  0  0  0  0  0  0  0  0
    0.0000   -0.6244    0.0000 O    0  0  0  0  0  0  0  0  0  0  0  0
   11.1501   -0.4126    0.0000 C    0  0  0  0  0  0  0  0  0  0  0  0
    1.3269   -0.6244    0.0000 C    0  0  0  0  0  0  0  0  0  0  0  0
    5.3632   -3.6572    0.0000 Cl   0  5  0  0  0  0  0  0  0  0  0  0
    6.3667    0.0000    0.0000 Cl   0  0  0  0  0  0  0  0  0  0  0  0
  1  2  1  0  0  0  0
  1  4  2  0  0  0  0
  1  8  1  0  0  0  0
  2  9  2  0  0  0  0
  2 15  1  0  0  0  0
  3  5  2  0  0  0  0
  3 11  1  0  0  0  0
  4  7  1  0  0  0  0
  5  6  1  0  0  0  0
  5 12  1  0  0  0  0
  6  8  1  0  0  0  0
  6 13  2  0  0  0  0
  7  9  1  0  0  0  0
  9 14  1  0  0  0  0
 10 13  1  0  0  0  0
 10 11  2  0  0  0  0
 11 17  1  0  0  0  0
 14 18  1  0  0  0  0
 16 18  1  0  0  0  0
M  END
> <ID>
7836

> <Formula>
C12H18Cl2N4OS

> <FW>
337.2685 (265.3540+35.4535+36.4609)

> <DSSTox_CID>
20622

> <DSSTox_RID>
79516

> <DSSTox_GSID>
40622

> <DSSTox_FileID_Sort>
4198

> <TS_ChemName>
Thiamine hydrochloride

> <TS_ChemName_Synonyms>


> <TS_CASRN>
67-03-8

> <CASRN_ChemName_Relationship>
primary

> <TS_Description>
single chemical compound

> <ChemNote>
parent [59-43-8]

> <STRUCTURE_Shown>
tested chemical

> <STRUCTURE_Formula>
C12H18Cl2N4OS

> <STRUCTURE_MW>
337.2685

> <STRUCTURE_ChemType>
defined organic

> <STRUCTURE_DefinedOrganicForm>
salt

> <STRUCTURE_IUPAC>
3-[(4-amino-2-methylpyrimidin-5-yl)methyl]-5-(2-hydroxyethyl)-4-methyl-1,3-thiazol-3-ium chloride hydrochloride (1:1:1)

> <STRUCTURE_SMILES>
[Cl-].Cl.Cc2nc(N)c(C[n+]1csc(CCO)c1C)cn2

> <STRUCTURE_SMILES_Desalt>
Cc2nc(N)c(C[n+]1csc(CCO)c1C)cn2

> <Substance_modify_yyyymmdd>
20080429

$$$$
