67-16-3
ChemmineR-0915142007XD

 38 39  0  0  0  0  0  0  0  0  1 V2000
    0.0000   -2.3083    0.0000 N   0  0  0  0  0  0  0  0  0  0  0  0
   14.6093   -2.3083    0.0000 N   0  0  0  0  0  0  0  0  0  0  0  0
    1.9869   -3.4624    0.0000 C   0  0  0  0  0  0  0  0  0  0  0  0
   12.6078   -3.4624    0.0000 C   0  0  0  0  0  0  0  0  0  0  0  0
    0.6574   -3.4624    0.0000 C   0  0  0  0  0  0  0  0  0  0  0  0
   13.9372   -3.4624    0.0000 C   0  0  0  0  0  0  0  0  0  0  0  0
    3.9883   -4.6165    0.0000 N   0  0  0  0  0  0  0  0  0  0  0  0
   10.6209   -4.6165    0.0000 N   0  0  0  0  0  0  0  0  0  0  0  0
    9.9489   -5.7853    0.0000 C   0  0  0  0  0  0  0  0  0  0  0  0
    4.6457   -5.7853    0.0000 C   0  0  0  0  0  0  0  0  0  0  0  0
    8.6195   -5.7853    0.0000 C   0  0  0  0  0  0  0  0  0  0  0  0
    5.9606   -5.7853    0.0000 C   0  0  0  0  0  0  0  0  0  0  0  0
    2.6589   -4.6165    0.0000 C   0  0  0  0  0  0  0  0  0  0  0  0
   11.9504   -4.6165    0.0000 C   0  0  0  0  0  0  0  0  0  0  0  0
    7.9620   -4.6165    0.0000 S   0  0  0  0  0  0  0  0  0  0  0  0
    6.6472   -4.6165    0.0000 S   0  0  0  0  0  0  0  0  0  0  0  0
   12.6078   -1.1687    0.0000 N   0  0  0  0  0  0  0  0  0  0  0  0
    1.9869   -1.1687    0.0000 N   0  0  0  0  0  0  0  0  0  0  0  0
    0.6574   -1.1687    0.0000 C   0  0  0  0  0  0  0  0  0  0  0  0
   13.9372   -1.1687    0.0000 C   0  0  0  0  0  0  0  0  0  0  0  0
    9.9489   -3.4624    0.0000 C   0  0  0  0  0  0  0  0  0  0  0  0
    4.6457   -3.4624    0.0000 C   0  0  0  0  0  0  0  0  0  0  0  0
    2.6589   -2.3083    0.0000 C   0  0  0  0  0  0  0  0  0  0  0  0
   11.9504   -2.3083    0.0000 C   0  0  0  0  0  0  0  0  0  0  0  0
   10.6209   -2.3083    0.0000 O   0  0  0  0  0  0  0  0  0  0  0  0
    3.9883   -2.3083    0.0000 O   0  0  0  0  0  0  0  0  0  0  0  0
    0.0000   -4.6165    0.0000 N   0  0  0  0  0  0  0  0  0  0  0  0
   14.6093   -4.6165    0.0000 N   0  0  0  0  0  0  0  0  0  0  0  0
    7.9620   -6.9248    0.0000 C   0  0  0  0  0  0  0  0  0  0  0  0
    6.6472   -6.9248    0.0000 C   0  0  0  0  0  0  0  0  0  0  0  0
   10.6209   -6.9248    0.0000 C   0  0  0  0  0  0  0  0  0  0  0  0
    3.9883   -6.9248    0.0000 C   0  0  0  0  0  0  0  0  0  0  0  0
    9.9489   -8.0789    0.0000 O   0  0  0  0  0  0  0  0  0  0  0  0
    4.6457   -8.0789    0.0000 O   0  0  0  0  0  0  0  0  0  0  0  0
   14.6093    0.0000    0.0000 C   0  0  0  0  0  0  0  0  0  0  0  0
    0.0000    0.0000    0.0000 C   0  0  0  0  0  0  0  0  0  0  0  0
    5.9606   -8.0789    0.0000 C   0  0  0  0  0  0  0  0  0  0  0  0
    8.6195   -8.0789    0.0000 C   0  0  0  0  0  0  0  0  0  0  0  0
  1  5  1  0  0  0  0
  1 19  2  0  0  0  0
  2  6  1  0  0  0  0
  2 20  2  0  0  0  0
  3  5  2  0  0  0  0
  3 13  1  0  0  0  0
  3 23  1  0  0  0  0
  4 14  1  0  0  0  0
  4  6  2  0  0  0  0
  4 24  1  0  0  0  0
  5 27  1  0  0  0  0
  6 28  1  0  0  0  0
  7 13  1  0  0  0  0
  7 10  1  0  0  0  0
  7 22  1  0  0  0  0
  8  9  1  0  0  0  0
  8 14  1  0  0  0  0
  8 21  1  0  0  0  0
  9 11  2  3  0  0  0
  9 31  1  0  0  0  0
 10 12  2  3  0  0  0
 10 32  1  0  0  0  0
 11 15  1  0  0  0  0
 11 29  1  0  0  0  0
 12 16  1  0  0  0  0
 12 30  1  0  0  0  0
 15 16  1  0  0  0  0
 17 24  2  0  0  0  0
 17 20  1  0  0  0  0
 18 19  1  0  0  0  0
 18 23  2  0  0  0  0
 19 36  1  0  0  0  0
 20 35  1  0  0  0  0
 21 25  2  0  0  0  0
 22 26  2  0  0  0  0
 29 38  1  0  0  0  0
 30 37  1  0  0  0  0
 33 38  1  0  0  0  0
 34 37  1  0  0  0  0
M  END
> <ID>
12056

> <Formula>
C24H34N8O4S2

> <FW>
562.708

> <DSSTox_CID>
26890

> <DSSTox_RID>
81993

> <DSSTox_GSID>
46890

> <DSSTox_FileID_Sort>
6674

> <TS_ChemName>
Thiamine disulfide

> <TS_ChemName_Synonyms>


> <TS_CASRN>
67-16-3

> <CASRN_ChemName_Relationship>
primary

> <TS_Description>
mixture of Z,E isomers

> <ChemNote>
mixture of Z,E isomers

> <STRUCTURE_Shown>
representative isomer in mixture

> <STRUCTURE_Formula>
C24H34N8O4S2

> <STRUCTURE_MW>
562.708

> <STRUCTURE_ChemType>
defined organic

> <STRUCTURE_DefinedOrganicForm>
parent

> <STRUCTURE_IUPAC>
N,N'-[disulfanediylbis(5-hydroxypent-2-ene-3,2-diyl)]bis{N-[(4-amino-2-methylpyrimidin-5-yl)methyl]formamide}

> <STRUCTURE_SMILES>
Nc2nc(C)ncc2CN(C=O)C(C)=C(CCO)SSC(CCO)=C(C)N(C=O)Cc1cnc(C)nc1N

> <STRUCTURE_SMILES_Desalt>
Nc2nc(C)ncc2CN(C=O)C(C)=C(CCO)SSC(CCO)=C(C)N(C=O)Cc1cnc(C)nc1N

> <Substance_modify_yyyymmdd>
20110727

$$$$
