67-28-7
ChemmineR-0915142007XD

 14 14  0  0  0  0  0  0  0  0  2 V2000
    2.2749   -1.7191    0.0000 C   0  0  0  0  0  0  0  0  0  0  0  0
    1.0088   -1.2970    0.0000 N   0  3  0  0  0  0  0  0  0  0  0  0
    3.3558   -0.9161    0.0000 O   0  0  0  0  0  0  0  0  0  0  0  0
    2.6661   -2.9646    0.0000 C   0  0  0  0  0  0  0  0  0  0  0  0
    4.4057   -1.7191    0.0000 C   0  0  0  0  0  0  0  0  0  0  0  0
    6.8350   -1.9867    0.0000 N   0  0  0  0  0  0  0  0  0  0  0  0
    4.0043   -2.9646    0.0000 C   0  0  0  0  0  0  0  0  0  0  0  0
    0.7206    0.0000    0.0000 O   0  5  0  0  0  0  0  0  0  0  0  0
    0.0000   -2.1823    0.0000 O   0  0  0  0  0  0  0  0  0  0  0  0
    5.6719   -1.3279    0.0000 C   0  0  0  0  0  0  0  0  0  0  0  0
    9.1511   -1.9867    0.0000 C   0  0  0  0  0  0  0  0  0  0  0  0
    7.9879   -1.3279    0.0000 N   0  0  0  0  0  0  0  0  0  0  0  0
    9.1511   -3.3352    0.0000 O   0  0  0  0  0  0  0  0  0  0  0  0
   10.2937   -1.3279    0.0000 C   0  0  0  0  0  0  0  0  0  0  0  0
  1  2  1  0  0  0  0
  1  3  1  0  0  0  0
  1  4  2  0  0  0  0
  2  8  1  0  0  0  0
  2  9  2  0  0  0  0
  3  5  1  0  0  0  0
  4  7  1  0  0  0  0
  5 10  1  0  0  0  0
  5  7  2  0  0  0  0
  6 10  2  0  0  0  0
  6 12  1  0  0  0  0
 11 12  1  0  0  0  0
 11 13  2  0  0  0  0
 11 14  1  0  0  0  0
M  END
> <ID>
11645

> <Formula>
C7H7N3O4

> <FW>
197.1482

> <DSSTox_CID>
26398

> <DSSTox_RID>
81578

> <DSSTox_GSID>
46398

> <DSSTox_FileID_Sort>
6259

> <TS_ChemName>
Nihydrazone

> <TS_ChemName_Synonyms>


> <TS_CASRN>
67-28-7

> <CASRN_ChemName_Relationship>
primary

> <TS_Description>
single chemical compound

> <ChemNote>


> <STRUCTURE_Shown>
tested chemical

> <STRUCTURE_Formula>
C7H7N3O4

> <STRUCTURE_MW>
197.1482

> <STRUCTURE_ChemType>
defined organic

> <STRUCTURE_DefinedOrganicForm>
parent

> <STRUCTURE_IUPAC>
N'-[(E)-(5-nitrofuran-2-yl)methylidene]acetohydrazide

> <STRUCTURE_SMILES>
O=[N+]([O-])c1ccc(/C=N/NC(C)=O)o1

> <STRUCTURE_SMILES_Desalt>
O=[N+]([O-])c1ccc(/C=N/NC(C)=O)o1

> <Substance_modify_yyyymmdd>
20110814

$$$$
