67-30-1
ChemmineR-0915142007XD

 22 23  0  0  0  0  0  0  0  0  1 V2000
    8.0715   -2.0035    0.0000 C   0  0  0  0  0  0  0  0  0  0  0  0
    6.9085   -1.3241    0.0000 C   0  0  0  0  0  0  0  0  0  0  0  0
    5.7571   -2.0035    0.0000 C   0  0  0  0  0  0  0  0  0  0  0  0
    5.7571   -3.3276    0.0000 C   0  0  0  0  0  0  0  0  0  0  0  0
    6.9085   -3.9839    0.0000 C   0  0  0  0  0  0  0  0  0  0  0  0
    8.0715   -3.3276    0.0000 C   0  0  0  0  0  0  0  0  0  0  0  0
   10.3743   -2.0035    0.0000 C   0  0  0  0  0  0  0  0  0  0  0  0
   10.3743   -3.3276    0.0000 O   0  0  0  0  0  0  0  0  0  0  0  0
   11.5142   -1.3241    0.0000 O   0  0  0  0  0  0  0  0  0  0  0  0
    9.2229   -1.3241    0.0000 C   0  0  0  0  0  0  0  0  0  0  0  0
    4.6057   -3.9839    0.0000 O   0  0  0  0  0  0  0  0  0  0  0  0
    3.4428   -3.3276    0.0000 C   0  0  0  0  0  0  0  0  0  0  0  0
    3.4428   -2.0035    0.0000 C   0  0  0  0  0  0  0  0  0  0  0  0
    2.2913   -3.9839    0.0000 C   0  0  0  0  0  0  0  0  0  0  0  0
    2.2913   -1.3241    0.0000 C   0  0  0  0  0  0  0  0  0  0  0  0
    1.1514   -3.3276    0.0000 C   0  0  0  0  0  0  0  0  0  0  0  0
    1.1514   -2.0035    0.0000 C   0  0  0  0  0  0  0  0  0  0  0  0
    0.0000   -1.3241    0.0000 O   0  0  0  0  0  0  0  0  0  0  0  0
    2.2913    0.0000    0.0000 I   0  0  0  0  0  0  0  0  0  0  0  0
    0.0000   -3.9839    0.0000 I   0  0  0  0  0  0  0  0  0  0  0  0
    6.9085   -5.3196    0.0000 I   0  0  0  0  0  0  0  0  0  0  0  0
    4.6057   -1.3241    0.0000 I   0  0  0  0  0  0  0  0  0  0  0  0
  1  2  2  0  0  0  0
  1  6  1  0  0  0  0
  1 10  1  0  0  0  0
  2  3  1  0  0  0  0
  3  4  2  0  0  0  0
  3 22  1  0  0  0  0
  4  5  1  0  0  0  0
  4 11  1  0  0  0  0
  5  6  2  0  0  0  0
  5 21  1  0  0  0  0
  7  8  2  0  0  0  0
  7  9  1  0  0  0  0
  7 10  1  0  0  0  0
 11 12  1  0  0  0  0
 12 13  2  0  0  0  0
 12 14  1  0  0  0  0
 13 15  1  0  0  0  0
 14 16  2  0  0  0  0
 15 17  2  0  0  0  0
 15 19  1  0  0  0  0
 16 17  1  0  0  0  0
 16 20  1  0  0  0  0
 17 18  1  0  0  0  0
M  END
> <ID>
13247

> <Formula>
C14H8I4O4

> <FW>
747.8288

> <DSSTox_CID>
28160

> <DSSTox_RID>
82722

> <DSSTox_GSID>
48186

> <DSSTox_FileID_Sort>
7399

> <TS_ChemName>
3,3?,5,5?-Tetraiodothyroacetic acid

> <TS_ChemName_Synonyms>
3,3?,5,5?-Tetraiodothyroacetic acid (Tetrac)

> <TS_CASRN>
67-30-1

> <CASRN_ChemName_Relationship>
primary

> <TS_Description>
single chemical compound

> <ChemNote>


> <STRUCTURE_Shown>
tested chemical

> <STRUCTURE_Formula>
C14H8I4O4

> <STRUCTURE_MW>
747.8288

> <STRUCTURE_ChemType>
defined organic

> <STRUCTURE_DefinedOrganicForm>
parent

> <STRUCTURE_IUPAC>
[4-(4-hydroxy-3,5-diiodophenoxy)-3,5-diiodophenyl]acetic acid

> <STRUCTURE_SMILES>
O=C(O)Cc2cc(I)c(Oc1cc(I)c(O)c(I)c1)c(I)c2

> <STRUCTURE_SMILES_Desalt>
O=C(O)Cc2cc(I)c(Oc1cc(I)c(O)c(I)c1)c(I)c2

> <Substance_modify_yyyymmdd>
20110628

$$$$
