67-43-6
ChemmineR-0915142007XD

 27 26  0  0  0  0  0  0  0  0  1 V2000
    9.2063   -1.9882    0.0000 O   0  0  0  0  0  0  0  0  0  0  0  0
    8.0539   -1.3297    0.0000 C   0  0  0  0  0  0  0  0  0  0  0  0
    8.0539    0.0000    0.0000 O   0  0  0  0  0  0  0  0  0  0  0  0
    6.9016   -1.9882    0.0000 C   0  0  0  0  0  0  0  0  0  0  0  0
    6.9016   -3.3178    0.0000 N   0  0  0  0  0  0  0  0  0  0  0  0
    5.7619   -3.9890    0.0000 C   0  0  0  0  0  0  0  0  0  0  0  0
    4.6095   -3.3178    0.0000 C   0  0  0  0  0  0  0  0  0  0  0  0
    3.4571   -3.9890    0.0000 N   0  0  0  0  0  0  0  0  0  0  0  0
    2.3047   -3.3178    0.0000 C   0  0  0  0  0  0  0  0  0  0  0  0
    1.1524   -3.9890    0.0000 C   0  0  0  0  0  0  0  0  0  0  0  0
    0.0000   -3.3178    0.0000 O   0  0  0  0  0  0  0  0  0  0  0  0
    1.1524   -5.3186    0.0000 O   0  0  0  0  0  0  0  0  0  0  0  0
    3.4571   -5.3186    0.0000 C   0  0  0  0  0  0  0  0  0  0  0  0
    4.6095   -5.9771    0.0000 C   0  0  0  0  0  0  0  0  0  0  0  0
    5.7619   -5.3186    0.0000 O   0  0  0  0  0  0  0  0  0  0  0  0
    4.6095   -7.3068    0.0000 O   0  0  0  0  0  0  0  0  0  0  0  0
    8.0539   -3.9890    0.0000 C   0  0  0  0  0  0  0  0  0  0  0  0
    9.2063   -3.3178    0.0000 C   0  0  0  0  0  0  0  0  0  0  0  0
   10.3587   -3.9890    0.0000 N   0  0  0  0  0  0  0  0  0  0  0  0
   11.5110   -3.3178    0.0000 C   0  0  0  0  0  0  0  0  0  0  0  0
   11.5110   -1.9882    0.0000 C   0  0  0  0  0  0  0  0  0  0  0  0
   12.6634   -1.3297    0.0000 O   0  0  0  0  0  0  0  0  0  0  0  0
   10.3587   -1.3297    0.0000 O   0  0  0  0  0  0  0  0  0  0  0  0
   10.3587   -5.3186    0.0000 C   0  0  0  0  0  0  0  0  0  0  0  0
   11.5110   -5.9771    0.0000 C   0  0  0  0  0  0  0  0  0  0  0  0
   12.6634   -5.3186    0.0000 O   0  0  0  0  0  0  0  0  0  0  0  0
   11.5110   -7.3068    0.0000 O   0  0  0  0  0  0  0  0  0  0  0  0
  1  2  1  0  0  0  0
  2  3  2  0  0  0  0
  2  4  1  0  0  0  0
  4  5  1  0  0  0  0
  5  6  1  0  0  0  0
  5 17  1  0  0  0  0
  6  7  1  0  0  0  0
  7  8  1  0  0  0  0
  8  9  1  0  0  0  0
  8 13  1  0  0  0  0
  9 10  1  0  0  0  0
 10 11  1  0  0  0  0
 10 12  2  0  0  0  0
 13 14  1  0  0  0  0
 14 15  1  0  0  0  0
 14 16  2  0  0  0  0
 17 18  1  0  0  0  0
 18 19  1  0  0  0  0
 19 20  1  0  0  0  0
 19 24  1  0  0  0  0
 20 21  1  0  0  0  0
 21 22  1  0  0  0  0
 21 23  2  0  0  0  0
 24 25  1  0  0  0  0
 25 26  1  0  0  0  0
 25 27  2  0  0  0  0
M  END
> <ID>
3080

> <Formula>
C14H23N3O10

> <FW>
393.3465

> <DSSTox_CID>
3434

> <DSSTox_RID>
77025

> <DSSTox_GSID>
23434

> <DSSTox_FileID_Sort>
1709

> <TS_ChemName>
Pentetic acid

> <TS_ChemName_Synonyms>


> <TS_CASRN>
67-43-6

> <CASRN_ChemName_Relationship>
primary

> <TS_Description>
single chemical compound

> <ChemNote>


> <STRUCTURE_Shown>
tested chemical

> <STRUCTURE_Formula>
C14H23N3O10

> <STRUCTURE_MW>
393.3465

> <STRUCTURE_ChemType>
defined organic

> <STRUCTURE_DefinedOrganicForm>
parent

> <STRUCTURE_IUPAC>
N,N-bis{2-[bis(carboxymethyl)amino]ethyl}glycine

> <STRUCTURE_SMILES>
O=C(O)CN(CCN(CC(=O)O)CC(=O)O)CCN(CC(=O)O)CC(=O)O

> <STRUCTURE_SMILES_Desalt>
O=C(O)CN(CCN(CC(=O)O)CC(=O)O)CCN(CC(=O)O)CC(=O)O

> <Substance_modify_yyyymmdd>
20080429

$$$$
