67-42-5
ChemmineR-0915142007XD

 26 25  0  0  0  0  0  0  0  0  1 V2000
    2.3082   -5.9952    0.0000 O   0  0  0  0  0  0  0  0  0  0  0  0
    1.1541   -5.3208    0.0000 C   0  0  0  0  0  0  0  0  0  0  0  0
    0.0000   -5.9952    0.0000 O   0  0  0  0  0  0  0  0  0  0  0  0
    1.1541   -3.9868    0.0000 C   0  0  0  0  0  0  0  0  0  0  0  0
    2.3082   -3.3274    0.0000 N   0  0  0  0  0  0  0  0  0  0  0  0
    3.4473   -3.9868    0.0000 C   0  0  0  0  0  0  0  0  0  0  0  0
    4.6013   -3.3274    0.0000 C   0  0  0  0  0  0  0  0  0  0  0  0
    5.7554   -3.9868    0.0000 O   0  0  0  0  0  0  0  0  0  0  0  0
    6.9095   -3.3274    0.0000 C   0  0  0  0  0  0  0  0  0  0  0  0
    8.0786   -3.9868    0.0000 C   0  0  0  0  0  0  0  0  0  0  0  0
    9.2327   -3.3274    0.0000 O   0  0  0  0  0  0  0  0  0  0  0  0
   10.3868   -3.9868    0.0000 C   0  0  0  0  0  0  0  0  0  0  0  0
   11.5408   -3.3274    0.0000 C   0  0  0  0  0  0  0  0  0  0  0  0
   12.6949   -3.9868    0.0000 N   0  0  0  0  0  0  0  0  0  0  0  0
   13.8340   -3.3274    0.0000 C   0  0  0  0  0  0  0  0  0  0  0  0
   13.8340   -2.0084    0.0000 C   0  0  0  0  0  0  0  0  0  0  0  0
   14.9881   -1.3339    0.0000 O   0  0  0  0  0  0  0  0  0  0  0  0
   12.6949   -1.3339    0.0000 O   0  0  0  0  0  0  0  0  0  0  0  0
   12.6949   -5.3208    0.0000 C   0  0  0  0  0  0  0  0  0  0  0  0
   13.8340   -5.9952    0.0000 C   0  0  0  0  0  0  0  0  0  0  0  0
   14.9881   -5.3208    0.0000 O   0  0  0  0  0  0  0  0  0  0  0  0
   13.8340   -7.3292    0.0000 O   0  0  0  0  0  0  0  0  0  0  0  0
    2.3082   -2.0084    0.0000 C   0  0  0  0  0  0  0  0  0  0  0  0
    1.1541   -1.3339    0.0000 C   0  0  0  0  0  0  0  0  0  0  0  0
    0.0000   -2.0084    0.0000 O   0  0  0  0  0  0  0  0  0  0  0  0
    1.1541    0.0000    0.0000 O   0  0  0  0  0  0  0  0  0  0  0  0
  1  2  1  0  0  0  0
  2  3  2  0  0  0  0
  2  4  1  0  0  0  0
  4  5  1  0  0  0  0
  5  6  1  0  0  0  0
  5 23  1  0  0  0  0
  6  7  1  0  0  0  0
  7  8  1  0  0  0  0
  8  9  1  0  0  0  0
  9 10  1  0  0  0  0
 10 11  1  0  0  0  0
 11 12  1  0  0  0  0
 12 13  1  0  0  0  0
 13 14  1  0  0  0  0
 14 15  1  0  0  0  0
 14 19  1  0  0  0  0
 15 16  1  0  0  0  0
 16 17  1  0  0  0  0
 16 18  2  0  0  0  0
 19 20  1  0  0  0  0
 20 21  1  0  0  0  0
 20 22  2  0  0  0  0
 23 24  1  0  0  0  0
 24 25  1  0  0  0  0
 24 26  2  0  0  0  0
M  END
> <ID>
10774

> <Formula>
C14H24N2O10

> <FW>
380.3478

> <DSSTox_CID>
25151

> <DSSTox_RID>
80705

> <DSSTox_GSID>
45151

> <DSSTox_FileID_Sort>
5386

> <TS_ChemName>
Egtazic Acid

> <TS_ChemName_Synonyms>


> <TS_CASRN>
67-42-5

> <CASRN_ChemName_Relationship>
primary

> <TS_Description>
single chemical compound

> <ChemNote>


> <STRUCTURE_Shown>
tested chemical

> <STRUCTURE_Formula>
C14H24N2O10

> <STRUCTURE_MW>
380.3478

> <STRUCTURE_ChemType>
defined organic

> <STRUCTURE_DefinedOrganicForm>
parent

> <STRUCTURE_IUPAC>
3,12-bis(carboxymethyl)-6,9-dioxa-3,12-diazatetradecane-1,14-dioic acid

> <STRUCTURE_SMILES>
O=C(O)CN(CC(=O)O)CCOCCOCCN(CC(=O)O)CC(=O)O

> <STRUCTURE_SMILES_Desalt>
O=C(O)CN(CC(=O)O)CCOCCOCCN(CC(=O)O)CC(=O)O

> <Substance_modify_yyyymmdd>
20100107

$$$$
