67-52-7
ChemmineR-0915142007XD

  9  9  0  0  0  0  0  0  0  0  1 V2000
    0.0000   -2.3037    0.0000 O   0  0  0  0  0  0  0  0  0  0  0  0
    1.3315   -2.3037    0.0000 C   0  0  0  0  0  0  0  0  0  0  0  0
    1.9950   -1.1518    0.0000 C   0  0  0  0  0  0  0  0  0  0  0  0
    3.3265   -1.1518    0.0000 C   0  0  0  0  0  0  0  0  0  0  0  0
    3.9899    0.0000    0.0000 O   0  0  0  0  0  0  0  0  0  0  0  0
    3.9899   -2.3037    0.0000 N   0  0  0  0  0  0  0  0  0  0  0  0
    3.3265   -3.4555    0.0000 C   0  0  0  0  0  0  0  0  0  0  0  0
    3.9899   -4.6073    0.0000 O   0  0  0  0  0  0  0  0  0  0  0  0
    1.9950   -3.4555    0.0000 N   0  0  0  0  0  0  0  0  0  0  0  0
  1  2  2  0  0  0  0
  2  3  1  0  0  0  0
  2  9  1  0  0  0  0
  3  4  1  0  0  0  0
  4  5  2  0  0  0  0
  4  6  1  0  0  0  0
  6  7  1  0  0  0  0
  7  8  2  0  0  0  0
  7  9  1  0  0  0  0
M  END
> <ID>
126

> <Formula>
C4H4N2O3

> <FW>
128.0862

> <DSSTox_CID>
129

> <DSSTox_RID>
75388

> <DSSTox_GSID>
20129

> <DSSTox_FileID_Sort>
72

> <TS_ChemName>
Barbituric acid

> <TS_ChemName_Synonyms>


> <TS_CASRN>
67-52-7

> <CASRN_ChemName_Relationship>
primary

> <TS_Description>
single chemical compound

> <ChemNote>


> <STRUCTURE_Shown>
tested chemical

> <STRUCTURE_Formula>
C4H4N2O3

> <STRUCTURE_MW>
128.0862

> <STRUCTURE_ChemType>
defined organic

> <STRUCTURE_DefinedOrganicForm>
parent

> <STRUCTURE_IUPAC>
pyrimidine-2,4,6(1H,3H,5H)-trione

> <STRUCTURE_SMILES>
O=C1CC(=O)NC(=O)N1

> <STRUCTURE_SMILES_Desalt>
O=C1CC(=O)NC(=O)N1

> <Substance_modify_yyyymmdd>
20080429

$$$$
