67-64-1
ChemmineR-0915142007XD

  4  3  0  0  0  0  0  0  0  0  1 V2000
    1.9950    0.0000    0.0000 C   0  0  0  0  0  0  0  0  0  0  0  0
    1.3292   -1.1518    0.0000 C   0  0  0  0  0  0  0  0  0  0  0  0
    1.9950   -2.3037    0.0000 C   0  0  0  0  0  0  0  0  0  0  0  0
    0.0000   -1.1518    0.0000 O   0  0  0  0  0  0  0  0  0  0  0  0
  1  2  1  0  0  0  0
  2  3  1  0  0  0  0
  2  4  2  0  0  0  0
M  END
> <ID>
1423

> <Formula>
C3H6O

> <FW>
58.0791

> <DSSTox_CID>
1482

> <DSSTox_RID>
76176

> <DSSTox_GSID>
21482

> <DSSTox_FileID_Sort>
860

> <TS_ChemName>
Acetone

> <TS_ChemName_Synonyms>


> <TS_CASRN>
67-64-1

> <CASRN_ChemName_Relationship>
primary

> <TS_Description>
single chemical compound

> <ChemNote>


> <STRUCTURE_Shown>
tested chemical

> <STRUCTURE_Formula>
C3H6O

> <STRUCTURE_MW>
58.0791

> <STRUCTURE_ChemType>
defined organic

> <STRUCTURE_DefinedOrganicForm>
parent

> <STRUCTURE_IUPAC>
propan-2-one

> <STRUCTURE_SMILES>
CC(C)=O

> <STRUCTURE_SMILES_Desalt>
CC(C)=O

> <Substance_modify_yyyymmdd>
20080429

$$$$
