67-73-2
ChemmineR-0915142007XD

 35 39  0  0  1  0  0  0  0  0  1 V2000
    3.4435   -5.7430    0.0000 C   0  0  0  0  0  0  0  0  0  0  0  0
    3.4435   -7.0604    0.0000 C   0  0  0  0  0  0  0  0  0  0  0  0
    2.2995   -5.0728    0.0000 C   0  0  0  0  0  0  0  0  0  0  0  0
    2.2995   -7.7306    0.0000 C   0  0  0  0  0  0  0  0  0  0  0  0
    1.1555   -5.7430    0.0000 C   0  0  0  0  0  0  0  0  0  0  0  0
    1.1555   -7.0604    0.0000 C   0  0  0  0  0  0  0  0  0  0  0  0
    4.6106   -5.0728    0.0000 C   0  0  0  0  0  0  0  0  0  0  0  0
    5.7546   -5.7430    0.0000 C   0  0  0  0  0  0  0  0  0  0  0  0
    4.6106   -7.7306    0.0000 C   0  0  0  0  0  0  0  0  0  0  0  0
    5.7546   -7.0719    0.0000 C   0  0  0  0  0  0  0  0  0  0  0  0
    4.6106   -3.7440    0.0000 C   0  0  0  0  0  0  0  0  0  0  0  0
    5.7546   -3.0853    0.0000 C   0  0  0  0  0  0  0  0  0  0  0  0
    6.9101   -5.0728    0.0000 C   0  0  0  0  0  0  0  0  0  0  0  0
    6.9101   -3.7440    0.0000 C   0  0  0  0  0  0  0  0  0  0  0  0
    8.1697   -5.4773    0.0000 C   0  0  0  0  0  0  0  0  0  0  0  0
    8.9554   -4.4142    0.0000 C   0  0  0  0  0  0  0  0  0  0  0  0
    8.1697   -3.3280    0.0000 C   0  0  0  0  0  0  0  0  0  0  0  0
   10.2265   -3.9982    0.0000 O   0  0  0  0  0  0  0  0  0  0  0  0
   10.2265   -2.6693    0.0000 C   0  0  0  0  0  0  0  0  0  0  0  0
    8.9554   -2.2649    0.0000 O   0  0  0  0  0  0  0  0  0  0  0  0
    0.0000   -7.7306    0.0000 O   0  0  0  0  0  0  0  0  0  0  0  0
    4.6106   -9.0594    0.0000 F   0  0  0  0  0  0  0  0  0  0  0  0
    3.4435   -4.3911    0.0000 C   0  0  0  0  0  0  0  0  0  0  0  0
    4.6106   -6.4017    0.0000 F   0  0  0  0  0  0  0  0  0  0  0  0
    3.4435   -3.0853    0.0000 O   0  0  0  0  0  0  0  0  0  0  0  0
    5.7546   -4.4142    0.0000 H   0  0  0  0  0  0  0  0  0  0  0  0
    6.9101   -6.4017    0.0000 H   0  0  0  0  0  0  0  0  0  0  0  0
    6.9101   -2.4151    0.0000 C   0  0  0  0  0  0  0  0  0  0  0  0
    8.1697   -1.9991    0.0000 C   0  0  0  0  0  0  0  0  0  0  0  0
    9.3137   -1.3289    0.0000 C   0  0  0  0  0  0  0  0  0  0  0  0
    7.0026   -1.3404    0.0000 O   0  0  0  0  0  0  0  0  0  0  0  0
    9.3137    0.0000    0.0000 O   0  0  0  0  0  0  0  0  0  0  0  0
   10.8968   -1.5253    0.0000 C   0  0  0  0  0  0  0  0  0  0  0  0
   11.5554   -2.6693    0.0000 C   0  0  0  0  0  0  0  0  0  0  0  0
    9.2906   -5.7084    0.0000 H   0  0  0  0  0  0  0  0  0  0  0  0
  1  3  1  0  0  0  0
  1  7  1  0  0  0  0
  1  2  1  0  0  0  0
  1 23  1  1  0  0  0
  2  4  2  0  0  0  0
  2  9  1  0  0  0  0
  3  5  2  0  0  0  0
  4  6  1  0  0  0  0
  5  6  1  0  0  0  0
  6 21  2  0  0  0  0
  7 11  1  0  0  0  0
  7  8  1  0  0  0  0
  7 24  1  6  0  0  0
  8 10  1  0  0  0  0
  8 13  1  0  0  0  0
  8 26  1  1  0  0  0
  9 10  1  0  0  0  0
  9 22  1  6  0  0  0
 11 12  1  0  0  0  0
 11 25  1  1  0  0  0
 12 14  1  0  0  0  0
 13 15  1  0  0  0  0
 13 14  1  0  0  0  0
 13 27  1  6  0  0  0
 14 17  1  0  0  0  0
 14 28  1  1  0  0  0
 15 16  1  0  0  0  0
 16 18  1  0  0  0  0
 16 17  1  0  0  0  0
 16 35  1  1  0  0  0
 17 20  1  0  0  0  0
 17 29  1  1  0  0  0
 18 19  1  0  0  0  0
 19 20  1  0  0  0  0
 19 33  1  0  0  0  0
 19 34  1  0  0  0  0
 29 30  1  0  0  0  0
 29 31  2  0  0  0  0
 30 32  1  0  0  0  0
M  END
> <ID>
7873

> <Formula>
C24H30F2O6

> <FW>
452.4882

> <DSSTox_CID>
20674

> <DSSTox_RID>
79533

> <DSSTox_GSID>
40674

> <DSSTox_FileID_Sort>
4215

> <TS_ChemName>
Fluocinolone acetonide

> <TS_ChemName_Synonyms>


> <TS_CASRN>
67-73-2

> <CASRN_ChemName_Relationship>
primary

> <TS_Description>
single chemical compound

> <ChemNote>
stereochem; tautomers

> <STRUCTURE_Shown>
tested chemical

> <STRUCTURE_Formula>
C24H30F2O6

> <STRUCTURE_MW>
452.4882

> <STRUCTURE_ChemType>
defined organic

> <STRUCTURE_DefinedOrganicForm>
parent

> <STRUCTURE_IUPAC>
(4aS,4bR,5S,6aS,6bS,9aR,10aS,10bS,12S)-4b,12-difluoro-5-hydroxy-6b-(hydroxyacetyl)-4a,6a,8,8-tetramethyl-4a,4b,5,6,6a,6b,9a,10,10a,10b,11,12-dodecahydro-2H-naphtho[2',1':4,5]indeno[1,2-d][1,3]dioxol-2-one

> <STRUCTURE_SMILES>
OCC(=O)[C@]45OC(C)(C)O[C@@H]5C[C@@H]3[C@]4(C)C[C@H](O)[C@@]2(F)[C@H]3C[C@H](F)C1=CC(=O)C=C[C@@]12C

> <STRUCTURE_SMILES_Desalt>
OCC(=O)[C@]45OC(C)(C)O[C@@H]5C[C@@H]3[C@]4(C)C[C@H](O)[C@@]2(F)[C@H]3C[C@H](F)C1=CC(=O)C=C[C@@]12C

> <Substance_modify_yyyymmdd>
20080429

$$$$
