67-78-7
ChemmineR-0915142007XD

 36 39  0  0  1  0  0  0  0  0  1 V2000
    7.0889   -3.6439    0.0000 C   0  0  0  0  0  0  0  0  0  0  0  0
    4.7259   -5.0120    0.0000 C   0  0  0  0  0  0  0  0  0  0  0  0
    8.3823   -3.2708    0.0000 C   0  0  0  0  0  0  0  0  0  0  0  0
    3.5569   -5.6338    0.0000 C   0  0  0  0  0  0  0  0  0  0  0  0
    7.0889   -5.0120    0.0000 C   0  0  0  0  0  0  0  0  0  0  0  0
    5.9323   -5.6711    0.0000 C   0  0  0  0  0  0  0  0  0  0  0  0
    3.5569   -7.0391    0.0000 C   0  0  0  0  0  0  0  0  0  0  0  0
    9.1658   -4.3031    0.0000 C   0  0  0  0  0  0  0  0  0  0  0  0
    4.7259   -3.6439    0.0000 C   0  0  0  0  0  0  0  0  0  0  0  0
    5.8825   -3.0221    0.0000 C   0  0  0  0  0  0  0  0  0  0  0  0
    2.4003   -5.0120    0.0000 C   0  0  0  0  0  0  0  0  0  0  0  0
    8.3823   -5.3726    0.0000 C   0  0  0  0  0  0  0  0  0  0  0  0
    8.3823   -1.9028    0.0000 C   0  0  0  0  0  0  0  0  0  0  0  0
    2.4003   -7.6983    0.0000 C   0  0  0  0  0  0  0  0  0  0  0  0
    5.9323   -7.0391    0.0000 C   0  0  0  0  0  0  0  0  0  0  0  0
   10.4841   -4.3031    0.0000 O   0  0  0  0  0  0  0  0  0  0  0  0
    1.2064   -5.6711    0.0000 C   0  0  0  0  0  0  0  0  0  0  0  0
    1.2064   -7.0391    0.0000 C   0  0  0  0  0  0  0  0  0  0  0  0
   11.1432   -5.3478    0.0000 C   0  0  0  0  0  0  0  0  0  0  0  0
    4.7259   -7.6983    0.0000 C   0  0  0  0  0  0  0  0  0  0  0  0
    4.9249   -1.2437    0.0000 C   0  0  0  0  0  0  0  0  0  0  0  0
    4.7632   -6.2432    0.0000 F   0  0  0  0  0  0  0  0  0  0  0  0
    7.2132   -1.2437    0.0000 C   0  0  0  0  0  0  0  0  0  0  0  0
    9.5389   -1.2437    0.0000 O   0  0  0  0  0  0  0  0  0  0  0  0
    6.0566   -1.9028    0.0000 O   0  0  0  0  0  0  0  0  0  0  0  0
   12.4366   -5.3478    0.0000 O   0  0  0  0  0  0  0  0  0  0  0  0
    9.7503   -2.8977    0.0000 O   0  0  0  0  0  0  0  0  0  0  0  0
    3.8180   -1.9028    0.0000 O   0  0  0  0  0  0  0  0  0  0  0  0
    0.0000   -7.6610    0.0000 O   0  0  0  0  0  0  0  0  0  0  0  0
    7.0889   -2.3505    0.0000 C   0  0  0  0  0  0  0  0  0  0  0  0
    3.5569   -2.9724    0.0000 O   0  0  0  0  0  0  0  0  0  0  0  0
    3.5569   -4.3031    0.0000 C   0  0  0  0  0  0  0  0  0  0  0  0
   10.5711   -6.5044    0.0000 C   0  0  0  0  0  0  0  0  0  0  0  0
    4.9249    0.0000    0.0000 C   0  0  0  0  0  0  0  0  0  0  0  0
    7.0889   -6.3302    0.0000 H   0  0  0  0  0  0  0  0  0  0  0  0
    5.9323   -4.4274    0.0000 H   0  0  0  0  0  0  0  0  0  0  0  0
  1  3  1  0  0  0  0
  1  5  1  0  0  0  0
  1 10  1  0  0  0  0
  1 30  1  1  0  0  0
  2  9  1  0  0  0  0
  2  4  1  0  0  0  0
  2 22  1  6  0  0  0
  2  6  1  0  0  0  0
  3  8  1  0  0  0  0
  3 13  1  1  0  0  0
  3 27  1  6  0  0  0
  4  7  1  0  0  0  0
  4 11  1  0  0  0  0
  4 32  1  1  0  0  0
  5  6  1  0  0  0  0
  5 12  1  0  0  0  0
  5 35  1  6  0  0  0
  6 15  1  0  0  0  0
  6 36  1  1  0  0  0
  7 14  2  0  0  0  0
  7 20  1  0  0  0  0
  8 16  1  6  0  0  0
  8 12  1  0  0  0  0
  9 10  1  0  0  0  0
  9 31  1  1  0  0  0
 11 17  2  0  0  0  0
 13 23  1  0  0  0  0
 13 24  2  0  0  0  0
 14 18  1  0  0  0  0
 15 20  1  0  0  0  0
 16 19  1  0  0  0  0
 17 18  1  0  0  0  0
 18 29  2  0  0  0  0
 19 26  2  0  0  0  0
 19 33  1  0  0  0  0
 21 25  1  0  0  0  0
 21 28  2  0  0  0  0
 21 34  1  0  0  0  0
 23 25  1  0  0  0  0
M  END
> <ID>
13705

> <Formula>
C25H31FO8

> <FW>
478.5072

> <DSSTox_CID>
28639

> <DSSTox_RID>
82909

> <DSSTox_GSID>
48713

> <DSSTox_FileID_Sort>
7586

> <TS_ChemName>
Triamcinolone diacetate

> <TS_ChemName_Synonyms>


> <TS_CASRN>
67-78-7

> <CASRN_ChemName_Relationship>
primary

> <TS_Description>
single chemical compound

> <ChemNote>


> <STRUCTURE_Shown>
tested chemical

> <STRUCTURE_Formula>
C25H31FO8

> <STRUCTURE_MW>
478.5072

> <STRUCTURE_ChemType>
defined organic

> <STRUCTURE_DefinedOrganicForm>
parent

> <STRUCTURE_IUPAC>
(11beta,16alpha)-9-fluoro-11,17-dihydroxy-3,20-dioxopregna-1,4-diene-16,21-diyl diacetate

> <STRUCTURE_SMILES>
CC(=O)OCC(=O)[C@@]3(O)[C@@H](C[C@H]2[C@@H]4CCC1=CC(=O)C=C[C@]1(C)[C@@]4(F)[C@@H](O)C[C@@]23C)OC(C)=O

> <STRUCTURE_SMILES_Desalt>
CC(=O)OCC(=O)[C@@]3(O)[C@@H](C[C@H]2[C@@H]4CCC1=CC(=O)C=C[C@]1(C)[C@@]4(F)[C@@H](O)C[C@@]23C)OC(C)=O

> <Substance_modify_yyyymmdd>
20111204

$$$$
