67-97-0
ChemmineR-0915142007XD

 30 32  0  0  1  0  0  0  0  0  1 V2000
    4.5840   -2.6277    0.0000 C   0  0  0  0  0  0  0  0  0  0  0  0
    4.5840   -3.9473    0.0000 C   0  0  0  0  0  0  0  0  0  0  0  0
    2.2920   -7.9178    0.0000 C   0  0  0  0  0  0  0  0  0  0  0  0
    5.8458   -2.2225    0.0000 C   0  0  0  0  0  0  0  0  0  0  0  0
    2.2920   -6.5982    0.0000 C   0  0  0  0  0  0  0  0  0  0  0  0
    3.4380   -8.5892    0.0000 C   0  0  0  0  0  0  0  0  0  0  0  0
    3.4380   -4.6187    0.0000 C   0  0  0  0  0  0  0  0  0  0  0  0
    3.4380   -5.9384    0.0000 C   0  0  0  0  0  0  0  0  0  0  0  0
    5.8458   -4.3641    0.0000 C   0  0  0  0  0  0  0  0  0  0  0  0
    6.6098   -3.2991    0.0000 C   0  0  0  0  0  0  0  0  0  0  0  0
    1.1576   -8.5892    0.0000 C   0  0  0  0  0  0  0  0  0  0  0  0
    3.4380   -9.9089    0.0000 C   0  0  0  0  0  0  0  0  0  0  0  0
    4.5840   -7.9178    0.0000 C   0  0  0  0  0  0  0  0  0  0  0  0
    5.8458   -0.9376    0.0000 C   0  0  0  0  0  0  0  0  0  0  0  0
    3.4380   -1.9795    0.0000 C   0  0  0  0  0  0  0  0  0  0  0  0
    1.1576   -9.9089    0.0000 C   0  0  0  0  0  0  0  0  0  0  0  0
    2.2920  -10.5571    0.0000 C   0  0  0  0  0  0  0  0  0  0  0  0
    2.2920   -3.9473    0.0000 C   0  0  0  0  0  0  0  0  0  0  0  0
    0.0000  -10.5571    0.0000 O   0  0  0  0  0  0  0  0  0  0  0  0
    2.2920   -2.6277    0.0000 C   0  0  0  0  0  0  0  0  0  0  0  0
    8.1378   -0.9376    0.0000 C   0  0  0  0  0  0  0  0  0  0  0  0
    6.9918   -0.2894    0.0000 C   0  0  0  0  0  0  0  0  0  0  0  0
    4.4567    0.0000    0.0000 C   0  0  0  0  0  0  0  0  0  0  0  0
    9.2838   -0.2894    0.0000 C   0  0  0  0  0  0  0  0  0  0  0  0
   10.4182   -0.9376    0.0000 C   0  0  0  0  0  0  0  0  0  0  0  0
   10.4182   -2.2573    0.0000 C   0  0  0  0  0  0  0  0  0  0  0  0
   11.5758   -0.2894    0.0000 C   0  0  0  0  0  0  0  0  0  0  0  0
    4.5840   -1.3081    0.0000 C   0  0  0  0  0  0  0  0  0  0  0  0
    4.5840   -5.2670    0.0000 H   0  0  0  0  0  0  0  0  0  0  0  0
    6.7718   -1.2849    0.0000 H   0  0  0  0  0  0  0  0  0  0  0  0
  1  2  1  0  0  0  0
  1  4  1  0  0  0  0
  1 15  1  0  0  0  0
  1 28  1  1  0  0  0
  2  7  1  0  0  0  0
  2  9  1  0  0  0  0
  2 29  1  6  0  0  0
  3  5  2  0  0  0  0
  3  6  1  0  0  0  0
  3 11  1  0  0  0  0
  4 10  1  0  0  0  0
  4 14  1  0  0  0  0
  4 30  1  6  0  0  0
  5  8  1  0  0  0  0
  6 12  1  0  0  0  0
  6 13  2  0  0  0  0
  7  8  2  0  0  0  0
  7 18  1  0  0  0  0
  9 10  1  0  0  0  0
 11 16  1  0  0  0  0
 12 17  1  0  0  0  0
 14 22  1  0  0  0  0
 14 23  1  6  0  0  0
 15 20  1  0  0  0  0
 16 17  1  0  0  0  0
 16 19  1  6  0  0  0
 18 20  1  0  0  0  0
 21 22  1  0  0  0  0
 21 24  1  0  0  0  0
 24 25  1  0  0  0  0
 25 26  1  0  0  0  0
 25 27  1  0  0  0  0
M  END
> <ID>
4639

> <Formula>
C27H44O

> <FW>
384.6377

> <DSSTox_CID>
6294

> <DSSTox_RID>
78090

> <DSSTox_GSID>
26294

> <DSSTox_FileID_Sort>
2773

> <TS_ChemName>
Vitamin D3

> <TS_ChemName_Synonyms>
Vitamin D3 (Cholecalciferol) (9,10-Secocholesta-5,7,10(19)-trien-3-ol, (3.beta.,5Z,7E)-)

> <TS_CASRN>
67-97-0

> <CASRN_ChemName_Relationship>
primary

> <TS_Description>
single chemical compound

> <ChemNote>
stereochem

> <STRUCTURE_Shown>
tested chemical

> <STRUCTURE_Formula>
C27H44O

> <STRUCTURE_MW>
384.6377

> <STRUCTURE_ChemType>
defined organic

> <STRUCTURE_DefinedOrganicForm>
parent

> <STRUCTURE_IUPAC>
(3S,5Z,7E)-9,10-secocholesta-5,7,10-trien-3-ol

> <STRUCTURE_SMILES>
C=C3CC[C@H](O)C\C3=C\C=C1/CCC[C@]2(C)[C@H](CC[C@@H]12)[C@H](C)CCCC(C)C

> <STRUCTURE_SMILES_Desalt>
C=C3CC[C@H](O)C\C3=C\C=C1/CCC[C@]2(C)[C@H](CC[C@@H]12)[C@H](C)CCCC(C)C

> <Substance_modify_yyyymmdd>
20080429

$$$$
