670-54-2
ChemmineR-0915142007XD

 10  9  0  0  0  0  0  0  0  0  1 V2000
    1.3443   -2.3019    0.0000 C   0  0  0  0  0  0  0  0  0  0  0  0
    2.6517   -2.3019    0.0000 C   0  0  0  0  0  0  0  0  0  0  0  0
    0.6721   -3.4528    0.0000 C   0  0  0  0  0  0  0  0  0  0  0  0
    0.6721   -1.1509    0.0000 C   0  0  0  0  0  0  0  0  0  0  0  0
    3.3239   -1.1509    0.0000 C   0  0  0  0  0  0  0  0  0  0  0  0
    3.3239   -3.4528    0.0000 C   0  0  0  0  0  0  0  0  0  0  0  0
    3.9960    0.0000    0.0000 N   0  0  0  0  0  0  0  0  0  0  0  0
    0.0000    0.0000    0.0000 N   0  0  0  0  0  0  0  0  0  0  0  0
    3.9960   -4.6037    0.0000 N   0  0  0  0  0  0  0  0  0  0  0  0
    0.0000   -4.6037    0.0000 N   0  0  0  0  0  0  0  0  0  0  0  0
  1  2  2  0  0  0  0
  1  3  1  0  0  0  0
  1  4  1  0  0  0  0
  2  5  1  0  0  0  0
  2  6  1  0  0  0  0
  3 10  3  0  0  0  0
  4  8  3  0  0  0  0
  5  7  3  0  0  0  0
  6  9  3  0  0  0  0
M  END
> <ID>
14289

> <Formula>
C6N4

> <FW>
128.091

> <DSSTox_CID>
29385

> <DSSTox_RID>
83500

> <DSSTox_GSID>
49425

> <DSSTox_FileID_Sort>
8175

> <TS_ChemName>
Tetracyanoethylene

> <TS_ChemName_Synonyms>


> <TS_CASRN>
670-54-2

> <CASRN_ChemName_Relationship>
primary

> <TS_Description>
single chemical compound

> <ChemNote>
stereochem

> <STRUCTURE_Shown>
tested chemical

> <STRUCTURE_Formula>
C6N4

> <STRUCTURE_MW>
128.091

> <STRUCTURE_ChemType>
defined organic

> <STRUCTURE_DefinedOrganicForm>
parent

> <STRUCTURE_IUPAC>
ethene-1,1,2,2-tetracarbonitrile

> <STRUCTURE_SMILES>
N#C/C(C#N)=C(/C#N)C#N

> <STRUCTURE_SMILES_Desalt>
N#C/C(C#N)=C(/C#N)C#N

> <Substance_modify_yyyymmdd>
20111204

$$$$
