6701-13-9
ChemmineR-0915142007XD

 22 21  0  0  0  0  0  0  0  0  1 V2000
    4.6190   -1.3309    0.0000 C   0  0  0  0  0  0  0  0  0  0  0  0
    5.7542   -1.9964    0.0000 C   0  0  0  0  0  0  0  0  0  0  0  0
    6.9090   -1.3309    0.0000 C   0  0  0  0  0  0  0  0  0  0  0  0
    8.0637   -1.9964    0.0000 C   0  0  0  0  0  0  0  0  0  0  0  0
    9.2185   -1.3309    0.0000 C   0  0  0  0  0  0  0  0  0  0  0  0
   10.3536   -1.9964    0.0000 C   0  0  0  0  0  0  0  0  0  0  0  0
   11.5084   -1.3309    0.0000 C   0  0  0  0  0  0  0  0  0  0  0  0
   12.6632   -1.9964    0.0000 C   0  0  0  0  0  0  0  0  0  0  0  0
   13.8179   -1.3309    0.0000 C   0  0  0  0  0  0  0  0  0  0  0  0
   14.9531   -1.9964    0.0000 C   0  0  0  0  0  0  0  0  0  0  0  0
    3.4643   -1.9964    0.0000 O   0  0  0  0  0  0  0  0  0  0  0  0
   16.1079   -1.3309    0.0000 O   0  0  0  0  0  0  0  0  0  0  0  0
    2.3095   -1.3309    0.0000 C   0  0  0  0  0  0  0  0  0  0  0  0
    1.1548   -1.9964    0.0000 C   0  0  0  0  0  0  0  0  0  0  0  0
    2.3095    0.0000    0.0000 O   0  0  0  0  0  0  0  0  0  0  0  0
    0.0000   -1.3309    0.0000 C   0  0  0  0  0  0  0  0  0  0  0  0
    1.1548   -3.3273    0.0000 C   0  0  0  0  0  0  0  0  0  0  0  0
   17.2626   -1.9964    0.0000 C   0  0  0  0  0  0  0  0  0  0  0  0
   18.4174   -1.3309    0.0000 C   0  0  0  0  0  0  0  0  0  0  0  0
   17.2626   -3.3273    0.0000 O   0  0  0  0  0  0  0  0  0  0  0  0
   19.5721   -1.9964    0.0000 C   0  0  0  0  0  0  0  0  0  0  0  0
   18.4174    0.0000    0.0000 C   0  0  0  0  0  0  0  0  0  0  0  0
  1  2  1  0  0  0  0
  1 11  1  0  0  0  0
  2  3  1  0  0  0  0
  3  4  1  0  0  0  0
  4  5  1  0  0  0  0
  5  6  1  0  0  0  0
  6  7  1  0  0  0  0
  7  8  1  0  0  0  0
  8  9  1  0  0  0  0
  9 10  1  0  0  0  0
 10 12  1  0  0  0  0
 11 13  1  0  0  0  0
 12 18  1  0  0  0  0
 13 14  1  0  0  0  0
 13 15  2  0  0  0  0
 14 16  2  0  0  0  0
 14 17  1  0  0  0  0
 18 19  1  0  0  0  0
 18 20  2  0  0  0  0
 19 21  2  0  0  0  0
 19 22  1  0  0  0  0
M  END
> <ID>
10619

> <Formula>
C18H30O4

> <FW>
310.4284

> <DSSTox_CID>
24972

> <DSSTox_RID>
80622

> <DSSTox_GSID>
44972

> <DSSTox_FileID_Sort>
5304

> <TS_ChemName>
1,10-Decanediol dimethacrylate

> <TS_ChemName_Synonyms>


> <TS_CASRN>
6701-13-9

> <CASRN_ChemName_Relationship>
primary

> <TS_Description>
single chemical compound

> <ChemNote>


> <STRUCTURE_Shown>
tested chemical

> <STRUCTURE_Formula>
C18H30O4

> <STRUCTURE_MW>
310.4284

> <STRUCTURE_ChemType>
defined organic

> <STRUCTURE_DefinedOrganicForm>
parent

> <STRUCTURE_IUPAC>
decane-1,10-diyl bis(2-methylprop-2-enoate)

> <STRUCTURE_SMILES>
C=C(C)C(=O)OCCCCCCCCCCOC(=O)C(=C)C

> <STRUCTURE_SMILES_Desalt>
C=C(C)C(=O)OCCCCCCCCCCOC(=O)C(=C)C

> <Substance_modify_yyyymmdd>
20091116

$$$$
