67028-40-4
ChemmineR-0915142007XD

 14 14  0  0  0  0  0  0  0  0  1 V2000
    6.9229   -2.6635    0.0000 C   0  0  0  0  0  0  0  0  0  0  0  0
    6.9229   -3.9900    0.0000 O   0  0  0  0  0  0  0  0  0  0  0  0
    8.0733   -2.0002    0.0000 O   0  0  0  0  0  0  0  0  0  0  0  0
    5.7622   -2.0002    0.0000 C   0  0  0  0  0  0  0  0  0  0  0  0
    4.6118   -2.6635    0.0000 O   0  0  0  0  0  0  0  0  0  0  0  0
    3.4615   -2.0002    0.0000 C   0  0  0  0  0  0  0  0  0  0  0  0
    2.3111   -2.6635    0.0000 C   0  0  0  0  0  0  0  0  0  0  0  0
    3.4615   -0.6736    0.0000 C   0  0  0  0  0  0  0  0  0  0  0  0
    1.1504   -2.0002    0.0000 C   0  0  0  0  0  0  0  0  0  0  0  0
    2.3111    0.0000    0.0000 C   0  0  0  0  0  0  0  0  0  0  0  0
    1.1504   -0.6736    0.0000 C   0  0  0  0  0  0  0  0  0  0  0  0
    0.0000    0.0000    0.0000 C   0  0  0  0  0  0  0  0  0  0  0  0
    9.2237   -2.6635    0.0000 C   0  0  0  0  0  0  0  0  0  0  0  0
   10.3637   -2.0002    0.0000 C   0  0  0  0  0  0  0  0  0  0  0  0
  1  2  2  0  0  0  0
  1  3  1  0  0  0  0
  1  4  1  0  0  0  0
  3 13  1  0  0  0  0
  4  5  1  0  0  0  0
  5  6  1  0  0  0  0
  6  7  2  0  0  0  0
  6  8  1  0  0  0  0
  7  9  1  0  0  0  0
  8 10  2  0  0  0  0
  9 11  2  0  0  0  0
 10 11  1  0  0  0  0
 11 12  1  0  0  0  0
 13 14  1  0  0  0  0
M  END
> <ID>
12570

> <Formula>
C11H14O3

> <FW>
194.2271

> <DSSTox_CID>
27428

> <DSSTox_RID>
82341

> <DSSTox_GSID>
47428

> <DSSTox_FileID_Sort>
7022

> <TS_ChemName>
(4-Methylphenoxy) acetic acid ethyl ester

> <TS_ChemName_Synonyms>


> <TS_CASRN>
67028-40-4

> <CASRN_ChemName_Relationship>
primary

> <TS_Description>
single chemical compound

> <ChemNote>


> <STRUCTURE_Shown>
tested chemical

> <STRUCTURE_Formula>
C11H14O3

> <STRUCTURE_MW>
194.2271

> <STRUCTURE_ChemType>
defined organic

> <STRUCTURE_DefinedOrganicForm>
parent

> <STRUCTURE_IUPAC>
ethyl (4-methylphenoxy)acetate

> <STRUCTURE_SMILES>
O=C(COc1ccc(C)cc1)OCC

> <STRUCTURE_SMILES_Desalt>
O=C(COc1ccc(C)cc1)OCC

> <Substance_modify_yyyymmdd>
20100619

$$$$
