67024-46-8
ChemmineR-0915142007XD

 13 12  0  0  0  0  0  0  0  0  1 V2000
    5.7500   -1.3248    0.0000 C   0  0  0  0  0  0  0  0  0  0  0  0
    5.7500    0.0000    0.0000 O   0  0  0  0  0  0  0  0  0  0  0  0
    6.9000   -1.9964    0.0000 O   0  0  0  0  0  0  0  0  0  0  0  0
    4.6000   -1.9964    0.0000 C   0  0  0  0  0  0  0  0  0  0  0  0
    3.4500   -1.3248    0.0000 C   0  0  0  0  0  0  0  0  0  0  0  0
    1.1500   -1.3248    0.0000 C   0  0  0  0  0  0  0  0  0  0  0  0
    2.3000   -1.9964    0.0000 C   0  0  0  0  0  0  0  0  0  0  0  0
    0.0000   -1.9964    0.0000 C   0  0  0  0  0  0  0  0  0  0  0  0
    4.6000   -3.3212    0.0000 C   0  0  0  0  0  0  0  0  0  0  0  0
    5.7500   -3.9928    0.0000 C   0  0  0  0  0  0  0  0  0  0  0  0
    8.0499   -1.3248    0.0000 C   0  0  0  0  0  0  0  0  0  0  0  0
    8.0499    0.0000    0.0000 C   0  0  0  0  0  0  0  0  0  0  0  0
    9.1999   -1.9964    0.0000 C   0  0  0  0  0  0  0  0  0  0  0  0
  1  2  2  0  0  0  0
  1  3  1  0  0  0  0
  1  4  1  0  0  0  0
  3 11  1  0  0  0  0
  4  5  1  0  0  0  0
  4  9  1  0  0  0  0
  5  7  1  0  0  0  0
  6  7  1  0  0  0  0
  6  8  1  0  0  0  0
  9 10  1  0  0  0  0
 11 12  1  0  0  0  0
 11 13  1  0  0  0  0
M  END
> <ID>
10620

> <Formula>
C11H22O2

> <FW>
186.2912

> <DSSTox_CID>
24973

> <DSSTox_RID>
80623

> <DSSTox_GSID>
44973

> <DSSTox_FileID_Sort>
5305

> <TS_ChemName>
Propan-2-yl 2-ethylhexanoate

> <TS_ChemName_Synonyms>
Propan-2-yl 2-ethylhexanoate (Hexanoic acid, 2-ethyl-, 1-methylethyl ester)

> <TS_CASRN>
67024-46-8

> <CASRN_ChemName_Relationship>
primary

> <TS_Description>
single chemical compound

> <ChemNote>


> <STRUCTURE_Shown>
tested chemical

> <STRUCTURE_Formula>
C11H22O2

> <STRUCTURE_MW>
186.2912

> <STRUCTURE_ChemType>
defined organic

> <STRUCTURE_DefinedOrganicForm>
parent

> <STRUCTURE_IUPAC>
propan-2-yl 2-ethylhexanoate

> <STRUCTURE_SMILES>
CC(C)OC(=O)C(CCCC)CC

> <STRUCTURE_SMILES_Desalt>
CC(C)OC(=O)C(CCCC)CC

> <Substance_modify_yyyymmdd>
20091116

$$$$
