6706-59-8
ChemmineR-0915142007XD

 12 11  0  0  1  0  0  0  0  0  1 V2000
    1.1397   -1.3469    0.0000 C   0  0  0  0  0  0  0  0  0  0  0  0
    0.0000   -2.0031    0.0000 O   0  0  0  0  0  0  0  0  0  0  0  0
    2.2932   -2.0169    0.0000 C   0  0  0  0  0  0  0  0  0  0  0  0
    2.2932   -3.3501    0.0000 O   0  0  0  0  0  0  0  0  0  0  0  0
    3.4468   -1.3469    0.0000 C   0  0  0  0  0  0  0  0  0  0  0  0
    3.4468   -0.0138    0.0000 O   0  0  0  0  0  0  0  0  0  0  0  0
    4.6003   -2.0031    0.0000 C   0  0  0  0  0  0  0  0  0  0  0  0
    4.6003   -3.3362    0.0000 O   0  0  0  0  0  0  0  0  0  0  0  0
    5.7538   -1.3331    0.0000 C   0  0  0  0  0  0  0  0  0  0  0  0
    5.7538    0.0000    0.0000 O   0  0  0  0  0  0  0  0  0  0  0  0
    6.9073   -1.9893    0.0000 C   0  0  0  0  0  0  0  0  0  0  0  0
    6.9073   -3.3155    0.0000 O   0  0  0  0  0  0  0  0  0  0  0  0
  1  2  1  0  0  0  0
  1  3  1  0  0  0  0
  3  4  1  6  0  0  0
  3  5  1  0  0  0  0
  5  6  1  6  0  0  0
  5  7  1  0  0  0  0
  7  8  1  6  0  0  0
  7  9  1  0  0  0  0
  9 10  1  1  0  0  0
  9 11  1  0  0  0  0
 11 12  1  0  0  0  0
M  END
> <ID>
9028

> <Formula>
C6H14O6

> <FW>
182.1718

> <DSSTox_CID>
22096

> <DSSTox_RID>
79925

> <DSSTox_GSID>
42096

> <DSSTox_FileID_Sort>
4607

> <TS_ChemName>
L-Glucitol

> <TS_ChemName_Synonyms>


> <TS_CASRN>
6706-59-8

> <CASRN_ChemName_Relationship>
primary

> <TS_Description>
single chemical compound

> <ChemNote>
stereochem

> <STRUCTURE_Shown>
tested chemical

> <STRUCTURE_Formula>
C6H14O6

> <STRUCTURE_MW>
182.1718

> <STRUCTURE_ChemType>
defined organic

> <STRUCTURE_DefinedOrganicForm>
parent

> <STRUCTURE_IUPAC>
L-glucitol

> <STRUCTURE_SMILES>
O[C@@H]([C@@H](O)CO)[C@@H](O)[C@H](O)CO

> <STRUCTURE_SMILES_Desalt>
O[C@@H]([C@@H](O)CO)[C@@H](O)[C@H](O)CO

> <Substance_modify_yyyymmdd>
20080825

$$$$
