6711-48-4
ChemmineR-0915142007XD

 13 12  0  0  0  0  0  0  0  0  1 V2000
    2.3063    0.0000    0.0000 C   0  0  0  0  0  0  0  0  0  0  0  0
    3.4594   -0.6803    0.0000 C   0  0  0  0  0  0  0  0  0  0  0  0
    4.6010   -0.0231    0.0000 C   0  0  0  0  0  0  0  0  0  0  0  0
    1.1531   -0.6803    0.0000 N   0  0  0  0  0  0  0  0  0  0  0  0
    5.7541   -0.6803    0.0000 N   0  0  0  0  0  0  0  0  0  0  0  0
    6.9073   -0.0231    0.0000 C   0  0  0  0  0  0  0  0  0  0  0  0
    8.0719   -0.6803    0.0000 C   0  0  0  0  0  0  0  0  0  0  0  0
    9.2251   -0.0231    0.0000 C   0  0  0  0  0  0  0  0  0  0  0  0
   10.3782   -0.6803    0.0000 N   0  0  0  0  0  0  0  0  0  0  0  0
   10.3782   -2.0065    0.0000 C   0  0  0  0  0  0  0  0  0  0  0  0
   11.5313   -0.0231    0.0000 C   0  0  0  0  0  0  0  0  0  0  0  0
    1.1531   -2.0065    0.0000 C   0  0  0  0  0  0  0  0  0  0  0  0
    0.0000    0.0000    0.0000 C   0  0  0  0  0  0  0  0  0  0  0  0
  1  2  1  0  0  0  0
  1  4  1  0  0  0  0
  2  3  1  0  0  0  0
  3  5  1  0  0  0  0
  4 12  1  0  0  0  0
  4 13  1  0  0  0  0
  5  6  1  0  0  0  0
  6  7  1  0  0  0  0
  7  8  1  0  0  0  0
  8  9  1  0  0  0  0
  9 10  1  0  0  0  0
  9 11  1  0  0  0  0
M  END
> <ID>
10621

> <Formula>
C10H25N3

> <FW>
187.3256

> <DSSTox_CID>
24974

> <DSSTox_RID>
80624

> <DSSTox_GSID>
44974

> <DSSTox_FileID_Sort>
5306

> <TS_ChemName>
N'-[3-(Dimethylamino)propyl]-N,N-dimethylpropane-1,3-diamine

> <TS_ChemName_Synonyms>
N'-[3-(Dimethylamino)propyl]-N,N-dimethylpropane-1,3-diamine (1,3-Propanediamine, N'-[3-(dimethylamino)propyl]-N,N-dimethyl-)

> <TS_CASRN>
6711-48-4

> <CASRN_ChemName_Relationship>
primary

> <TS_Description>
single chemical compound

> <ChemNote>


> <STRUCTURE_Shown>
tested chemical

> <STRUCTURE_Formula>
C10H25N3

> <STRUCTURE_MW>
187.3256

> <STRUCTURE_ChemType>
defined organic

> <STRUCTURE_DefinedOrganicForm>
parent

> <STRUCTURE_IUPAC>
N'-[3-(dimethylamino)propyl]-N,N-dimethylpropane-1,3-diamine

> <STRUCTURE_SMILES>
CN(C)CCCNCCCN(C)C

> <STRUCTURE_SMILES_Desalt>
CN(C)CCCNCCCN(C)C

> <Substance_modify_yyyymmdd>
20091116

$$$$
