67121-76-0
ChemmineR-0915142007XD

 23 26  0  0  0  0  0  0  0  0  1 V2000
    3.0774   -3.2435    0.0000 C   0  0  0  0  0  0  0  0  0  0  0  0
    2.2293   -2.2031    0.0000 C   0  0  0  0  0  0  0  0  0  0  0  0
    2.5004   -4.4324    0.0000 N   0  0  0  0  0  0  0  0  0  0  0  0
    4.4062   -3.2435    0.0000 N   0  0  0  0  0  0  0  0  0  0  0  0
    2.5266   -0.9267    0.0000 C   0  0  0  0  0  0  0  0  0  0  0  0
    0.9792   -2.6053    0.0000 C   0  0  0  0  0  0  0  0  0  0  0  0
    3.2347   -5.5340    0.0000 C   0  0  0  0  0  0  0  0  0  0  0  0
    1.1715   -4.5636    0.0000 C   0  0  0  0  0  0  0  0  0  0  0  0
    5.2193   -2.2031    0.0000 C   0  0  0  0  0  0  0  0  0  0  0  0
    3.7330   -0.3322    0.0000 C   0  0  0  0  0  0  0  0  0  0  0  0
    1.5562    0.0000    0.0000 C   0  0  0  0  0  0  0  0  0  0  0  0
    0.0000   -1.6960    0.0000 C   0  0  0  0  0  0  0  0  0  0  0  0
    2.6577   -6.7405    0.0000 C   0  0  0  0  0  0  0  0  0  0  0  0
    0.5770   -5.7438    0.0000 C   0  0  0  0  0  0  0  0  0  0  0  0
    4.9133   -0.9267    0.0000 C   0  0  0  0  0  0  0  0  0  0  0  0
    6.5044   -2.6053    0.0000 C   0  0  0  0  0  0  0  0  0  0  0  0
    0.2885   -0.3934    0.0000 C   0  0  0  0  0  0  0  0  0  0  0  0
    1.3289   -6.8366    0.0000 N   0  0  0  0  0  0  0  0  0  0  0  0
    5.9099    0.0000    0.0000 C   0  0  0  0  0  0  0  0  0  0  0  0
    7.4573   -1.6960    0.0000 C   0  0  0  0  0  0  0  0  0  0  0  0
    0.7693   -8.0344    0.0000 C   0  0  0  0  0  0  0  0  0  0  0  0
    7.1776   -0.3934    0.0000 C   0  0  0  0  0  0  0  0  0  0  0  0
    8.7425   -2.0807    0.0000 F   0  0  0  0  0  0  0  0  0  0  0  0
  1  2  1  0  0  0  0
  1  3  1  0  0  0  0
  1  4  2  0  0  0  0
  2  5  2  0  0  0  0
  2  6  1  0  0  0  0
  3  7  1  0  0  0  0
  3  8  1  0  0  0  0
  4  9  1  0  0  0  0
  5 10  1  0  0  0  0
  5 11  1  0  0  0  0
  6 12  2  0  0  0  0
  7 13  1  0  0  0  0
  8 14  1  0  0  0  0
  9 15  1  0  0  0  0
  9 16  2  0  0  0  0
 10 15  1  0  0  0  0
 11 17  2  0  0  0  0
 12 17  1  0  0  0  0
 13 18  1  0  0  0  0
 14 18  1  0  0  0  0
 15 19  2  0  0  0  0
 16 20  1  0  0  0  0
 18 21  1  0  0  0  0
 19 22  1  0  0  0  0
 20 23  1  0  0  0  0
 20 22  2  0  0  0  0
M  END
> <ID>
11427

> <Formula>
C19H20FN3

> <FW>
309.3806

> <DSSTox_CID>
26123

> <DSSTox_RID>
81359

> <DSSTox_GSID>
46123

> <DSSTox_FileID_Sort>
6040

> <TS_ChemName>
Fluperlapine

> <TS_ChemName_Synonyms>


> <TS_CASRN>
67121-76-0

> <CASRN_ChemName_Relationship>
primary

> <TS_Description>
single chemical compound

> <ChemNote>


> <STRUCTURE_Shown>
tested chemical

> <STRUCTURE_Formula>
C19H20FN3

> <STRUCTURE_MW>
309.3806

> <STRUCTURE_ChemType>
defined organic

> <STRUCTURE_DefinedOrganicForm>
parent

> <STRUCTURE_IUPAC>
3-fluoro-6-(4-methylpiperazin-1-yl)-11H-dibenzo[b,e]azepine

> <STRUCTURE_SMILES>
CN1CCN(CC1)C2=Nc4cc(F)ccc4Cc3ccccc23

> <STRUCTURE_SMILES_Desalt>
CN1CCN(CC1)C2=Nc4cc(F)ccc4Cc3ccccc23

> <Substance_modify_yyyymmdd>
20110818

$$$$
