67199-66-0
ChemmineR-0915142007XD

 19 22  0  0  0  0  0  0  0  0  1 V2000
    7.1668   -7.6979    0.0000 N   0  0  0  0  0  0  0  0  0  0  0  0
    6.5047   -6.5509    0.0000 C   0  0  0  0  0  0  0  0  0  0  0  0
    7.1668   -5.3962    0.0000 C   0  0  0  0  0  0  0  0  0  0  0  0
    6.5047   -4.2416    0.0000 C   0  0  0  0  0  0  0  0  0  0  0  0
    5.1730   -4.2416    0.0000 C   0  0  0  0  0  0  0  0  0  0  0  0
    4.5110   -3.0946    0.0000 N   0  0  0  0  0  0  0  0  0  0  0  0
    3.1792   -3.0946    0.0000 C   0  0  0  0  0  0  0  0  0  0  0  0
    2.5172   -4.2416    0.0000 N   0  0  0  0  0  0  0  0  0  0  0  0
    3.1792   -5.3962    0.0000 C   0  0  0  0  0  0  0  0  0  0  0  0
    4.5110   -5.3962    0.0000 C   0  0  0  0  0  0  0  0  0  0  0  0
    5.1730   -6.5509    0.0000 C   0  0  0  0  0  0  0  0  0  0  0  0
    1.2163   -3.9644    0.0000 C   0  0  0  0  0  0  0  0  0  0  0  0
    0.2232   -4.8574    0.0000 O   0  0  0  0  0  0  0  0  0  0  0  0
    1.0777   -2.6481    0.0000 C   0  0  0  0  0  0  0  0  0  0  0  0
    2.2940   -2.1015    0.0000 C   0  0  0  0  0  0  0  0  0  0  0  0
    2.4325   -0.7852    0.0000 C   0  0  0  0  0  0  0  0  0  0  0  0
    1.3548    0.0000    0.0000 C   0  0  0  0  0  0  0  0  0  0  0  0
    0.1386   -0.5389    0.0000 C   0  0  0  0  0  0  0  0  0  0  0  0
    0.0000   -1.8629    0.0000 C   0  0  0  0  0  0  0  0  0  0  0  0
  1  2  1  0  0  0  0
  2  3  2  0  0  0  0
  2 11  1  0  0  0  0
  3  4  1  0  0  0  0
  4  5  2  0  0  0  0
  5  6  1  0  0  0  0
  5 10  1  0  0  0  0
  6  7  2  0  0  0  0
  7  8  1  0  0  0  0
  7 15  1  0  0  0  0
  8  9  1  0  0  0  0
  8 12  1  0  0  0  0
  9 10  1  0  0  0  0
 10 11  2  0  0  0  0
 12 13  2  0  0  0  0
 12 14  1  0  0  0  0
 14 15  2  0  0  0  0
 14 19  1  0  0  0  0
 15 16  1  0  0  0  0
 16 17  2  0  0  0  0
 17 18  1  0  0  0  0
 18 19  2  0  0  0  0
M  END
> <ID>
16200

> <Formula>
C15H11N3O

> <FW>
249.2673

> <DSSTox_CID>
31591

> <DSSTox_RID>
97475

> <DSSTox_GSID>
57802

> <DSSTox_FileID_Sort>
8542

> <TS_ChemName>
Daniquidone

> <TS_ChemName_Synonyms>


> <TS_CASRN>
67199-66-0

> <CASRN_ChemName_Relationship>
primary

> <TS_Description>
single chemical compound

> <ChemNote>


> <STRUCTURE_Shown>
tested chemical

> <STRUCTURE_Formula>
C15H11N3O

> <STRUCTURE_MW>
249.2673

> <STRUCTURE_ChemType>
defined organic

> <STRUCTURE_DefinedOrganicForm>
parent

> <STRUCTURE_IUPAC>
8-aminoisoindolo[1,2-b]quinazolin-12(10H)-one

> <STRUCTURE_SMILES>
Nc1ccc2N=C3c4ccccc4C(=O)N3Cc2c1

> <STRUCTURE_SMILES_Desalt>
Nc1ccc2N=C3c4ccccc4C(=O)N3Cc2c1

> <Substance_modify_yyyymmdd>
20131018

$$$$
