672-87-7
ChemmineR-0915142007XD

 14 14  0  0  1  0  0  0  0  0  1 V2000
    5.7777   -1.9798    0.0000 C   0  0  0  0  0  0  0  0  0  0  0  0
    6.9170   -1.3414    0.0000 C   0  0  0  0  0  0  0  0  0  0  0  0
    4.6140   -1.3414    0.0000 C   0  0  0  0  0  0  0  0  0  0  0  0
    6.9170    0.0000    0.0000 O   0  0  0  0  0  0  0  0  0  0  0  0
    5.0746   -3.1434    0.0000 N   0  0  0  0  0  0  0  0  0  0  0  0
    3.4666   -1.9798    0.0000 C   0  0  0  0  0  0  0  0  0  0  0  0
    8.0806   -1.9798    0.0000 O   0  0  0  0  0  0  0  0  0  0  0  0
    1.1636   -3.3050    0.0000 C   0  0  0  0  0  0  0  0  0  0  0  0
    2.3030   -1.3414    0.0000 C   0  0  0  0  0  0  0  0  0  0  0  0
    3.4666   -3.3050    0.0000 C   0  0  0  0  0  0  0  0  0  0  0  0
    1.1636   -1.9798    0.0000 C   0  0  0  0  0  0  0  0  0  0  0  0
    2.3030   -3.9918    0.0000 C   0  0  0  0  0  0  0  0  0  0  0  0
    0.0000   -3.9918    0.0000 O   0  0  0  0  0  0  0  0  0  0  0  0
    6.4484   -3.1272    0.0000 C   0  0  0  0  0  0  0  0  0  0  0  0
  1  2  1  0  0  0  0
  1  3  1  0  0  0  0
  1  5  1  1  0  0  0
  1 14  1  0  0  0  0
  2  4  2  0  0  0  0
  2  7  1  0  0  0  0
  3  6  1  0  0  0  0
  6  9  1  0  0  0  0
  6 10  2  0  0  0  0
  8 12  2  0  0  0  0
  8 13  1  0  0  0  0
  8 11  1  0  0  0  0
  9 11  2  0  0  0  0
 10 12  1  0  0  0  0
M  END
> <ID>
2975

> <Formula>
C10H13NO3

> <FW>
195.2151

> <DSSTox_CID>
3315

> <DSSTox_RID>
76972

> <DSSTox_GSID>
23315

> <DSSTox_FileID_Sort>
1656

> <TS_ChemName>
Metyrosine

> <TS_ChemName_Synonyms>
Metyrosine (a-methyl-L-p-tyrosine)

> <TS_CASRN>
672-87-7

> <CASRN_ChemName_Relationship>
primary

> <TS_Description>
single chemical compound

> <ChemNote>
stereochem

> <STRUCTURE_Shown>
tested chemical

> <STRUCTURE_Formula>
C10H13NO3

> <STRUCTURE_MW>
195.2151

> <STRUCTURE_ChemType>
defined organic

> <STRUCTURE_DefinedOrganicForm>
parent

> <STRUCTURE_IUPAC>
alpha-methyl-L-tyrosine

> <STRUCTURE_SMILES>
Oc1ccc(C[C@](C)(N)C(=O)O)cc1

> <STRUCTURE_SMILES_Desalt>
Oc1ccc(C[C@](C)(N)C(=O)O)cc1

> <Substance_modify_yyyymmdd>
20080429

$$$$
