67227-56-9
ChemmineR-0915142007XD

 21 23  0  0  0  0  0  0  0  0  1 V2000
    2.9152   -6.0172    0.0000 C    0  0  0  0  0  0  0  0  0  0  0  0
    2.9152   -7.3439    0.0000 C    0  0  0  0  0  0  0  0  0  0  0  0
    4.0644   -8.0167    0.0000 C    0  0  0  0  0  0  0  0  0  0  0  0
    5.2043   -7.3439    0.0000 C    0  0  0  0  0  0  0  0  0  0  0  0
    4.0644   -5.3444    0.0000 C    0  0  0  0  0  0  0  0  0  0  0  0
    5.2043   -6.0172    0.0000 C    0  0  0  0  0  0  0  0  0  0  0  0
    1.8687   -5.1856    0.0000 C    0  0  0  0  0  0  0  0  0  0  0  0
    2.1583   -3.9056    0.0000 C    0  0  0  0  0  0  0  0  0  0  0  0
    0.0000   -6.6899    0.0000 N    0  0  0  0  0  0  0  0  0  0  0  0
    4.0644   -9.3434    0.0000 Cl   0  0  0  0  0  0  0  0  0  0  0  0
    1.1960   -2.9899    0.0000 C    0  0  0  0  0  0  0  0  0  0  0  0
    3.4384   -3.5038    0.0000 C    0  0  0  0  0  0  0  0  0  0  0  0
    6.3535   -8.0167    0.0000 O    0  0  0  0  0  0  0  0  0  0  0  0
    6.3722   -5.3444    0.0000 O    0  0  0  0  0  0  0  0  0  0  0  0
    0.5793   -5.4846    0.0000 C    0  0  0  0  0  0  0  0  0  0  0  0
    2.7563   -1.3081    0.0000 C    0  0  0  0  0  0  0  0  0  0  0  0
    3.7280   -2.2051    0.0000 C    0  0  0  0  0  0  0  0  0  0  0  0
    1.4856   -1.6912    0.0000 C    0  0  0  0  0  0  0  0  0  0  0  0
    1.8687   -8.1755    0.0000 C    0  0  0  0  0  0  0  0  0  0  0  0
    3.0553    0.0000    0.0000 O    0  0  0  0  0  0  0  0  0  0  0  0
    0.5793   -7.8859    0.0000 C    0  0  0  0  0  0  0  0  0  0  0  0
  1  2  2  0  0  0  0
  1  5  1  0  0  0  0
  1  7  1  0  0  0  0
  2  3  1  0  0  0  0
  2 19  1  0  0  0  0
  3 10  1  0  0  0  0
  3  4  2  0  0  0  0
  4  6  1  0  0  0  0
  4 13  1  0  0  0  0
  5  6  2  0  0  0  0
  6 14  1  0  0  0  0
  7  8  1  0  0  0  0
  7 15  1  0  0  0  0
  8 11  2  0  0  0  0
  8 12  1  0  0  0  0
  9 15  1  0  0  0  0
  9 21  1  0  0  0  0
 11 18  1  0  0  0  0
 12 17  2  0  0  0  0
 16 17  1  0  0  0  0
 16 20  1  0  0  0  0
 16 18  2  0  0  0  0
 19 21  1  0  0  0  0
M  END
> <ID>
9726

> <Formula>
C16H16ClNO3

> <FW>
305.7561

> <DSSTox_CID>
23896

> <DSSTox_RID>
80083

> <DSSTox_GSID>
43896

> <DSSTox_FileID_Sort>
4765

> <TS_ChemName>
Fenoldopam

> <TS_ChemName_Synonyms>


> <TS_CASRN>
67227-56-9

> <CASRN_ChemName_Relationship>
primary

> <TS_Description>
single chemical compound

> <ChemNote>


> <STRUCTURE_Shown>
tested chemical

> <STRUCTURE_Formula>
C16H16ClNO3

> <STRUCTURE_MW>
305.7561

> <STRUCTURE_ChemType>
defined organic

> <STRUCTURE_DefinedOrganicForm>
parent

> <STRUCTURE_IUPAC>
6-chloro-1-(4-hydroxyphenyl)-2,3,4,5-tetrahydro-1H-3-benzazepine-7,8-diol

> <STRUCTURE_SMILES>
Oc1ccc(cc1)C3CNCCc2c3cc(O)c(O)c2Cl

> <STRUCTURE_SMILES_Desalt>
Oc1ccc(cc1)C3CNCCc2c3cc(O)c(O)c2Cl

> <Substance_modify_yyyymmdd>
20081229

$$$$
