6724-53-4
ChemmineR-0915142007XD

 30 31  0  0  0  0  0  0  0  0  1 V2000
    3.4497   -4.1211    0.0000 C   0  0  0  0  0  0  0  0  0  0  0  0
    2.2929   -0.7850    0.0000 N   0  0  0  0  0  0  0  0  0  0  0  0
    3.4497   -2.7784    0.0000 C   0  0  0  0  0  0  0  0  0  0  0  0
    4.6065   -4.7821    0.0000 C   0  0  0  0  0  0  0  0  0  0  0  0
    2.2929   -4.7821    0.0000 C   0  0  0  0  0  0  0  0  0  0  0  0
    2.2929   -2.1173    0.0000 C   0  0  0  0  0  0  0  0  0  0  0  0
    1.1568   -0.1239    0.0000 C   0  0  0  0  0  0  0  0  0  0  0  0
    1.1568   -4.1211    0.0000 C   0  0  0  0  0  0  0  0  0  0  0  0
    4.6065   -6.1144    0.0000 C   0  0  0  0  0  0  0  0  0  0  0  0
    2.2929   -6.1144    0.0000 C   0  0  0  0  0  0  0  0  0  0  0  0
    5.7529   -4.1211    0.0000 C   0  0  0  0  0  0  0  0  0  0  0  0
    1.1568   -2.7784    0.0000 C   0  0  0  0  0  0  0  0  0  0  0  0
    0.0000   -0.7850    0.0000 C   0  0  0  0  0  0  0  0  0  0  0  0
    5.7529   -6.7755    0.0000 C   0  0  0  0  0  0  0  0  0  0  0  0
    1.1568   -6.7755    0.0000 C   0  0  0  0  0  0  0  0  0  0  0  0
    0.0000   -4.7821    0.0000 C   0  0  0  0  0  0  0  0  0  0  0  0
    6.9097   -4.7821    0.0000 C   0  0  0  0  0  0  0  0  0  0  0  0
    0.0000   -2.1173    0.0000 C   0  0  0  0  0  0  0  0  0  0  0  0
    6.9097   -6.1144    0.0000 C   0  0  0  0  0  0  0  0  0  0  0  0
    0.0000   -6.1144    0.0000 C   0  0  0  0  0  0  0  0  0  0  0  0
    8.9961   -2.3239    0.0000 C   0  0  0  0  0  0  0  0  0  0  0  0
    6.3313   -2.3136    0.0000 C   0  0  0  0  0  0  0  0  0  0  0  0
    8.3351   -1.1568    0.0000 C   0  0  0  0  0  0  0  0  0  0  0  0
    7.0027   -1.1568    0.0000 C   0  0  0  0  0  0  0  0  0  0  0  0
   10.3285   -2.3239    0.0000 O   0  0  0  0  0  0  0  0  0  0  0  0
    7.0027   -3.4704    0.0000 O   0  0  0  0  0  0  0  0  0  0  0  0
    8.3351   -3.4704    0.0000 O   0  0  0  0  0  0  0  0  0  0  0  0
    4.9990   -2.3136    0.0000 O   0  0  0  0  0  0  0  0  0  0  0  0
    8.9961   -0.0103    0.0000 H   0  0  0  0  0  0  0  0  0  0  0  0
    6.3313    0.0000    0.0000 H   0  0  0  0  0  0  0  0  0  0  0  0
  1  3  1  0  0  0  0
  1  4  1  0  0  0  0
  1  5  1  0  0  0  0
  2  6  1  0  0  0  0
  2  7  1  0  0  0  0
  3  6  1  0  0  0  0
  4  9  1  0  0  0  0
  4 11  1  0  0  0  0
  5  8  1  0  0  0  0
  5 10  1  0  0  0  0
  6 12  1  0  0  0  0
  7 13  1  0  0  0  0
  8 16  1  0  0  0  0
  9 14  1  0  0  0  0
 10 15  1  0  0  0  0
 11 17  1  0  0  0  0
 12 18  1  0  0  0  0
 13 18  1  0  0  0  0
 14 19  1  0  0  0  0
 15 20  1  0  0  0  0
 16 20  1  0  0  0  0
 17 19  1  0  0  0  0
 21 23  1  0  0  0  0
 21 25  1  0  0  0  0
 21 27  2  0  0  0  0
 22 24  1  0  0  0  0
 22 26  2  0  0  0  0
 22 28  1  0  0  0  0
 23 24  2  0  0  0  0
 23 29  1  0  0  0  0
 24 30  1  0  0  0  0
M  END
> <ID>
1070

> <Formula>
C23H39NO4

> <FW>
393.5601 (277.4879+116.0722)

> <DSSTox_CID>
1114

> <DSSTox_RID>
75947

> <DSSTox_GSID>
21114

> <DSSTox_FileID_Sort>
631

> <TS_ChemName>
Perhexiline maleate

> <TS_ChemName_Synonyms>
Perhexilene maleate

> <TS_CASRN>
6724-53-4

> <CASRN_ChemName_Relationship>
primary

> <TS_Description>
single chemical compound

> <ChemNote>
parent [6621-47-2]

> <STRUCTURE_Shown>
tested chemical

> <STRUCTURE_Formula>
C23H39NO4

> <STRUCTURE_MW>
393.5601

> <STRUCTURE_ChemType>
defined organic

> <STRUCTURE_DefinedOrganicForm>
complex

> <STRUCTURE_IUPAC>
2-(2,2-dicyclohexylethyl)piperidine (2Z)-but-2-enedioate (1:1)

> <STRUCTURE_SMILES>
O=C(O)\C=C/C(=O)O.C(C(C1CCCCC1)C2CCCCC2)C3CCCCN3

> <STRUCTURE_SMILES_Desalt>
C(C(C1CCCCC1)C2CCCCC2)C3CCCCN3

> <Substance_modify_yyyymmdd>
20080429

$$$$
