67268-43-3
ChemmineR-0915142007XD

 16 17  0  0  0  0  0  0  0  0  1 V2000
    8.0602    0.0000    0.0000 C   0  0  0  0  0  0  0  0  0  0  0  0
    8.0602   -1.3261    0.0000 C   0  0  0  0  0  0  0  0  0  0  0  0
    9.2101   -1.9891    0.0000 C   0  0  0  0  0  0  0  0  0  0  0  0
    9.2101   -3.3256    0.0000 C   0  0  0  0  0  0  0  0  0  0  0  0
   10.3601   -3.9886    0.0000 O   0  0  0  0  0  0  0  0  0  0  0  0
    8.0602   -3.9886    0.0000 O   0  0  0  0  0  0  0  0  0  0  0  0
    6.9102   -3.3256    0.0000 C   0  0  0  0  0  0  0  0  0  0  0  0
    5.7602   -3.9886    0.0000 C   0  0  0  0  0  0  0  0  0  0  0  0
    4.5999   -3.3256    0.0000 C   0  0  0  0  0  0  0  0  0  0  0  0
    4.5999   -1.9891    0.0000 C   0  0  0  0  0  0  0  0  0  0  0  0
    5.7602   -1.3261    0.0000 C   0  0  0  0  0  0  0  0  0  0  0  0
    6.9102   -1.9891    0.0000 C   0  0  0  0  0  0  0  0  0  0  0  0
    3.4499   -3.9886    0.0000 O   0  0  0  0  0  0  0  0  0  0  0  0
    2.2999   -3.3256    0.0000 C   0  0  0  0  0  0  0  0  0  0  0  0
    1.1500   -3.9886    0.0000 C   0  0  0  0  0  0  0  0  0  0  0  0
    0.0000   -4.6517    0.0000 C   0  0  0  0  0  0  0  0  0  0  0  0
  1  2  1  0  0  0  0
  2  3  2  0  0  0  0
  2 12  1  0  0  0  0
  3  4  1  0  0  0  0
  4  5  2  0  0  0  0
  4  6  1  0  0  0  0
  6  7  1  0  0  0  0
  7  8  2  0  0  0  0
  7 12  1  0  0  0  0
  8  9  1  0  0  0  0
  9 10  2  0  0  0  0
  9 13  1  0  0  0  0
 10 11  1  0  0  0  0
 11 12  2  0  0  0  0
 13 14  1  0  0  0  0
 14 15  1  0  0  0  0
 15 16  3  0  0  0  0
M  END
> <ID>
11140

> <Formula>
C13H10O3

> <FW>
214.2167

> <DSSTox_CID>
25699

> <DSSTox_RID>
81071

> <DSSTox_GSID>
45699

> <DSSTox_FileID_Sort>
5752

> <TS_ChemName>
Giparmen

> <TS_ChemName_Synonyms>


> <TS_CASRN>
67268-43-3

> <CASRN_ChemName_Relationship>
primary

> <TS_Description>
single chemical compound

> <ChemNote>


> <STRUCTURE_Shown>
tested chemical

> <STRUCTURE_Formula>
C13H10O3

> <STRUCTURE_MW>
214.2167

> <STRUCTURE_ChemType>
defined organic

> <STRUCTURE_DefinedOrganicForm>
parent

> <STRUCTURE_IUPAC>
4-methyl-7-(prop-2-yn-1-yloxy)-2H-chromen-2-one

> <STRUCTURE_SMILES>
C#CCOc1ccc2c(c1)OC(=O)C=C2C

> <STRUCTURE_SMILES_Desalt>
C#CCOc1ccc2c(c1)OC(=O)C=C2C

> <Substance_modify_yyyymmdd>
20110819

$$$$
