673-31-4
ChemmineR-0915142007XD

 13 13  0  0  0  0  0  0  0  0  1 V2000
    0.0000   -1.9880    0.0000 N   0  0  0  0  0  0  0  0  0  0  0  0
    1.1505   -2.6599    0.0000 C   0  0  0  0  0  0  0  0  0  0  0  0
    1.1505   -3.9853    0.0000 O   0  0  0  0  0  0  0  0  0  0  0  0
    2.3010   -1.9880    0.0000 O   0  0  0  0  0  0  0  0  0  0  0  0
    3.4515   -2.6599    0.0000 C   0  0  0  0  0  0  0  0  0  0  0  0
    4.6020   -1.9880    0.0000 C   0  0  0  0  0  0  0  0  0  0  0  0
    5.7525   -2.6599    0.0000 C   0  0  0  0  0  0  0  0  0  0  0  0
    6.9029   -1.9880    0.0000 C   0  0  0  0  0  0  0  0  0  0  0  0
    6.9029   -0.6627    0.0000 C   0  0  0  0  0  0  0  0  0  0  0  0
    8.0534    0.0000    0.0000 C   0  0  0  0  0  0  0  0  0  0  0  0
    9.2039   -0.6627    0.0000 C   0  0  0  0  0  0  0  0  0  0  0  0
    9.2039   -1.9880    0.0000 C   0  0  0  0  0  0  0  0  0  0  0  0
    8.0534   -2.6599    0.0000 C   0  0  0  0  0  0  0  0  0  0  0  0
  1  2  1  0  0  0  0
  2  3  2  0  0  0  0
  2  4  1  0  0  0  0
  4  5  1  0  0  0  0
  5  6  1  0  0  0  0
  6  7  1  0  0  0  0
  7  8  1  0  0  0  0
  8  9  2  0  0  0  0
  8 13  1  0  0  0  0
  9 10  1  0  0  0  0
 10 11  2  0  0  0  0
 11 12  1  0  0  0  0
 12 13  2  0  0  0  0
M  END
> <ID>
11704

> <Formula>
C10H13NO2

> <FW>
179.2157

> <DSSTox_CID>
26464

> <DSSTox_RID>
81638

> <DSSTox_GSID>
46464

> <DSSTox_FileID_Sort>
6319

> <TS_ChemName>
Phenprobamate

> <TS_ChemName_Synonyms>


> <TS_CASRN>
673-31-4

> <CASRN_ChemName_Relationship>
primary

> <TS_Description>
single chemical compound

> <ChemNote>


> <STRUCTURE_Shown>
tested chemical

> <STRUCTURE_Formula>
C10H13NO2

> <STRUCTURE_MW>
179.2157

> <STRUCTURE_ChemType>
defined organic

> <STRUCTURE_DefinedOrganicForm>
parent

> <STRUCTURE_IUPAC>
3-phenylpropyl carbamate

> <STRUCTURE_SMILES>
NC(=O)OCCCc1ccccc1

> <STRUCTURE_SMILES_Desalt>
NC(=O)OCCCc1ccccc1

> <Substance_modify_yyyymmdd>
20110812

$$$$
