6734-80-1
ChemmineR-0915142007XD

  9  4  0  0  0  0  0  0  0  0  2 V2000
    0.6561   -1.1497    0.0000 N    0  0  0  0  0  0  0  0  0  0  0  0
    1.9870   -1.1497    0.0000 C    0  0  0  0  0  0  0  0  0  0  0  0
    0.0000    0.0000    0.0000 C    0  0  0  0  0  0  0  0  0  0  0  0
    2.6493   -2.3057    0.0000 S    0  0  0  0  0  0  0  0  0  0  0  0
    2.6618    0.0000    0.0000 S    0  5  0  0  0  0  0  0  0  0  0  0
    5.7235   -1.2622    0.0000 Na   0  3  0  0  0  0  0  0  0  0  0  0
    1.5059   -4.7613    0.0000 O    0  0  0  0  0  0  0  0  0  0  0  0
    4.2177   -4.6175    0.0000 O    0  0  0  0  0  0  0  0  0  0  0  0
    6.2484   -4.6863    0.0000 O    0  0  0  0  0  0  0  0  0  0  0  0
  1  2  1  0  0  0  0
  1  3  1  0  0  0  0
  2  4  2  0  0  0  0
  2  5  1  0  0  0  0
M  END
> <ID>
7717

> <Formula>
C2H10NNaO3S2

> <FW>
183.2255 (106.1904+22.9892+18.0153+18.0153+18.0153)

> <DSSTox_CID>
20361

> <DSSTox_RID>
79484

> <DSSTox_GSID>
40361

> <DSSTox_FileID_Sort>
4166

> <TS_ChemName>
Metam-sodium hydrate

> <TS_ChemName_Synonyms>


> <TS_CASRN>
6734-80-1

> <CASRN_ChemName_Relationship>
primary

> <TS_Description>
single chemical compound

> <ChemNote>
CASRN is for a compound containing x hydrates; CofA indicates that tested chemical was the trihydrate; parent [144-54-7]

> <STRUCTURE_Shown>
tested chemical

> <STRUCTURE_Formula>
C2H10NNaO3S2

> <STRUCTURE_MW>
183.2255

> <STRUCTURE_ChemType>
defined organic

> <STRUCTURE_DefinedOrganicForm>
salt complex

> <STRUCTURE_IUPAC>
sodium methylcarbamodithioate hydrate (1:1:3)

> <STRUCTURE_SMILES>
[Na+].O.O.O.[S-]C(=S)NC

> <STRUCTURE_SMILES_Desalt>
CNC(=S)S

> <Substance_modify_yyyymmdd>
20080429

$$$$
