67375-30-8
ChemmineR-0915142007XD

 28 30  0  0  1  0  0  0  0  0  1 V2000
    4.1355   -1.0752    0.0000 C    0  0  0  0  0  0  0  0  0  0  0  0
    3.4408   -2.2497    0.0000 C    0  0  0  0  0  0  0  0  0  0  0  0
    4.7972   -2.2497    0.0000 C    0  0  0  0  0  0  0  0  0  0  0  0
    6.0048   -2.8783    0.0000 C    0  0  0  0  0  0  0  0  0  0  0  0
    2.3159   -2.8783    0.0000 C    0  0  0  0  0  0  0  0  0  0  0  0
    7.1628   -2.2497    0.0000 O    0  0  0  0  0  0  0  0  0  0  0  0
    1.0918   -2.2497    0.0000 C    0  0  0  0  0  0  0  0  0  0  0  0
    8.3207   -5.5251    0.0000 N    0  0  0  0  0  0  0  0  0  0  0  0
    8.3207   -4.2183    0.0000 C    0  0  0  0  0  0  0  0  0  0  0  0
    8.3207   -2.8783    0.0000 C    0  0  0  0  0  0  0  0  0  0  0  0
    9.4787   -2.2497    0.0000 C    0  0  0  0  0  0  0  0  0  0  0  0
    6.0048   -4.2183    0.0000 O    0  0  0  0  0  0  0  0  0  0  0  0
   10.6697   -2.8949    0.0000 C    0  0  0  0  0  0  0  0  0  0  0  0
   11.8277   -2.2994    0.0000 C    0  0  0  0  0  0  0  0  0  0  0  0
   13.0022   -2.8783    0.0000 O    0  0  0  0  0  0  0  0  0  0  0  0
    3.5897    0.0000    0.0000 C    0  0  0  0  0  0  0  0  0  0  0  0
    4.7972    0.0000    0.0000 C    0  0  0  0  0  0  0  0  0  0  0  0
    0.0000   -2.8783    0.0000 Cl   0  0  0  0  0  0  0  0  0  0  0  0
    1.0918   -0.9098    0.0000 Cl   0  0  0  0  0  0  0  0  0  0  0  0
   14.1932   -2.2497    0.0000 C    0  0  0  0  0  0  0  0  0  0  0  0
    9.4787   -0.9264    0.0000 C    0  0  0  0  0  0  0  0  0  0  0  0
   10.6697   -0.2316    0.0000 C    0  0  0  0  0  0  0  0  0  0  0  0
   11.8277   -0.9264    0.0000 C    0  0  0  0  0  0  0  0  0  0  0  0
   15.4173   -2.8783    0.0000 C    0  0  0  0  0  0  0  0  0  0  0  0
   14.1932   -0.9264    0.0000 C    0  0  0  0  0  0  0  0  0  0  0  0
   15.3346   -0.2481    0.0000 C    0  0  0  0  0  0  0  0  0  0  0  0
   16.5422   -2.2994    0.0000 C    0  0  0  0  0  0  0  0  0  0  0  0
   16.5422   -0.9098    0.0000 C    0  0  0  0  0  0  0  0  0  0  0  0
  1  2  1  0  0  0  0
  1  3  1  0  0  0  0
  1 16  1  0  0  0  0
  1 17  1  0  0  0  0
  2  5  1  1  0  0  0
  2  3  1  0  0  0  0
  3  4  1  1  0  0  0
  4  6  1  0  0  0  0
  4 12  2  0  0  0  0
  5  7  2  0  0  0  0
 10  6  1  6  0  0  0
  7 18  1  0  0  0  0
  7 19  1  0  0  0  0
  8  9  3  0  0  0  0
  9 10  1  0  0  0  0
 10 11  1  0  0  0  0
 11 13  1  0  0  0  0
 11 21  2  0  0  0  0
 13 14  2  0  0  0  0
 14 15  1  0  0  0  0
 14 23  1  0  0  0  0
 15 20  1  0  0  0  0
 20 24  2  0  0  0  0
 20 25  1  0  0  0  0
 21 22  1  0  0  0  0
 22 23  2  0  0  0  0
 24 27  1  0  0  0  0
 25 26  2  0  0  0  0
 26 28  1  0  0  0  0
 27 28  2  0  0  0  0
M  END
> <ID>
8174

> <Formula>
C22H19Cl2NO3

> <FW>
416.2972

> <DSSTox_CID>
21201

> <DSSTox_RID>
79646

> <DSSTox_GSID>
41201

> <DSSTox_FileID_Sort>
4328

> <TS_ChemName>
alpha-Cypermethrin

> <TS_ChemName_Synonyms>


> <TS_CASRN>
67375-30-8

> <CASRN_ChemName_Relationship>
primary

> <TS_Description>
mixture or formulation

> <ChemNote>
mixture of (S)-cyano(3-phenoxyphenyl)methyl (1R,3R)-3-(2,2-dichloroethenyl)-2,2-dimethylcyclopropanecarboxylate and (R)-cyano(3-phenoxyphenyl)methyl (1S,3S)-3-(2,2-dichloroethenyl)-2,2-dimethylcyclopropanecarboxylate; structure shown (R)-, (1S,3S); stereo

> <STRUCTURE_Shown>
representative isomer in mixture

> <STRUCTURE_Formula>
C22H19Cl2NO3

> <STRUCTURE_MW>
416.2972

> <STRUCTURE_ChemType>
defined organic

> <STRUCTURE_DefinedOrganicForm>
parent

> <STRUCTURE_IUPAC>
(R)-cyano(3-phenoxyphenyl)methyl (1S,3S)-3-(2,2-dichloroethenyl)-2,2-dimethylcyclopropanecarboxylate

> <STRUCTURE_SMILES>
Cl/C(Cl)=C/[C@@H]3[C@H](C(=O)O[C@@H](C#N)c2cccc(Oc1ccccc1)c2)C3(C)C

> <STRUCTURE_SMILES_Desalt>
Cl/C(Cl)=C/[C@@H]3[C@H](C(=O)O[C@@H](C#N)c2cccc(Oc1ccccc1)c2)C3(C)C

> <Substance_modify_yyyymmdd>
20080825

$$$$
