67392-87-4
ChemmineR-0915142007XD

 30 36  0  0  1  0  0  0  0  0  1 V2000
    7.8872   -3.1326    0.0000 C   0  0  0  0  0  0  0  0  0  0  0  0
    8.9517   -2.3621    0.0000 O   0  0  0  0  0  0  0  0  0  0  0  0
    8.5462   -1.1253    0.0000 C   0  0  0  0  0  0  0  0  0  0  0  0
    7.2080   -1.1253    0.0000 C   0  0  0  0  0  0  0  0  0  0  0  0
    6.8227   -2.3621    0.0000 C   0  0  0  0  0  0  0  0  0  0  0  0
    1.1253   -5.7380    0.0000 C   0  0  0  0  0  0  0  0  0  0  0  0
    1.1253   -7.0559    0.0000 C   0  0  0  0  0  0  0  0  0  0  0  0
    2.2709   -7.7149    0.0000 C   0  0  0  0  0  0  0  0  0  0  0  0
    2.2709   -5.0993    0.0000 C   0  0  0  0  0  0  0  0  0  0  0  0
    3.3759   -5.7380    0.0000 C   0  0  0  0  0  0  0  0  0  0  0  0
    3.3759   -7.0559    0.0000 C   0  0  0  0  0  0  0  0  0  0  0  0
    4.5012   -5.0993    0.0000 C   0  0  0  0  0  0  0  0  0  0  0  0
    5.6366   -5.7380    0.0000 C   0  0  0  0  0  0  0  0  0  0  0  0
    5.6366   -3.1427    0.0000 C   0  0  0  0  0  0  0  0  0  0  0  0
    4.5012   -3.8017    0.0000 C   0  0  0  0  0  0  0  0  0  0  0  0
    6.7619   -3.8017    0.0000 C   0  0  0  0  0  0  0  0  0  0  0  0
    6.7619   -5.0993    0.0000 C   0  0  0  0  0  0  0  0  0  0  0  0
    5.6366   -7.0559    0.0000 C   0  0  0  0  0  0  0  0  0  0  0  0
    4.5012   -7.7149    0.0000 C   0  0  0  0  0  0  0  0  0  0  0  0
    5.6366   -8.3536    0.0000 C   0  0  0  0  0  0  0  0  0  0  0  0
    9.0125   -3.8017    0.0000 C   0  0  0  0  0  0  0  0  0  0  0  0
    9.0125   -5.0993    0.0000 C   0  0  0  0  0  0  0  0  0  0  0  0
   10.1378   -4.4404    0.0000 C   0  0  0  0  0  0  0  0  0  0  0  0
    0.0000   -7.7149    0.0000 O   0  0  0  0  0  0  0  0  0  0  0  0
    9.1849    0.0000    0.0000 O   0  0  0  0  0  0  0  0  0  0  0  0
    3.3759   -4.4404    0.0000 C   0  0  0  0  0  0  0  0  0  0  0  0
    5.6366   -4.4404    0.0000 H   0  0  0  0  0  0  0  0  0  0  0  0
    7.8872   -4.4404    0.0000 C   0  0  0  0  0  0  0  0  0  0  0  0
    4.5012   -6.3970    0.0000 H   0  0  0  0  0  0  0  0  0  0  0  0
    6.7619   -6.3970    0.0000 H   0  0  0  0  0  0  0  0  0  0  0  0
  1 21  1  0  0  0  0
  1 16  1  0  0  0  0
  1  5  1  6  0  0  0
  1  2  1  1  0  0  0
  2  3  1  0  0  0  0
  3  4  1  0  0  0  0
  3 25  2  0  0  0  0
  4  5  1  0  0  0  0
  6  9  1  0  0  0  0
  6  7  1  0  0  0  0
  7  8  1  0  0  0  0
  7 24  2  0  0  0  0
  8 11  2  0  0  0  0
  9 10  1  0  0  0  0
 10 11  1  0  0  0  0
 10 12  1  0  0  0  0
 10 26  1  1  0  0  0
 11 19  1  0  0  0  0
 12 15  1  0  0  0  0
 12 13  1  0  0  0  0
 12 29  1  6  0  0  0
 13 17  1  0  0  0  0
 13 18  1  0  0  0  0
 13 27  1  1  0  0  0
 14 16  1  0  0  0  0
 14 15  1  0  0  0  0
 16 17  1  0  0  0  0
 16 28  1  1  0  0  0
 17 22  1  0  0  0  0
 17 30  1  6  0  0  0
 18 19  1  0  0  0  0
 18 20  1  1  0  0  0
 19 20  1  1  0  0  0
 21 22  1  0  0  0  0
 21 23  1  1  0  0  0
 22 23  1  1  0  0  0
M  END
> <ID>
11705

> <Formula>
C24H30O3

> <FW>
366.4932

> <DSSTox_CID>
26465

> <DSSTox_RID>
81639

> <DSSTox_GSID>
46465

> <DSSTox_FileID_Sort>
6320

> <TS_ChemName>
Drospirenone

> <TS_ChemName_Synonyms>


> <TS_CASRN>
67392-87-4

> <CASRN_ChemName_Relationship>
primary

> <TS_Description>
single chemical compound

> <ChemNote>
stereochem

> <STRUCTURE_Shown>
tested chemical

> <STRUCTURE_Formula>
C24H30O3

> <STRUCTURE_MW>
366.4932

> <STRUCTURE_ChemType>
defined organic

> <STRUCTURE_DefinedOrganicForm>
parent

> <STRUCTURE_IUPAC>
(1aR,5aR,5bS,7aS,8S,8aS,9aS,9bS,9cR,9dR)-5a,7a-dimethyl-1,1a,5,5a,5b,6,7,7a,8a,9,9a,9b,9c,9d-tetradecahydro-3'H-spiro[cyclopropa[4,5]cyclopenta[1,2-a]cyclopropa[l]phenanthrene-8,2'-furan]-3,5'(4H,4'H)-dione

> <STRUCTURE_SMILES>
O=C1CC[C@]6(O1)[C@H]2C[C@H]2[C@H]5[C@@H]7[C@H]3C[C@H]3C4=CC(=O)CC[C@]4(C)[C@H]7CC[C@@]56C

> <STRUCTURE_SMILES_Desalt>
O=C1CC[C@]6(O1)[C@H]2C[C@H]2[C@H]5[C@@H]7[C@H]3C[C@H]3C4=CC(=O)CC[C@]4(C)[C@H]7CC[C@@]56C

> <Substance_modify_yyyymmdd>
20110812

$$$$
