6742-54-7
ChemmineR-0915142007XD

 17 17  0  0  0  0  0  0  0  0  1 V2000
    2.3000   -0.6721    0.0000 C   0  0  0  0  0  0  0  0  0  0  0  0
    2.3000   -2.0013    0.0000 C   0  0  0  0  0  0  0  0  0  0  0  0
    1.1500    0.0000    0.0000 C   0  0  0  0  0  0  0  0  0  0  0  0
    1.1500   -2.6584    0.0000 C   0  0  0  0  0  0  0  0  0  0  0  0
    0.0000   -0.6721    0.0000 C   0  0  0  0  0  0  0  0  0  0  0  0
    0.0000   -2.0013    0.0000 C   0  0  0  0  0  0  0  0  0  0  0  0
    3.4350    0.0000    0.0000 C   0  0  0  0  0  0  0  0  0  0  0  0
    4.5850   -0.6721    0.0000 C   0  0  0  0  0  0  0  0  0  0  0  0
    5.7349    0.0000    0.0000 C   0  0  0  0  0  0  0  0  0  0  0  0
    6.8849   -0.6721    0.0000 C   0  0  0  0  0  0  0  0  0  0  0  0
    8.0498    0.0000    0.0000 C   0  0  0  0  0  0  0  0  0  0  0  0
    9.1998   -0.6721    0.0000 C   0  0  0  0  0  0  0  0  0  0  0  0
   10.3498    0.0000    0.0000 C   0  0  0  0  0  0  0  0  0  0  0  0
   11.4998   -0.6721    0.0000 C   0  0  0  0  0  0  0  0  0  0  0  0
   12.6497    0.0000    0.0000 C   0  0  0  0  0  0  0  0  0  0  0  0
   13.7848   -0.6721    0.0000 C   0  0  0  0  0  0  0  0  0  0  0  0
   14.9348    0.0000    0.0000 C   0  0  0  0  0  0  0  0  0  0  0  0
  1  2  1  0  0  0  0
  1  3  2  0  0  0  0
  1  7  1  0  0  0  0
  2  4  2  0  0  0  0
  3  5  1  0  0  0  0
  4  6  1  0  0  0  0
  5  6  2  0  0  0  0
  7  8  1  0  0  0  0
  8  9  1  0  0  0  0
  9 10  1  0  0  0  0
 10 11  1  0  0  0  0
 11 12  1  0  0  0  0
 12 13  1  0  0  0  0
 13 14  1  0  0  0  0
 14 15  1  0  0  0  0
 15 16  1  0  0  0  0
 16 17  1  0  0  0  0
M  END
> <ID>
5918

> <Formula>
C17H28

> <FW>
232.4042

> <DSSTox_CID>
9281

> <DSSTox_RID>
78746

> <DSSTox_GSID>
29281

> <DSSTox_FileID_Sort>
3428

> <TS_ChemName>
Undecylbenzene

> <TS_ChemName_Synonyms>


> <TS_CASRN>
6742-54-7

> <CASRN_ChemName_Relationship>
primary

> <TS_Description>
mixture or formulation

> <ChemNote>
mixture of alkylbenzene with attachments to benzene ring  anywhere but terminal C; structure shown C3

> <STRUCTURE_Shown>
representative component

> <STRUCTURE_Formula>
C17H28

> <STRUCTURE_MW>
232.4042

> <STRUCTURE_ChemType>
defined organic

> <STRUCTURE_DefinedOrganicForm>
parent

> <STRUCTURE_IUPAC>
undecylbenzene

> <STRUCTURE_SMILES>
CCCCCCCCCCCc1ccccc1

> <STRUCTURE_SMILES_Desalt>
CCCCCCCCCCCc1ccccc1

> <Substance_modify_yyyymmdd>
20080429

$$$$
