67469-78-7
ChemmineR-0915142007XD

 35 36  0  0  0  0  0  0  0  0  1 V2000
   18.4748   -6.7802    0.0000 C    0  0  0  0  0  0  0  0  0  0  0  0
   18.4748   -5.4316    0.0000 C    0  0  0  0  0  0  0  0  0  0  0  0
   17.3293   -7.4269    0.0000 C    0  0  0  0  0  0  0  0  0  0  0  0
   13.8561   -5.4131    0.0000 C    0  0  0  0  0  0  0  0  0  0  0  0
   17.3293   -4.7665    0.0000 C    0  0  0  0  0  0  0  0  0  0  0  0
   16.1654   -6.7618    0.0000 C    0  0  0  0  0  0  0  0  0  0  0  0
   15.0015   -4.7665    0.0000 C    0  0  0  0  0  0  0  0  0  0  0  0
    3.4548   -8.7386    0.0000 C    0  0  0  0  0  0  0  0  0  0  0  0
    2.3093   -6.7618    0.0000 C    0  0  0  0  0  0  0  0  0  0  0  0
    3.4548   -4.7665    0.0000 C    0  0  0  0  0  0  0  0  0  0  0  0
    5.7641   -4.7665    0.0000 C    0  0  0  0  0  0  0  0  0  0  0  0
    2.2909   -9.4221    0.0000 C    0  0  0  0  0  0  0  0  0  0  0  0
    1.1639   -7.4269    0.0000 C    0  0  0  0  0  0  0  0  0  0  0  0
    3.4548   -3.4363    0.0000 C    0  0  0  0  0  0  0  0  0  0  0  0
    5.7641   -3.4363    0.0000 C    0  0  0  0  0  0  0  0  0  0  0  0
   12.6922   -4.7665    0.0000 C    0  0  0  0  0  0  0  0  0  0  0  0
   11.5283   -6.7618    0.0000 C    0  0  0  0  0  0  0  0  0  0  0  0
   10.4013   -4.7665    0.0000 C    0  0  0  0  0  0  0  0  0  0  0  0
   10.3828   -7.4269    0.0000 C    0  0  0  0  0  0  0  0  0  0  0  0
    9.2374   -5.4316    0.0000 C    0  0  0  0  0  0  0  0  0  0  0  0
    8.0735   -7.4084    0.0000 C    0  0  0  0  0  0  0  0  0  0  0  0
    6.9280   -6.7618    0.0000 C    0  0  0  0  0  0  0  0  0  0  0  0
   16.1654   -5.4131    0.0000 C    0  0  0  0  0  0  0  0  0  0  0  0
    3.4548   -7.4269    0.0000 C    0  0  0  0  0  0  0  0  0  0  0  0
    4.6187   -5.4316    0.0000 C    0  0  0  0  0  0  0  0  0  0  0  0
    1.1639   -8.7570    0.0000 C    0  0  0  0  0  0  0  0  0  0  0  0
    4.6187   -2.7712    0.0000 C    0  0  0  0  0  0  0  0  0  0  0  0
    4.6187   -6.7802    0.0000 C    0  0  0  0  0  0  0  0  0  0  0  0
    0.0000   -9.4221    0.0000 F    0  0  0  0  0  0  0  0  0  0  0  0
    4.6187   -1.4410    0.0000 F    0  0  0  0  0  0  0  0  0  0  0  0
   11.5283   -5.4131    0.0000 N    0  0  0  0  0  0  0  0  0  0  0  0
    9.2374   -6.7618    0.0000 N    0  0  0  0  0  0  0  0  0  0  0  0
    5.7641   -7.4269    0.0000 O    0  0  0  0  0  0  0  0  0  0  0  0
   11.1403   -0.0739    0.0000 Cl   0  0  0  0  0  0  0  0  0  0  0  0
    7.9626    0.0000    0.0000 Cl   0  0  0  0  0  0  0  0  0  0  0  0
  1  2  2  0  0  0  0
  1  3  1  0  0  0  0
  2  5  1  0  0  0  0
  3  6  2  0  0  0  0
  4  7  1  0  0  0  0
  4 16  1  0  0  0  0
  5 23  2  0  0  0  0
  6 23  1  0  0  0  0
  7 23  1  0  0  0  0
  8 12  1  0  0  0  0
  8 24  2  0  0  0  0
  9 13  2  0  0  0  0
  9 24  1  0  0  0  0
 10 14  1  0  0  0  0
 10 25  2  0  0  0  0
 11 15  2  0  0  0  0
 11 25  1  0  0  0  0
 12 26  2  0  0  0  0
 13 26  1  0  0  0  0
 14 27  2  0  0  0  0
 15 27  1  0  0  0  0
 16 31  1  0  0  0  0
 17 19  1  0  0  0  0
 17 31  1  0  0  0  0
 18 20  1  0  0  0  0
 18 31  1  0  0  0  0
 19 32  1  0  0  0  0
 20 32  1  0  0  0  0
 21 22  1  0  0  0  0
 21 32  1  0  0  0  0
 22 33  1  0  0  0  0
 24 28  1  0  0  0  0
 25 28  1  0  0  0  0
 26 29  1  0  0  0  0
 27 30  1  0  0  0  0
 28 33  1  0  0  0  0
M  END
> <ID>
9442

> <Formula>
C28H34Cl2F2N2O

> <FW>
523.4852 (450.5633+36.4609+36.4609)

> <DSSTox_CID>
22570

> <DSSTox_RID>
80049

> <DSSTox_GSID>
42570

> <DSSTox_FileID_Sort>
4731

> <TS_ChemName>
GBR 12909 dihydrochloride

> <TS_ChemName_Synonyms>


> <TS_CASRN>
67469-78-7

> <CASRN_ChemName_Relationship>
primary

> <TS_Description>
single chemical compound

> <ChemNote>
parent [67469-69-6]

> <STRUCTURE_Shown>
tested chemical

> <STRUCTURE_Formula>
C28H34Cl2F2N2O

> <STRUCTURE_MW>
523.4852

> <STRUCTURE_ChemType>
defined organic

> <STRUCTURE_DefinedOrganicForm>
complex

> <STRUCTURE_IUPAC>
1-{2-[bis(4-fluorophenyl)methoxy]ethyl}-4-(3-phenylpropyl)piperazine dihydrochloride

> <STRUCTURE_SMILES>
Cl.Cl.Fc1ccc(cc1)C(OCCN2CCN(CC2)CCCc3ccccc3)c4ccc(F)cc4

> <STRUCTURE_SMILES_Desalt>
Fc1ccc(cc1)C(OCCN2CCN(CC2)CCCc3ccccc3)c4ccc(F)cc4

> <Substance_modify_yyyymmdd>
20081003

$$$$
