67485-29-4
ChemmineR-0915142007XD

 35 37  0  0  0  0  0  0  0  0  1 V2000
    3.2732   -5.7730    0.0000 C   0  0  0  0  0  0  0  0  0  0  0  0
   11.2975  -12.6786    0.0000 C   0  0  0  0  0  0  0  0  0  0  0  0
   11.2975   -1.1325    0.0000 C   0  0  0  0  0  0  0  0  0  0  0  0
    4.6129   -5.7730    0.0000 N   0  0  0  0  0  0  0  0  0  0  0  0
    2.5965   -4.6129    0.0000 N   0  0  0  0  0  0  0  0  0  0  0  0
    2.5965   -6.9056    0.0000 N   0  0  0  0  0  0  0  0  0  0  0  0
    5.2897   -6.9056    0.0000 N   0  0  0  0  0  0  0  0  0  0  0  0
   10.6208  -11.4909    0.0000 C   0  0  0  0  0  0  0  0  0  0  0  0
   10.6208   -2.3203    0.0000 C   0  0  0  0  0  0  0  0  0  0  0  0
    0.5939   -5.7730    0.0000 C   0  0  0  0  0  0  0  0  0  0  0  0
    7.2646   -5.7730    0.0000 C   0  0  0  0  0  0  0  0  0  0  0  0
    7.2646   -8.0657    0.0000 C   0  0  0  0  0  0  0  0  0  0  0  0
    6.6017   -6.9056    0.0000 C   0  0  0  0  0  0  0  0  0  0  0  0
    8.6181   -5.7730    0.0000 C   0  0  0  0  0  0  0  0  0  0  0  0
    8.6181   -8.0657    0.0000 C   0  0  0  0  0  0  0  0  0  0  0  0
    1.2430   -6.9056    0.0000 C   0  0  0  0  0  0  0  0  0  0  0  0
    1.2430   -4.6129    0.0000 C   0  0  0  0  0  0  0  0  0  0  0  0
   12.4714   -1.8369    0.0000 F   0  0  0  0  0  0  0  0  0  0  0  0
   10.1374   -0.4834    0.0000 F   0  0  0  0  0  0  0  0  0  0  0  0
   12.4714  -11.9742    0.0000 F   0  0  0  0  0  0  0  0  0  0  0  0
   12.0019  -13.8111    0.0000 F   0  0  0  0  0  0  0  0  0  0  0  0
   10.1374  -13.3277    0.0000 F   0  0  0  0  0  0  0  0  0  0  0  0
   12.0019    0.0000    0.0000 F   0  0  0  0  0  0  0  0  0  0  0  0
   11.2975   -3.4666    0.0000 C   0  0  0  0  0  0  0  0  0  0  0  0
   11.2975  -10.3445    0.0000 C   0  0  0  0  0  0  0  0  0  0  0  0
    9.2949   -2.3203    0.0000 C   0  0  0  0  0  0  0  0  0  0  0  0
    9.2949  -11.4909    0.0000 C   0  0  0  0  0  0  0  0  0  0  0  0
    9.2949   -9.1982    0.0000 C   0  0  0  0  0  0  0  0  0  0  0  0
    9.2949   -4.6129    0.0000 C   0  0  0  0  0  0  0  0  0  0  0  0
   10.6208   -9.1982    0.0000 C   0  0  0  0  0  0  0  0  0  0  0  0
   10.6208   -4.6129    0.0000 C   0  0  0  0  0  0  0  0  0  0  0  0
    8.6181  -10.3445    0.0000 C   0  0  0  0  0  0  0  0  0  0  0  0
    8.6181   -3.4666    0.0000 C   0  0  0  0  0  0  0  0  0  0  0  0
    0.0000   -4.6958    0.0000 C   0  0  0  0  0  0  0  0  0  0  0  0
    0.0138   -6.8641    0.0000 C   0  0  0  0  0  0  0  0  0  0  0  0
  1  4  2  0  0  0  0
  1  5  1  0  0  0  0
  1  6  1  0  0  0  0
  2  8  1  0  0  0  0
  2 20  1  0  0  0  0
  2 21  1  0  0  0  0
  2 22  1  0  0  0  0
  3  9  1  0  0  0  0
  3 18  1  0  0  0  0
  3 19  1  0  0  0  0
  3 23  1  0  0  0  0
  4  7  1  0  0  0  0
  5 17  1  0  0  0  0
  6 16  1  0  0  0  0
  7 13  2  0  0  0  0
  8 27  1  0  0  0  0
  8 25  2  0  0  0  0
  9 26  2  0  0  0  0
  9 24  1  0  0  0  0
 10 16  1  0  0  0  0
 10 34  1  0  0  0  0
 10 35  1  0  0  0  0
 10 17  1  0  0  0  0
 11 13  1  0  0  0  0
 11 14  2  0  0  0  0
 12 13  1  0  0  0  0
 12 15  2  0  0  0  0
 14 29  1  0  0  0  0
 15 28  1  0  0  0  0
 24 31  2  0  0  0  0
 25 30  1  0  0  0  0
 26 33  1  0  0  0  0
 27 32  2  0  0  0  0
 28 30  2  0  0  0  0
 28 32  1  0  0  0  0
 29 31  1  0  0  0  0
 29 33  2  0  0  0  0
M  END
> <ID>
3394

> <Formula>
C25H24F6N4

> <FW>
494.4753

> <DSSTox_CID>
3868

> <DSSTox_RID>
77210

> <DSSTox_GSID>
23868

> <DSSTox_FileID_Sort>
1893

> <TS_ChemName>
Hydramethylnon

> <TS_ChemName_Synonyms>
Hydramethylnon (Amdro)

> <TS_CASRN>
67485-29-4

> <CASRN_ChemName_Relationship>
primary

> <TS_Description>
single chemical compound

> <ChemNote>
tautomers

> <STRUCTURE_Shown>
tested chemical

> <STRUCTURE_Formula>
C25H24F6N4

> <STRUCTURE_MW>
494.4753

> <STRUCTURE_ChemType>
defined organic

> <STRUCTURE_DefinedOrganicForm>
parent

> <STRUCTURE_IUPAC>
2-({(1E,4E)-1,5-bis[4-(trifluoromethyl)phenyl]penta-1,4-dien-3-ylidene}hydrazinylidene)-5,5-dimethylhexahydropyrimidine

> <STRUCTURE_SMILES>
CC3(C)CN/C(=N\N=C(/C=C/c1ccc(cc1)C(F)(F)F)\C=C\c2ccc(cc2)C(F)(F)F)NC3

> <STRUCTURE_SMILES_Desalt>
CC3(C)CN/C(=N\N=C(/C=C/c1ccc(cc1)C(F)(F)F)\C=C\c2ccc(cc2)C(F)(F)F)NC3

> <Substance_modify_yyyymmdd>
20080429

$$$$
