67564-91-4
ChemmineR-0915142007XD

 22 23  0  0  1  0  0  0  0  0  1 V2000
    8.0631   -0.6786    0.0000 N   0  0  0  0  0  0  0  0  0  0  0  0
   10.3406   -2.0014    0.0000 O   0  0  0  0  0  0  0  0  0  0  0  0
    1.1617   -4.6699    0.0000 C   0  0  0  0  0  0  0  0  0  0  0  0
    2.3005   -4.0028    0.0000 C   0  0  0  0  0  0  0  0  0  0  0  0
    9.2134    0.0000    0.0000 C   0  0  0  0  0  0  0  0  0  0  0  0
    8.0631   -2.0014    0.0000 C   0  0  0  0  0  0  0  0  0  0  0  0
    6.9014    0.0000    0.0000 C   0  0  0  0  0  0  0  0  0  0  0  0
   10.3406   -0.6786    0.0000 C   0  0  0  0  0  0  0  0  0  0  0  0
    9.2134   -2.6685    0.0000 C   0  0  0  0  0  0  0  0  0  0  0  0
    2.3005   -2.6685    0.0000 C   0  0  0  0  0  0  0  0  0  0  0  0
    3.4622   -4.6699    0.0000 C   0  0  0  0  0  0  0  0  0  0  0  0
    4.6009   -2.6685    0.0000 C   0  0  0  0  0  0  0  0  0  0  0  0
    5.7742   -2.0014    0.0000 C   0  0  0  0  0  0  0  0  0  0  0  0
    5.7742   -0.6786    0.0000 C   0  0  0  0  0  0  0  0  0  0  0  0
    3.4622   -2.0014    0.0000 C   0  0  0  0  0  0  0  0  0  0  0  0
    4.6009   -4.0028    0.0000 C   0  0  0  0  0  0  0  0  0  0  0  0
    0.4946   -3.5082    0.0000 C   0  0  0  0  0  0  0  0  0  0  0  0
    1.8289   -5.7972    0.0000 C   0  0  0  0  0  0  0  0  0  0  0  0
    0.0000   -5.3141    0.0000 C   0  0  0  0  0  0  0  0  0  0  0  0
    9.2134   -4.0028    0.0000 C   0  0  0  0  0  0  0  0  0  0  0  0
   11.5023    0.0000    0.0000 C   0  0  0  0  0  0  0  0  0  0  0  0
    4.6009    0.0000    0.0000 C   0  0  0  0  0  0  0  0  0  0  0  0
  1  5  1  0  0  0  0
  1  6  1  0  0  0  0
  1  7  1  0  0  0  0
  2  9  1  0  0  0  0
  2  8  1  0  0  0  0
  3  4  1  0  0  0  0
  3 17  1  0  0  0  0
  3 18  1  0  0  0  0
  3 19  1  0  0  0  0
  4 11  2  0  0  0  0
  4 10  1  0  0  0  0
  5  8  1  0  0  0  0
  6  9  1  0  0  0  0
  7 14  1  0  0  0  0
  8 21  1  1  0  0  0
  9 20  1  1  0  0  0
 10 15  2  0  0  0  0
 11 16  1  0  0  0  0
 12 13  1  0  0  0  0
 12 15  1  0  0  0  0
 12 16  2  0  0  0  0
 13 14  1  0  0  0  0
 14 22  1  0  0  0  0
M  END
> <ID>
6842

> <Formula>
C20H33NO

> <FW>
303.4821

> <DSSTox_CID>
14601

> <DSSTox_RID>
79175

> <DSSTox_GSID>
34601

> <DSSTox_FileID_Sort>
3857

> <TS_ChemName>
Fenpropimorph

> <TS_ChemName_Synonyms>


> <TS_CASRN>
67564-91-4

> <CASRN_ChemName_Relationship>
primary

> <TS_Description>
single chemical compound

> <ChemNote>
mixture (2R,S;6R,S) [67306-03-0]; structure shown (2R,6S); stereochem

> <STRUCTURE_Shown>
tested chemical

> <STRUCTURE_Formula>
C20H33NO

> <STRUCTURE_MW>
303.4821

> <STRUCTURE_ChemType>
defined organic

> <STRUCTURE_DefinedOrganicForm>
parent

> <STRUCTURE_IUPAC>
(2R,6S)-4-[3-(4-tert-butylphenyl)-2-methylpropyl]-2,6-dimethylmorpholine

> <STRUCTURE_SMILES>
C[C@H]2CN(CC(C)Cc1ccc(cc1)C(C)(C)C)C[C@@H](C)O2

> <STRUCTURE_SMILES_Desalt>
C[C@H]2CN(CC(C)Cc1ccc(cc1)C(C)(C)C)C[C@@H](C)O2

> <Substance_modify_yyyymmdd>
20080429

$$$$
