676-46-0
ChemmineR-0915142007XD

 11  8  0  0  0  0  0  0  0  0  2 V2000
    4.8959   -3.3222    0.0000 O    0  0  0  0  0  0  0  0  0  0  0  0
    4.8959   -1.9954    0.0000 C    0  0  0  0  0  0  0  0  0  0  0  0
    6.0478   -1.3268    0.0000 C    0  0  0  0  0  0  0  0  0  0  0  0
    7.1998   -1.9954    0.0000 C    0  0  0  0  0  0  0  0  0  0  0  0
    8.3517   -1.3268    0.0000 O    0  5  0  0  0  0  0  0  0  0  0  0
    7.1998   -3.3222    0.0000 O    0  0  0  0  0  0  0  0  0  0  0  0
    3.7439   -1.3268    0.0000 C    0  0  0  0  0  0  0  0  0  0  0  0
    2.5919   -1.9954    0.0000 O    0  5  0  0  0  0  0  0  0  0  0  0
    3.7439    0.0000    0.0000 O    0  0  0  0  0  0  0  0  0  0  0  0
    0.0000   -1.6251    0.0000 Na   0  3  0  0  0  0  0  0  0  0  0  0
   10.2854   -1.4811    0.0000 Na   0  3  0  0  0  0  0  0  0  0  0  0
  1  2  1  0  0  0  0
  2  3  1  0  0  0  0
  2  7  1  0  0  0  0
  3  4  1  0  0  0  0
  4  5  1  0  0  0  0
  4  6  2  0  0  0  0
  7  8  1  0  0  0  0
  7  9  2  0  0  0  0
M  END
> <ID>
12006

> <Formula>
C4H4Na2O5

> <FW>
178.0511 (132.0727+22.9892+22.9892)

> <DSSTox_CID>
26831

> <DSSTox_RID>
81943

> <DSSTox_GSID>
46831

> <DSSTox_FileID_Sort>
6624

> <TS_ChemName>
Disodium 2-hydroxybutanedioate

> <TS_ChemName_Synonyms>


> <TS_CASRN>
676-46-0

> <CASRN_ChemName_Relationship>
primary

> <TS_Description>
single chemical compound

> <ChemNote>
parent [6915-15-7]

> <STRUCTURE_Shown>
tested chemical

> <STRUCTURE_Formula>
C4H4Na2O5

> <STRUCTURE_MW>
178.0511

> <STRUCTURE_ChemType>
defined organic

> <STRUCTURE_DefinedOrganicForm>
salt

> <STRUCTURE_IUPAC>
disodium 2-hydroxybutanedioate

> <STRUCTURE_SMILES>
[Na+].[Na+].[O-]C(=O)C(O)CC([O-])=O

> <STRUCTURE_SMILES_Desalt>
O=C(O)C(O)CC(=O)O

> <Substance_modify_yyyymmdd>
20110731

$$$$
