676116-04-4
ChemmineR-0915142007XD

 36 39  0  0  0  0  0  0  0  0  1 V2000
    0.8867   -3.8753    0.0000 C   0  0  0  0  0  0  0  0  0  0  0  0
    0.0000   -4.8770    0.0000 C   0  0  0  0  0  0  0  0  0  0  0  0
    0.4105   -6.1250    0.0000 C   0  0  0  0  0  0  0  0  0  0  0  0
    1.7242   -6.4041    0.0000 C   0  0  0  0  0  0  0  0  0  0  0  0
    2.5945   -5.4189    0.0000 C   0  0  0  0  0  0  0  0  0  0  0  0
    2.2004   -4.1545    0.0000 C   0  0  0  0  0  0  0  0  0  0  0  0
    2.3810   -7.5536    0.0000 S   0  0  0  0  0  0  0  0  0  0  0  0
    3.6783   -7.2580    0.0000 N   0  0  0  0  0  0  0  0  0  0  0  0
    3.8096   -5.9608    0.0000 C   0  0  0  0  0  0  0  0  0  0  0  0
    4.9591   -5.2875    0.0000 N   0  0  0  0  0  0  0  0  0  0  0  0
    6.0921   -5.9608    0.0000 C   0  0  0  0  0  0  0  0  0  0  0  0
    7.2416   -5.2875    0.0000 C   0  0  0  0  0  0  0  0  0  0  0  0
    7.2416   -3.9574    0.0000 N   0  0  0  0  0  0  0  0  0  0  0  0
    6.0921   -3.3170    0.0000 C   0  0  0  0  0  0  0  0  0  0  0  0
    4.9591   -3.9574    0.0000 C   0  0  0  0  0  0  0  0  0  0  0  0
    8.3911   -3.3170    0.0000 C   0  0  0  0  0  0  0  0  0  0  0  0
    9.5405   -3.9574    0.0000 C   0  0  0  0  0  0  0  0  0  0  0  0
   10.6900   -3.3170    0.0000 C   0  0  0  0  0  0  0  0  0  0  0  0
   11.8394   -3.9574    0.0000 C   0  0  0  0  0  0  0  0  0  0  0  0
   11.8394   -1.3137    0.0000 C   0  0  0  0  0  0  0  0  0  0  0  0
   10.6900   -1.9869    0.0000 C   0  0  0  0  0  0  0  0  0  0  0  0
   12.9725   -1.9869    0.0000 C   0  0  0  0  0  0  0  0  0  0  0  0
   12.9725   -3.3170    0.0000 C   0  0  0  0  0  0  0  0  0  0  0  0
   14.1219   -3.9574    0.0000 C   0  0  0  0  0  0  0  0  0  0  0  0
   15.2714   -3.3170    0.0000 C   0  0  0  0  0  0  0  0  0  0  0  0
   15.2714   -1.9869    0.0000 C   0  0  0  0  0  0  0  0  0  0  0  0
   14.1219   -1.3137    0.0000 N   0  0  0  0  0  0  0  0  0  0  0  0
   11.8394    0.0000    0.0000 C   0  0  0  0  0  0  0  0  0  0  0  0
   14.7952   -5.1069    0.0000 C   0  0  0  0  0  0  0  0  0  0  0  0
   13.4815   -5.1069    0.0000 C   0  0  0  0  0  0  0  0  0  0  0  0
   16.4209   -1.3137    0.0000 O   0  0  0  0  0  0  0  0  0  0  0  0
   14.8280   -8.4239    0.0000 S   0  0  0  0  0  0  0  0  0  0  0  0
   14.8280   -9.9346    0.0000 O   0  0  0  0  0  0  0  0  0  0  0  0
   16.1581   -8.4239    0.0000 O   0  0  0  0  0  0  0  0  0  0  0  0
   14.8280   -7.0938    0.0000 O   0  0  0  0  0  0  0  0  0  0  0  0
   13.4487   -8.4239    0.0000 C   0  0  0  0  0  0  0  0  0  0  0  0
  1  6  1  0  0  0  0
  1  2  2  0  0  0  0
  2  3  1  0  0  0  0
  3  4  2  0  0  0  0
  4  5  1  0  0  0  0
  4  7  1  0  0  0  0
  5  9  1  0  0  0  0
  5  6  2  0  0  0  0
  7  8  1  0  0  0  0
  8  9  2  0  0  0  0
  9 10  1  0  0  0  0
 10 11  1  0  0  0  0
 10 15  1  0  0  0  0
 11 12  1  0  0  0  0
 12 13  1  0  0  0  0
 13 14  1  0  0  0  0
 13 16  1  0  0  0  0
 14 15  1  0  0  0  0
 16 17  1  0  0  0  0
 17 18  1  0  0  0  0
 18 19  2  0  0  0  0
 18 21  1  0  0  0  0
 19 23  1  0  0  0  0
 20 22  1  0  0  0  0
 20 21  2  0  0  0  0
 20 28  1  0  0  0  0
 22 23  2  0  0  0  0
 22 27  1  0  0  0  0
 23 24  1  0  0  0  0
 24 25  1  0  0  0  0
 24 29  1  0  0  0  0
 24 30  1  0  0  0  0
 25 26  1  0  0  0  0
 26 27  1  0  0  0  0
 26 31  2  0  0  0  0
 32 33  2  0  0  0  0
 32 34  1  0  0  0  0
 32 35  2  0  0  0  0
 32 36  1  0  0  0  0
M  END
> <ID>
12413

> <Formula>
C26H34N4O4S2

> <FW>
530.7026 (434.5969+96.1057)

> <DSSTox_CID>
27271

> <DSSTox_RID>
82227

> <DSSTox_GSID>
47271

> <DSSTox_FileID_Sort>
6908

> <TS_ChemName>
PharmaCode_0343701

> <TS_ChemName_Synonyms>
6-{2-[4-(1,2-benzothiazol-3-yl)piperazin-1-yl]ethyl}-4,4,8-trimethyl-3,4-dihydroquinolin-2(1H)-one methanesulfonate

> <TS_CASRN>
676116-04-4

> <CASRN_ChemName_Relationship>
primary

> <TS_Description>
single chemical compound

> <ChemNote>


> <STRUCTURE_Shown>
tested chemical

> <STRUCTURE_Formula>
C26H34N4O4S2

> <STRUCTURE_MW>
530.7026

> <STRUCTURE_ChemType>
defined organic

> <STRUCTURE_DefinedOrganicForm>
complex

> <STRUCTURE_IUPAC>
6-{2-[4-(1,2-benzothiazol-3-yl)piperazin-1-yl]ethyl}-4,4,8-trimethyl-3,4-dihydroquinolin-2(1H)-one methanesulfonate (1:1)

> <STRUCTURE_SMILES>
CS(=O)(=O)O.Cc2cc(cc1c2NC(=O)CC1(C)C)CCN3CCN(CC3)c5nsc4ccccc45

> <STRUCTURE_SMILES_Desalt>
Cc2cc(cc1c2NC(=O)CC1(C)C)CCN3CCN(CC3)c5nsc4ccccc45

> <Substance_modify_yyyymmdd>
20130910

$$$$
