67634-00-8
ChemmineR-0915142007XD

 13 12  0  0  0  0  0  0  0  0  1 V2000
    4.6028   -0.6738    0.0000 O   0  0  0  0  0  0  0  0  0  0  0  0
    4.6028   -2.0008    0.0000 C   0  0  0  0  0  0  0  0  0  0  0  0
    3.4521   -2.6643    0.0000 O   0  0  0  0  0  0  0  0  0  0  0  0
    2.3014   -2.0008    0.0000 C   0  0  0  0  0  0  0  0  0  0  0  0
    1.1507   -2.6643    0.0000 C   0  0  0  0  0  0  0  0  0  0  0  0
    0.0000   -2.0008    0.0000 C   0  0  0  0  0  0  0  0  0  0  0  0
    5.7639   -2.6643    0.0000 C   0  0  0  0  0  0  0  0  0  0  0  0
    6.9146   -2.0008    0.0000 O   0  0  0  0  0  0  0  0  0  0  0  0
    6.9146   -0.6738    0.0000 C   0  0  0  0  0  0  0  0  0  0  0  0
    8.0653    0.0000    0.0000 C   0  0  0  0  0  0  0  0  0  0  0  0
    9.2161   -0.6738    0.0000 C   0  0  0  0  0  0  0  0  0  0  0  0
   10.3668    0.0000    0.0000 C   0  0  0  0  0  0  0  0  0  0  0  0
    9.2161   -2.0008    0.0000 C   0  0  0  0  0  0  0  0  0  0  0  0
  1  2  2  0  0  0  0
  2  3  1  0  0  0  0
  2  7  1  0  0  0  0
  3  4  1  0  0  0  0
  4  5  1  0  0  0  0
  5  6  2  0  0  0  0
  7  8  1  0  0  0  0
  8  9  1  0  0  0  0
  9 10  1  0  0  0  0
 10 11  1  0  0  0  0
 11 12  1  0  0  0  0
 11 13  1  0  0  0  0
M  END
> <ID>
4280

> <Formula>
C10H18O3

> <FW>
186.2481

> <DSSTox_CID>
5580

> <DSSTox_RID>
77839

> <DSSTox_GSID>
25580

> <DSSTox_FileID_Sort>
2522

> <TS_ChemName>
Prop-2-en-1-yl (3-methylbutoxy)acetate

> <TS_ChemName_Synonyms>
Prop-2-en-1-yl (3-methylbutoxy)acetate ((3-Methylbutoxy)acetic acid, 2-propenyl ester)

> <TS_CASRN>
67634-00-8

> <CASRN_ChemName_Relationship>
primary

> <TS_Description>
single chemical compound

> <ChemNote>


> <STRUCTURE_Shown>
tested chemical

> <STRUCTURE_Formula>
C10H18O3

> <STRUCTURE_MW>
186.2481

> <STRUCTURE_ChemType>
defined organic

> <STRUCTURE_DefinedOrganicForm>
parent

> <STRUCTURE_IUPAC>
prop-2-en-1-yl (3-methylbutoxy)acetate

> <STRUCTURE_SMILES>
CC(C)CCOCC(=O)OCC=C

> <STRUCTURE_SMILES_Desalt>
CC(C)CCOCC(=O)OCC=C

> <Substance_modify_yyyymmdd>
20080429

$$$$
