67701-03-5
ChemmineR-0915142007XD

 19 18  0  0  0  0  0  0  0  0  1 V2000
   16.1417    0.0000    0.0000 O   0  0  0  0  0  0  0  0  0  0  0  0
   17.2854   -0.6641    0.0000 C   0  0  0  0  0  0  0  0  0  0  0  0
   18.4476    0.0000    0.0000 O   0  0  0  0  0  0  0  0  0  0  0  0
   17.2854   -1.9923    0.0000 C   0  0  0  0  0  0  0  0  0  0  0  0
   16.1417   -2.6565    0.0000 C   0  0  0  0  0  0  0  0  0  0  0  0
   14.9795   -1.9923    0.0000 C   0  0  0  0  0  0  0  0  0  0  0  0
   13.8357   -2.6565    0.0000 C   0  0  0  0  0  0  0  0  0  0  0  0
   12.6735   -1.9923    0.0000 C   0  0  0  0  0  0  0  0  0  0  0  0
   11.5298   -2.6565    0.0000 C   0  0  0  0  0  0  0  0  0  0  0  0
   10.3676   -1.9923    0.0000 C   0  0  0  0  0  0  0  0  0  0  0  0
    9.2238   -2.6565    0.0000 C   0  0  0  0  0  0  0  0  0  0  0  0
    8.0801   -1.9923    0.0000 C   0  0  0  0  0  0  0  0  0  0  0  0
    6.9179   -2.6565    0.0000 C   0  0  0  0  0  0  0  0  0  0  0  0
    5.7557   -1.9923    0.0000 C   0  0  0  0  0  0  0  0  0  0  0  0
    4.6119   -2.6565    0.0000 C   0  0  0  0  0  0  0  0  0  0  0  0
    3.4682   -1.9923    0.0000 C   0  0  0  0  0  0  0  0  0  0  0  0
    2.3060   -2.6565    0.0000 C   0  0  0  0  0  0  0  0  0  0  0  0
    1.1438   -1.9923    0.0000 C   0  0  0  0  0  0  0  0  0  0  0  0
    0.0000   -2.6565    0.0000 C   0  0  0  0  0  0  0  0  0  0  0  0
  1  2  2  0  0  0  0
  2  3  1  0  0  0  0
  2  4  1  0  0  0  0
  4  5  1  0  0  0  0
  5  6  1  0  0  0  0
  6  7  1  0  0  0  0
  7  8  1  0  0  0  0
  8  9  1  0  0  0  0
  9 10  1  0  0  0  0
 10 11  1  0  0  0  0
 11 12  1  0  0  0  0
 12 13  1  0  0  0  0
 13 14  1  0  0  0  0
 14 15  1  0  0  0  0
 15 16  1  0  0  0  0
 16 17  1  0  0  0  0
 17 18  1  0  0  0  0
 18 19  1  0  0  0  0
M  END
> <ID>
1533

> <Formula>
C17H34O2

> <FW>
270.4507

> <DSSTox_CID>
1596

> <DSSTox_RID>
78651

> <DSSTox_GSID>
28306

> <DSSTox_FileID_Sort>
3333

> <TS_ChemName>
Fatty acids, C16-18

> <TS_ChemName_Synonyms>


> <TS_CASRN>
67701-03-5

> <CASRN_ChemName_Relationship>
primary

> <TS_Description>
mixture or formulation

> <ChemNote>
mixture of fatty acids; structure shown C17

> <STRUCTURE_Shown>
representative component

> <STRUCTURE_Formula>
C17H34O2

> <STRUCTURE_MW>
270.4507

> <STRUCTURE_ChemType>
defined organic

> <STRUCTURE_DefinedOrganicForm>
parent

> <STRUCTURE_IUPAC>
heptadecanoic acid

> <STRUCTURE_SMILES>
O=C(O)CCCCCCCCCCCCCCCC

> <STRUCTURE_SMILES_Desalt>
O=C(O)CCCCCCCCCCCCCCCC

> <Substance_modify_yyyymmdd>
20080429

$$$$
