6770-38-3
ChemmineR-0915142007XD

 12 12  0  0  0  0  0  0  0  0  1 V2000
    5.9919   -1.1537    0.0000 C   0  0  0  0  0  0  0  0  0  0  0  0
    5.3127   -2.3075    0.0000 C   0  0  0  0  0  0  0  0  0  0  0  0
    3.9915   -2.3075    0.0000 C   0  0  0  0  0  0  0  0  0  0  0  0
    3.3309   -1.1537    0.0000 C   0  0  0  0  0  0  0  0  0  0  0  0
    3.9915    0.0000    0.0000 C   0  0  0  0  0  0  0  0  0  0  0  0
    5.3127    0.0000    0.0000 C   0  0  0  0  0  0  0  0  0  0  0  0
    7.3225   -1.1537    0.0000 C   0  0  0  0  0  0  0  0  0  0  0  0
    7.9738    0.0000    0.0000 O   0  0  0  0  0  0  0  0  0  0  0  0
    9.3043    0.0000    0.0000 C   0  0  0  0  0  0  0  0  0  0  0  0
    2.0004   -1.1537    0.0000 C   0  0  0  0  0  0  0  0  0  0  0  0
    1.3305   -2.3075    0.0000 O   0  0  0  0  0  0  0  0  0  0  0  0
    0.0000   -2.3075    0.0000 C   0  0  0  0  0  0  0  0  0  0  0  0
  1  2  2  0  0  0  0
  1  6  1  0  0  0  0
  1  7  1  0  0  0  0
  2  3  1  0  0  0  0
  3  4  2  0  0  0  0
  4  5  1  0  0  0  0
  4 10  1  0  0  0  0
  5  6  2  0  0  0  0
  7  8  1  0  0  0  0
  8  9  1  0  0  0  0
 10 11  1  0  0  0  0
 11 12  1  0  0  0  0
M  END
> <ID>
10364

> <Formula>
C10H14O2

> <FW>
166.217

> <DSSTox_CID>
24712

> <DSSTox_RID>
80413

> <DSSTox_GSID>
44712

> <DSSTox_FileID_Sort>
5095

> <TS_ChemName>
1,4-Bis(methoxymethyl)benzene

> <TS_ChemName_Synonyms>
1,4-Bis(methoxymethyl)benzene (Benzene, 1,4-bis(methoxymethyl)-)

> <TS_CASRN>
6770-38-3

> <CASRN_ChemName_Relationship>
primary

> <TS_Description>
single chemical compound

> <ChemNote>


> <STRUCTURE_Shown>
tested chemical

> <STRUCTURE_Formula>
C10H14O2

> <STRUCTURE_MW>
166.217

> <STRUCTURE_ChemType>
defined organic

> <STRUCTURE_DefinedOrganicForm>
parent

> <STRUCTURE_IUPAC>
1,4-bis(methoxymethyl)benzene

> <STRUCTURE_SMILES>
COCc1ccc(cc1)COC

> <STRUCTURE_SMILES_Desalt>
COCc1ccc(cc1)COC

> <Substance_modify_yyyymmdd>
20091116

$$$$
