67715-80-4
ChemmineR-0915142007XD

 10 10  0  0  0  0  0  0  0  0  1 V2000
    0.0000   -1.9864    0.0000 O   0  0  0  0  0  0  0  0  0  0  0  0
    1.1515   -1.3300    0.0000 C   0  0  0  0  0  0  0  0  0  0  0  0
    2.3031   -1.9864    0.0000 S   0  0  0  0  0  0  0  0  0  0  0  0
    2.3031   -3.3107    0.0000 C   0  0  0  0  0  0  0  0  0  0  0  0
    1.1515   -3.9843    0.0000 C   0  0  0  0  0  0  0  0  0  0  0  0
    0.0000   -3.3107    0.0000 C   0  0  0  0  0  0  0  0  0  0  0  0
    1.1515    0.0000    0.0000 C   0  0  0  0  0  0  0  0  0  0  0  0
    3.4546   -3.9843    0.0000 C   0  0  0  0  0  0  0  0  0  0  0  0
    4.6061   -3.3107    0.0000 C   0  0  0  0  0  0  0  0  0  0  0  0
    5.7577   -3.9843    0.0000 C   0  0  0  0  0  0  0  0  0  0  0  0
  1  2  1  0  0  0  0
  1  6  1  0  0  0  0
  2  3  1  0  0  0  0
  2  7  1  0  0  0  0
  3  4  1  0  0  0  0
  4  5  1  0  0  0  0
  4  8  1  0  0  0  0
  5  6  1  0  0  0  0
  8  9  1  0  0  0  0
  9 10  1  0  0  0  0
M  END
> <ID>
12825

> <Formula>
C8H16OS

> <FW>
160.277

> <DSSTox_CID>
27704

> <DSSTox_RID>
82512

> <DSSTox_GSID>
47706

> <DSSTox_FileID_Sort>
7193

> <TS_ChemName>
2-Methyl-4-propyl-1,3-oxathiane

> <TS_ChemName_Synonyms>


> <TS_CASRN>
67715-80-4

> <CASRN_ChemName_Relationship>
primary

> <TS_Description>
single chemical compound

> <ChemNote>


> <STRUCTURE_Shown>
tested chemical

> <STRUCTURE_Formula>
C8H16OS

> <STRUCTURE_MW>
160.277

> <STRUCTURE_ChemType>
defined organic

> <STRUCTURE_DefinedOrganicForm>
parent

> <STRUCTURE_IUPAC>
2-methyl-4-propyl-1,3-oxathiane

> <STRUCTURE_SMILES>
CC1OCCC(CCC)S1

> <STRUCTURE_SMILES_Desalt>
CC1OCCC(CCC)S1

> <Substance_modify_yyyymmdd>
20101215

$$$$
