67747-09-5
ChemmineR-0915142007XD

 23 24  0  0  0  0  0  0  0  0  1 V2000
    8.0969   -1.9939    0.0000 N    0  0  0  0  0  0  0  0  0  0  0  0
    6.9330   -1.3461    0.0000 C    0  0  0  0  0  0  0  0  0  0  0  0
    3.4918   -6.0120    0.0000 C    0  0  0  0  0  0  0  0  0  0  0  0
    3.4918   -7.3479    0.0000 C    0  0  0  0  0  0  0  0  0  0  0  0
    2.3380   -5.3541    0.0000 C    0  0  0  0  0  0  0  0  0  0  0  0
    9.3519   -3.7448    0.0000 N    0  0  0  0  0  0  0  0  0  0  0  0
    8.0969   -3.3400    0.0000 C    0  0  0  0  0  0  0  0  0  0  0  0
    1.1842   -6.0221    0.0000 C    0  0  0  0  0  0  0  0  0  0  0  0
    2.3380   -8.0058    0.0000 C    0  0  0  0  0  0  0  0  0  0  0  0
    5.7792   -2.0040    0.0000 N    0  0  0  0  0  0  0  0  0  0  0  0
    9.3519   -1.5890    0.0000 C    0  0  0  0  0  0  0  0  0  0  0  0
    1.1842   -7.3277    0.0000 C    0  0  0  0  0  0  0  0  0  0  0  0
    6.9330    0.0000    0.0000 O    0  0  0  0  0  0  0  0  0  0  0  0
   10.1211   -2.6619    0.0000 C    0  0  0  0  0  0  0  0  0  0  0  0
    2.3380   -4.0181    0.0000 Cl   0  0  0  0  0  0  0  0  0  0  0  0
    4.6456   -8.0159    0.0000 Cl   0  0  0  0  0  0  0  0  0  0  0  0
    4.6456   -5.3440    0.0000 O    0  0  0  0  0  0  0  0  0  0  0  0
    0.0000   -7.9653    0.0000 Cl   0  0  0  0  0  0  0  0  0  0  0  0
    4.6456   -4.0080    0.0000 C    0  0  0  0  0  0  0  0  0  0  0  0
    5.7792   -3.3501    0.0000 C    0  0  0  0  0  0  0  0  0  0  0  0
    4.6456   -1.3461    0.0000 C    0  0  0  0  0  0  0  0  0  0  0  0
    3.4918   -2.0141    0.0000 C    0  0  0  0  0  0  0  0  0  0  0  0
    2.3380   -1.3562    0.0000 C    0  0  0  0  0  0  0  0  0  0  0  0
  1  2  1  0  0  0  0
  1  7  1  0  0  0  0
  1 11  1  0  0  0  0
  2 10  1  0  0  0  0
  2 13  2  0  0  0  0
  3 17  1  0  0  0  0
  3  4  2  0  0  0  0
  3  5  1  0  0  0  0
  4  9  1  0  0  0  0
  4 16  1  0  0  0  0
  5  8  2  0  0  0  0
  5 15  1  0  0  0  0
  6  7  2  0  0  0  0
  6 14  1  0  0  0  0
  8 12  1  0  0  0  0
  9 12  2  0  0  0  0
 10 20  1  0  0  0  0
 10 21  1  0  0  0  0
 11 14  2  0  0  0  0
 12 18  1  0  0  0  0
 17 19  1  0  0  0  0
 19 20  1  0  0  0  0
 21 22  1  0  0  0  0
 22 23  1  0  0  0  0
M  END
> <ID>
3595

> <Formula>
C15H16Cl3N3O2

> <FW>
376.6654

> <DSSTox_CID>
4270

> <DSSTox_RID>
77349

> <DSSTox_GSID>
24270

> <DSSTox_FileID_Sort>
2032

> <TS_ChemName>
Prochloraz

> <TS_ChemName_Synonyms>


> <TS_CASRN>
67747-09-5

> <CASRN_ChemName_Relationship>
primary

> <TS_Description>
single chemical compound

> <ChemNote>


> <STRUCTURE_Shown>
tested chemical

> <STRUCTURE_Formula>
C15H16Cl3N3O2

> <STRUCTURE_MW>
376.6654

> <STRUCTURE_ChemType>
defined organic

> <STRUCTURE_DefinedOrganicForm>
parent

> <STRUCTURE_IUPAC>
N-propyl-N-[2-(2,4,6-trichlorophenoxy)ethyl]-1H-imidazole-1-carboxamide

> <STRUCTURE_SMILES>
O=C(N(CCOc1c(Cl)cc(Cl)cc1Cl)CCC)n2ccnc2

> <STRUCTURE_SMILES_Desalt>
O=C(N(CCOc1c(Cl)cc(Cl)cc1Cl)CCC)n2ccnc2

> <Substance_modify_yyyymmdd>
20080429

$$$$
