67765-04-2
ChemmineR-0915142007XD

 14 15  0  0  0  0  0  0  0  0  1 V2000
    5.9858   -6.9120    0.0000 C   0  0  0  0  0  0  0  0  0  0  0  0
    4.6587   -6.9120    0.0000 C   0  0  0  0  0  0  0  0  0  0  0  0
    3.9882   -5.7577    0.0000 C   0  0  0  0  0  0  0  0  0  0  0  0
    4.6587   -4.6103    0.0000 C   0  0  0  0  0  0  0  0  0  0  0  0
    3.9882   -3.4560    0.0000 C   0  0  0  0  0  0  0  0  0  0  0  0
    2.6611   -3.4560    0.0000 C   0  0  0  0  0  0  0  0  0  0  0  0
    1.9976   -4.6103    0.0000 C   0  0  0  0  0  0  0  0  0  0  0  0
    2.6611   -5.7577    0.0000 C   0  0  0  0  0  0  0  0  0  0  0  0
    1.9976   -2.3017    0.0000 C   0  0  0  0  0  0  0  0  0  0  0  0
    2.6611   -1.1543    0.0000 C   0  0  0  0  0  0  0  0  0  0  0  0
    1.9976    0.0000    0.0000 C   0  0  0  0  0  0  0  0  0  0  0  0
    0.6635    0.0000    0.0000 N   0  0  0  0  0  0  0  0  0  0  0  0
    0.0000   -1.1543    0.0000 C   0  0  0  0  0  0  0  0  0  0  0  0
    0.6635   -2.3017    0.0000 C   0  0  0  0  0  0  0  0  0  0  0  0
  1  2  1  0  0  0  0
  2  3  1  0  0  0  0
  3  4  2  0  0  0  0
  3  8  1  0  0  0  0
  4  5  1  0  0  0  0
  5  6  2  0  0  0  0
  6  7  1  0  0  0  0
  6  9  1  0  0  0  0
  7  8  2  0  0  0  0
  9 10  1  0  0  0  0
  9 14  1  0  0  0  0
 10 11  1  0  0  0  0
 11 12  1  0  0  0  0
 12 13  1  0  0  0  0
 13 14  1  0  0  0  0
M  END
> <ID>
16201

> <Formula>
C13H19N

> <FW>
189.2967

> <DSSTox_CID>
31592

> <DSSTox_RID>
97476

> <DSSTox_GSID>
57803

> <DSSTox_FileID_Sort>
8543

> <TS_ChemName>
Enefexine

> <TS_ChemName_Synonyms>


> <TS_CASRN>
67765-04-2

> <CASRN_ChemName_Relationship>
primary

> <TS_Description>
single chemical compound

> <ChemNote>


> <STRUCTURE_Shown>
tested chemical

> <STRUCTURE_Formula>
C13H19N

> <STRUCTURE_MW>
189.2967

> <STRUCTURE_ChemType>
defined organic

> <STRUCTURE_DefinedOrganicForm>
parent

> <STRUCTURE_IUPAC>
4-(4-ethylphenyl)piperidine

> <STRUCTURE_SMILES>
CCc1ccc(cc1)C2CCNCC2

> <STRUCTURE_SMILES_Desalt>
CCc1ccc(cc1)C2CCNCC2

> <Substance_modify_yyyymmdd>
20131018

$$$$
