67786-14-5
ChemmineR-0915142007XD

 29 30  0  0  0  0  0  0  0  0  2 V2000
    3.4680   -7.9842    0.0000 C    0  0  0  0  0  0  0  0  0  0  0  0
    3.4680   -6.6518    0.0000 C    0  0  0  0  0  0  0  0  0  0  0  0
    2.3120   -8.6601    0.0000 C    0  0  0  0  0  0  0  0  0  0  0  0
    2.3120   -5.9955    0.0000 C    0  0  0  0  0  0  0  0  0  0  0  0
    4.6044   -5.9955    0.0000 C    0  0  0  0  0  0  0  0  0  0  0  0
    4.6044   -8.6601    0.0000 C    0  0  0  0  0  0  0  0  0  0  0  0
    5.7604   -7.9842    0.0000 C    0  0  0  0  0  0  0  0  0  0  0  0
    5.7604   -6.6518    0.0000 C    0  0  0  0  0  0  0  0  0  0  0  0
    1.1560   -6.6518    0.0000 C    0  0  0  0  0  0  0  0  0  0  0  0
    1.1560   -7.9842    0.0000 C    0  0  0  0  0  0  0  0  0  0  0  0
    6.9065   -8.6601    0.0000 S    0  0  0  0  0  0  0  0  0  0  0  0
    7.5825   -7.5041    0.0000 O    0  5  0  0  0  0  0  0  0  0  0  0
    6.2502   -9.7965    0.0000 O    0  0  0  0  0  0  0  0  0  0  0  0
    8.0625   -9.3165    0.0000 O    0  0  0  0  0  0  0  0  0  0  0  0
    0.0000   -5.9955    0.0000 N    0  0  0  0  0  0  0  0  0  0  0  0
    4.6044   -4.6631    0.0000 O    0  0  0  0  0  0  0  0  0  0  0  0
    3.4680   -3.9970    0.0000 N    0  0  0  0  0  0  0  0  0  0  0  0
    2.3120   -4.6631    0.0000 N    0  0  0  0  0  0  0  0  0  0  0  0
    4.6044   -0.6760    0.0000 C    0  0  0  0  0  0  0  0  0  0  0  0
    3.4680    0.0000    0.0000 C    0  0  0  0  0  0  0  0  0  0  0  0
    2.3120   -0.6760    0.0000 C    0  0  0  0  0  0  0  0  0  0  0  0
    2.3120   -2.0083    0.0000 C    0  0  0  0  0  0  0  0  0  0  0  0
    3.4680   -2.6647    0.0000 C    0  0  0  0  0  0  0  0  0  0  0  0
    4.6044   -2.0083    0.0000 C    0  0  0  0  0  0  0  0  0  0  0  0
    5.7604   -2.6647    0.0000 C    0  0  0  0  0  0  0  0  0  0  0  0
    5.0942   -3.8206    0.0000 F    0  0  0  0  0  0  0  0  0  0  0  0
    6.4265   -1.5087    0.0000 F    0  0  0  0  0  0  0  0  0  0  0  0
    6.9065   -3.3308    0.0000 F    0  0  0  0  0  0  0  0  0  0  0  0
    8.5426   -8.0136    0.0000 Na   0  3  0  0  0  0  0  0  0  0  0  0
  1  2  2  0  0  0  0
  1  3  1  0  0  0  0
  1  6  1  0  0  0  0
  2  4  1  0  0  0  0
  2  5  1  0  0  0  0
  3 10  2  0  0  0  0
  4  9  2  0  0  0  0
  4 18  1  0  0  0  0
  5  8  2  0  0  0  0
  5 16  1  0  0  0  0
  6  7  2  0  0  0  0
  7  8  1  0  0  0  0
  7 11  1  0  0  0  0
  9 10  1  0  0  0  0
  9 15  1  0  0  0  0
 11 12  1  0  0  0  0
 11 13  2  0  0  0  0
 11 14  2  0  0  0  0
 17 23  1  0  0  0  0
 17 18  2  0  0  0  0
 19 24  2  0  0  0  0
 19 20  1  0  0  0  0
 20 21  2  0  0  0  0
 21 22  1  0  0  0  0
 22 23  2  0  0  0  0
 23 24  1  0  0  0  0
 24 25  1  0  0  0  0
 25 26  1  0  0  0  0
 25 27  1  0  0  0  0
 25 28  1  0  0  0  0
M  END
> <ID>
10365

> <Formula>
C17H11F3N3NaO4S

> <FW>
433.3369 (410.3477+22.9892)

> <DSSTox_CID>
24713

> <DSSTox_RID>
80414

> <DSSTox_GSID>
44713

> <DSSTox_FileID_Sort>
5096

> <TS_ChemName>
Acid Red 337

> <TS_ChemName_Synonyms>
Acid Red 337 (2-Naphthalenesulfonic acid, 6-amino-4-hydroxy-5-[[2-(trifluoromethyl)phenyl]azo]-, monosodium salt)

> <TS_CASRN>
67786-14-5

> <CASRN_ChemName_Relationship>
primary

> <TS_Description>
single chemical compound

> <ChemNote>
parent [37078-97-0]

> <STRUCTURE_Shown>
tested chemical

> <STRUCTURE_Formula>
C17H11F3N3NaO4S

> <STRUCTURE_MW>
433.3369

> <STRUCTURE_ChemType>
defined organic

> <STRUCTURE_DefinedOrganicForm>
salt

> <STRUCTURE_IUPAC>
sodium 6-amino-4-hydroxy-5-{(E)-[2-(trifluoromethyl)phenyl]diazenyl}naphthalene-2-sulfonate

> <STRUCTURE_SMILES>
[Na+].FC(F)(F)c3ccccc3/N=N/c2c(N)ccc1cc(cc(O)c12)S([O-])(=O)=O

> <STRUCTURE_SMILES_Desalt>
FC(F)(F)c3ccccc3/N=N/c2c(N)ccc1cc(cc(O)c12)S(=O)(=O)O

> <Substance_modify_yyyymmdd>
20091116

$$$$
