678-39-7
ChemmineR-0915142007XD

 28 27  0  0  0  0  0  0  0  0  1 V2000
   11.5922   -1.3135    0.0000 C   0  0  0  0  0  0  0  0  0  0  0  0
   10.4062   -1.9894    0.0000 C   0  0  0  0  0  0  0  0  0  0  0  0
    9.2712   -1.3135    0.0000 C   0  0  0  0  0  0  0  0  0  0  0  0
    8.1107   -1.9894    0.0000 C   0  0  0  0  0  0  0  0  0  0  0  0
    6.9247   -1.3135    0.0000 C   0  0  0  0  0  0  0  0  0  0  0  0
    5.7770   -1.9894    0.0000 C   0  0  0  0  0  0  0  0  0  0  0  0
    4.6420   -1.3135    0.0000 C   0  0  0  0  0  0  0  0  0  0  0  0
    3.4815   -1.9894    0.0000 C   0  0  0  0  0  0  0  0  0  0  0  0
    2.3465   -1.3135    0.0000 C   0  0  0  0  0  0  0  0  0  0  0  0
    1.1605   -1.9894    0.0000 C   0  0  0  0  0  0  0  0  0  0  0  0
   12.7527   -1.9894    0.0000 O   0  0  0  0  0  0  0  0  0  0  0  0
    9.2712    0.0000    0.0000 F   0  0  0  0  0  0  0  0  0  0  0  0
    9.2712   -2.6653    0.0000 F   0  0  0  0  0  0  0  0  0  0  0  0
    8.1107   -3.3029    0.0000 F   0  0  0  0  0  0  0  0  0  0  0  0
    8.1107   -0.6376    0.0000 F   0  0  0  0  0  0  0  0  0  0  0  0
    6.9247    0.0000    0.0000 F   0  0  0  0  0  0  0  0  0  0  0  0
    6.9247   -2.6653    0.0000 F   0  0  0  0  0  0  0  0  0  0  0  0
    5.7770   -3.3029    0.0000 F   0  0  0  0  0  0  0  0  0  0  0  0
    5.7770   -0.6376    0.0000 F   0  0  0  0  0  0  0  0  0  0  0  0
    4.6420    0.0000    0.0000 F   0  0  0  0  0  0  0  0  0  0  0  0
    4.6420   -2.6653    0.0000 F   0  0  0  0  0  0  0  0  0  0  0  0
    3.4815   -3.3029    0.0000 F   0  0  0  0  0  0  0  0  0  0  0  0
    3.4815   -0.6376    0.0000 F   0  0  0  0  0  0  0  0  0  0  0  0
    2.3465    0.0000    0.0000 F   0  0  0  0  0  0  0  0  0  0  0  0
    2.3592   -2.4995    0.0000 F   0  0  0  0  0  0  0  0  0  0  0  0
    0.0000   -1.3135    0.0000 F   0  0  0  0  0  0  0  0  0  0  0  0
    1.1605   -3.3029    0.0000 F   0  0  0  0  0  0  0  0  0  0  0  0
    0.0000   -2.6653    0.0000 F   0  0  0  0  0  0  0  0  0  0  0  0
  1  2  1  0  0  0  0
  1 11  1  0  0  0  0
  2  3  1  0  0  0  0
  3  4  1  0  0  0  0
  3 12  1  0  0  0  0
  3 13  1  0  0  0  0
  4  5  1  0  0  0  0
  4 14  1  0  0  0  0
  4 15  1  0  0  0  0
  5  6  1  0  0  0  0
  5 16  1  0  0  0  0
  5 17  1  0  0  0  0
  6  7  1  0  0  0  0
  6 18  1  0  0  0  0
  6 19  1  0  0  0  0
  7  8  1  0  0  0  0
  7 20  1  0  0  0  0
  7 21  1  0  0  0  0
  8  9  1  0  0  0  0
  8 22  1  0  0  0  0
  8 23  1  0  0  0  0
  9 10  1  0  0  0  0
  9 24  1  0  0  0  0
  9 25  1  0  0  0  0
 10 26  1  0  0  0  0
 10 27  1  0  0  0  0
 10 28  1  0  0  0  0
M  END
> <ID>
6247

> <Formula>
C10H5F17O

> <FW>
464.119

> <DSSTox_CID>
9904

> <DSSTox_RID>
78831

> <DSSTox_GSID>
29904

> <DSSTox_FileID_Sort>
3513

> <TS_ChemName>
1,1,2,2-Tetrahydroperfluoro-1-decanol

> <TS_ChemName_Synonyms>
8:2 FTOH (fluorotelomer alcohol)

> <TS_CASRN>
678-39-7

> <CASRN_ChemName_Relationship>
primary

> <TS_Description>
single chemical compound

> <ChemNote>


> <STRUCTURE_Shown>
tested chemical

> <STRUCTURE_Formula>
C10H5F17O

> <STRUCTURE_MW>
464.119

> <STRUCTURE_ChemType>
defined organic

> <STRUCTURE_DefinedOrganicForm>
parent

> <STRUCTURE_IUPAC>
3,3,4,4,5,5,6,6,7,7,8,8,9,9,10,10,10-heptadecafluorodecan-1-ol

> <STRUCTURE_SMILES>
FC(F)(C(F)(F)CCO)C(F)(F)C(F)(F)C(F)(F)C(F)(F)C(F)(F)C(F)(F)F

> <STRUCTURE_SMILES_Desalt>
FC(F)(C(F)(F)CCO)C(F)(F)C(F)(F)C(F)(F)C(F)(F)C(F)(F)C(F)(F)F

> <Substance_modify_yyyymmdd>
20080429

$$$$
