67814-76-0
ChemmineR-0915142007XD

 44 45  0  0  1  0  0  0  0  0  1 V2000
    8.0678   -4.8323    0.0000 C   0  0  0  0  0  0  0  0  0  0  0  0
    8.0678   -6.1629    0.0000 C   0  0  0  0  0  0  0  0  0  0  0  0
    6.9193   -4.1600    0.0000 C   0  0  0  0  0  0  0  0  0  0  0  0
    6.9193   -6.8212    0.0000 C   0  0  0  0  0  0  0  0  0  0  0  0
    5.7707   -4.8323    0.0000 C   0  0  0  0  0  0  0  0  0  0  0  0
    5.7707   -6.1629    0.0000 C   0  0  0  0  0  0  0  0  0  0  0  0
    9.2163   -4.1600    0.0000 N   0  0  0  0  0  0  0  0  0  0  0  0
    4.6222   -4.1600    0.0000 N   0  0  0  0  0  0  0  0  0  0  0  0
    4.6222   -6.8212    0.0000 O   0  0  0  0  0  0  0  0  0  0  0  0
    6.9193   -8.1518    0.0000 O   0  0  0  0  0  0  0  0  0  0  0  0
    9.2163   -6.8212    0.0000 O   0  0  0  0  0  0  0  0  0  0  0  0
    9.2163   -2.8293    0.0000 C   0  0  0  0  0  0  0  0  0  0  0  0
   10.3789   -2.1710    0.0000 C   0  0  0  0  0  0  0  0  0  0  0  0
    8.0678   -2.1710    0.0000 O   0  0  0  0  0  0  0  0  0  0  0  0
   11.5274   -2.8293    0.0000 O   0  0  0  0  0  0  0  0  0  0  0  0
   11.5274   -0.1681    0.0000 N   0  0  0  0  0  0  0  0  0  0  0  0
   10.3789   -0.8404    0.0000 C   0  0  0  0  0  0  0  0  0  0  0  0
   11.5274   -4.1600    0.0000 C   0  0  0  0  0  0  0  0  0  0  0  0
   12.6760   -4.8323    0.0000 C   0  0  0  0  0  0  0  0  0  0  0  0
   10.3789   -4.8323    0.0000 O   0  0  0  0  0  0  0  0  0  0  0  0
   12.6760   -6.1629    0.0000 C   0  0  0  0  0  0  0  0  0  0  0  0
   10.3789   -6.1629    0.0000 C   0  0  0  0  0  0  0  0  0  0  0  0
   11.5274   -6.8212    0.0000 C   0  0  0  0  0  0  0  0  0  0  0  0
   14.0066   -4.8323    0.0000 O   0  0  0  0  0  0  0  0  0  0  0  0
   13.8105   -6.8212    0.0000 N   0  0  0  0  0  0  0  0  0  0  0  0
   11.5274   -8.1518    0.0000 O   0  0  0  0  0  0  0  0  0  0  0  0
   13.3343   -3.6837    0.0000 C   0  0  0  0  0  0  0  0  0  0  0  0
   13.8105   -8.1518    0.0000 C   0  0  0  0  0  0  0  0  0  0  0  0
    3.4736   -6.1629    0.0000 C   0  0  0  0  0  0  0  0  0  0  0  0
    2.3251   -6.8212    0.0000 C   0  0  0  0  0  0  0  0  0  0  0  0
    3.4736   -4.8323    0.0000 O   0  0  0  0  0  0  0  0  0  0  0  0
    1.1485   -6.1629    0.0000 C   0  0  0  0  0  0  0  0  0  0  0  0
    2.3251   -4.1600    0.0000 C   0  0  0  0  0  0  0  0  0  0  0  0
    1.1485   -4.8323    0.0000 C   0  0  0  0  0  0  0  0  0  0  0  0
    2.3251   -8.1518    0.0000 O   0  0  0  0  0  0  0  0  0  0  0  0
    0.0000   -6.8212    0.0000 O   0  0  0  0  0  0  0  0  0  0  0  0
    0.0000   -4.1600    0.0000 O   0  0  0  0  0  0  0  0  0  0  0  0
    2.3251   -2.8293    0.0000 C   0  0  0  0  0  0  0  0  0  0  0  0
    1.1485   -2.1710    0.0000 N   0  0  0  0  0  0  0  0  0  0  0  0
    5.3225   -1.3306    0.0000 S   0  0  0  0  0  0  0  0  0  0  0  0
    6.6531   -1.3306    0.0000 O   0  0  0  0  0  0  0  0  0  0  0  0
    3.9919   -1.3306    0.0000 O   0  0  0  0  0  0  0  0  0  0  0  0
    5.3225   -2.6613    0.0000 O   0  0  0  0  0  0  0  0  0  0  0  0
    5.3225    0.0000    0.0000 O   0  0  0  0  0  0  0  0  0  0  0  0
  1  2  1  0  0  0  0
  1  3  1  0  0  0  0
  1  7  1  1  0  0  0
  2  4  1  0  0  0  0
  2 11  1  6  0  0  0
  3  5  1  0  0  0  0
  4  6  1  0  0  0  0
  4 10  1  1  0  0  0
  5  6  1  0  0  0  0
  5  8  1  1  0  0  0
  6  9  1  6  0  0  0
  7 12  1  0  0  0  0
 29  9  1  6  0  0  0
 22 11  1  1  0  0  0
 12 13  1  0  0  0  0
 12 14  2  0  0  0  0
 13 15  1  0  0  0  0
 13 17  1  0  0  0  0
 16 17  1  0  0  0  0
 18 19  1  0  0  0  0
 18 20  1  0  0  0  0
 19 21  1  0  0  0  0
 19 24  1  6  0  0  0
 19 27  1  0  0  0  0
 20 22  1  0  0  0  0
 21 23  1  0  0  0  0
 21 25  1  6  0  0  0
 22 23  1  0  0  0  0
 23 26  1  1  0  0  0
 25 28  1  0  0  0  0
 29 30  1  0  0  0  0
 29 31  1  0  0  0  0
 30 32  1  0  0  0  0
 30 35  1  6  0  0  0
 31 33  1  0  0  0  0
 32 34  1  0  0  0  0
 32 36  1  1  0  0  0
 33 34  1  0  0  0  0
 33 38  1  1  0  0  0
 34 37  1  6  0  0  0
 38 39  1  0  0  0  0
 40 41  2  0  0  0  0
 40 42  2  0  0  0  0
 40 43  1  0  0  0  0
 40 44  1  0  0  0  0
M  END
> <ID>
11702

> <Formula>
C22H45N5O16S

> <FW>
667.6816 (569.6031+98.0785)

> <DSSTox_CID>
26462

> <DSSTox_RID>
81636

> <DSSTox_GSID>
46462

> <DSSTox_FileID_Sort>
6317

> <TS_ChemName>
Isepamicin sulfate

> <TS_ChemName_Synonyms>


> <TS_CASRN>
67814-76-0

> <CASRN_ChemName_Relationship>
primary

> <TS_Description>
single chemical compound

> <ChemNote>
stereochem; parent [58152-03-7]

> <STRUCTURE_Shown>
tested chemical

> <STRUCTURE_Formula>
C22H45N5O16S

> <STRUCTURE_MW>
667.6816

> <STRUCTURE_ChemType>
defined organic

> <STRUCTURE_DefinedOrganicForm>
complex

> <STRUCTURE_IUPAC>
3-amino-N-[(1R,2S,3S,4R,5S)-5-amino-4-[(6-amino-6-deoxy-alpha-D-glucopyranosyl)oxy]-2-{[3-deoxy-4-C-methyl-3-(methylamino)-beta-L-arabinopyranosyl]oxy}-3-hydroxycyclohexyl]-2-hydroxypropanamide sulfate (1:1)

> <STRUCTURE_SMILES>
O=S(=O)(O)O.NCC(O)C(=O)N[C@@H]3C[C@H](N)[C@@H](O[C@H]1O[C@H](CN)[C@@H](O)[C@H](O)[C@H]1O)[C@H](O)[C@H]3O[C@H]2OC[C@](C)(O)[C@H](NC)[C@H]2O

> <STRUCTURE_SMILES_Desalt>
NCC(O)C(=O)N[C@@H]3C[C@H](N)[C@@H](O[C@H]1O[C@H](CN)[C@@H](O)[C@H](O)[C@H]1O)[C@H](O)[C@H]3O[C@H]2OC[C@](C)(O)[C@H](NC)[C@H]2O

> <Substance_modify_yyyymmdd>
20110812

$$$$
