67874-72-0
ChemmineR-0915142007XD

 15 15  0  0  0  0  0  0  0  0  1 V2000
    3.4471   -2.0048    0.0000 C   0  0  0  0  0  0  0  0  0  0  0  0
    4.6021   -2.6631    0.0000 C   0  0  0  0  0  0  0  0  0  0  0  0
    5.7572   -2.0048    0.0000 C   0  0  0  0  0  0  0  0  0  0  0  0
    5.7572   -0.6763    0.0000 C   0  0  0  0  0  0  0  0  0  0  0  0
    4.6021    0.0000    0.0000 C   0  0  0  0  0  0  0  0  0  0  0  0
    3.4471   -0.6763    0.0000 C   0  0  0  0  0  0  0  0  0  0  0  0
    2.3100   -2.6631    0.0000 O   0  0  0  0  0  0  0  0  0  0  0  0
    4.6021   -3.9977    0.0000 C   0  0  0  0  0  0  0  0  0  0  0  0
    4.6021   -5.3263    0.0000 C   0  0  0  0  0  0  0  0  0  0  0  0
    5.7572   -5.9846    0.0000 C   0  0  0  0  0  0  0  0  0  0  0  0
    5.9367   -3.9977    0.0000 C   0  0  0  0  0  0  0  0  0  0  0  0
    3.2736   -3.9977    0.0000 C   0  0  0  0  0  0  0  0  0  0  0  0
    1.1550   -2.0048    0.0000 C   0  0  0  0  0  0  0  0  0  0  0  0
    1.1550   -0.6763    0.0000 O   0  0  0  0  0  0  0  0  0  0  0  0
    0.0000   -2.6631    0.0000 C   0  0  0  0  0  0  0  0  0  0  0  0
  1  2  1  0  0  0  0
  1  6  1  0  0  0  0
  1  7  1  0  0  0  0
  2  3  1  0  0  0  0
  2  8  1  0  0  0  0
  3  4  1  0  0  0  0
  4  5  1  0  0  0  0
  5  6  1  0  0  0  0
  7 13  1  0  0  0  0
  8  9  1  0  0  0  0
  8 11  1  0  0  0  0
  8 12  1  0  0  0  0
  9 10  1  0  0  0  0
 13 14  2  0  0  0  0
 13 15  1  0  0  0  0
M  END
> <ID>
10227

> <Formula>
C13H24O2

> <FW>
212.3285

> <DSSTox_CID>
24573

> <DSSTox_RID>
80322

> <DSSTox_GSID>
44573

> <DSSTox_FileID_Sort>
5004

> <TS_ChemName>
2-(2-Methylbutan-2-yl)cyclohexyl acetate

> <TS_ChemName_Synonyms>
Coniferon

> <TS_CASRN>
67874-72-0

> <CASRN_ChemName_Relationship>
primary

> <TS_Description>
single chemical compound

> <ChemNote>


> <STRUCTURE_Shown>
tested chemical

> <STRUCTURE_Formula>
C13H24O2

> <STRUCTURE_MW>
212.3285

> <STRUCTURE_ChemType>
defined organic

> <STRUCTURE_DefinedOrganicForm>
parent

> <STRUCTURE_IUPAC>
2-(2-methylbutan-2-yl)cyclohexyl acetate

> <STRUCTURE_SMILES>
O=C(C)OC1CCCCC1C(C)(C)CC

> <STRUCTURE_SMILES_Desalt>
O=C(C)OC1CCCCC1C(C)(C)CC

> <Substance_modify_yyyymmdd>
20091116

$$$$
