67883-79-8
ChemmineR-0915142007XD

 13 12  0  0  0  0  0  0  0  0  1 V2000
    0.0000   -1.9956    0.0000 C   0  0  0  0  0  0  0  0  0  0  0  0
    1.1477   -1.3235    0.0000 C   0  0  0  0  0  0  0  0  0  0  0  0
    2.2851   -1.9956    0.0000 C   0  0  0  0  0  0  0  0  0  0  0  0
    3.4328   -1.3235    0.0000 C   0  0  0  0  0  0  0  0  0  0  0  0
    2.2851   -3.3294    0.0000 C   0  0  0  0  0  0  0  0  0  0  0  0
    4.5909   -1.9956    0.0000 O   0  0  0  0  0  0  0  0  0  0  0  0
    3.4328    0.0000    0.0000 O   0  0  0  0  0  0  0  0  0  0  0  0
    5.7386   -1.3235    0.0000 C   0  0  0  0  0  0  0  0  0  0  0  0
    6.8863   -1.9956    0.0000 C   0  0  0  0  0  0  0  0  0  0  0  0
    8.0340   -1.3235    0.0000 C   0  0  0  0  0  0  0  0  0  0  0  0
    9.1921   -1.9956    0.0000 C   0  0  0  0  0  0  0  0  0  0  0  0
    9.1921   -3.3294    0.0000 C   0  0  0  0  0  0  0  0  0  0  0  0
   10.3398   -3.9808    0.0000 C   0  0  0  0  0  0  0  0  0  0  0  0
  1  2  1  0  0  0  0
  2  3  2  0  0  0  0
  3  4  1  0  0  0  0
  3  5  1  0  0  0  0
  4  6  1  0  0  0  0
  4  7  2  0  0  0  0
  6  8  1  0  0  0  0
  8  9  1  0  0  0  0
  9 10  1  0  0  0  0
 10 11  2  0  0  0  0
 11 12  1  0  0  0  0
 12 13  1  0  0  0  0
M  END
> <ID>
12685

> <Formula>
C11H18O2

> <FW>
182.2594

> <DSSTox_CID>
27562

> <DSSTox_RID>
82421

> <DSSTox_GSID>
47562

> <DSSTox_FileID_Sort>
7102

> <TS_ChemName>
(3Z)-Hex-3-en-1-yl (2E)-2-methylbut-2-enoate

> <TS_ChemName_Synonyms>


> <TS_CASRN>
67883-79-8

> <CASRN_ChemName_Relationship>
primary

> <TS_Description>
single chemical compound

> <ChemNote>
sterochem

> <STRUCTURE_Shown>
tested chemical

> <STRUCTURE_Formula>
C11H18O2

> <STRUCTURE_MW>
182.2594

> <STRUCTURE_ChemType>
defined organic

> <STRUCTURE_DefinedOrganicForm>
parent

> <STRUCTURE_IUPAC>
(3Z)-hex-3-en-1-yl (2E)-2-methylbut-2-enoate

> <STRUCTURE_SMILES>
O=C(OCC/C=C\CC)C(\C)=C\C

> <STRUCTURE_SMILES_Desalt>
O=C(OCC/C=C\CC)C(\C)=C\C

> <Substance_modify_yyyymmdd>
20100929

$$$$
