6790-58-5
ChemmineR-0915142007XD

 19 21  0  0  1  0  0  0  0  0  1 V2000
    4.3398   -2.6749    0.0000 C   0  0  0  0  0  0  0  0  0  0  0  0
    4.3398   -3.9850    0.0000 C   0  0  0  0  0  0  0  0  0  0  0  0
    3.2003   -1.9993    0.0000 C   0  0  0  0  0  0  0  0  0  0  0  0
    3.2003   -4.6605    0.0000 C   0  0  0  0  0  0  0  0  0  0  0  0
    2.0334   -2.6749    0.0000 C   0  0  0  0  0  0  0  0  0  0  0  0
    2.0334   -3.9986    0.0000 C   0  0  0  0  0  0  0  0  0  0  0  0
    5.4930   -1.9993    0.0000 C   0  0  0  0  0  0  0  0  0  0  0  0
    5.4930   -0.6687    0.0000 C   0  0  0  0  0  0  0  0  0  0  0  0
    3.2003   -0.6687    0.0000 C   0  0  0  0  0  0  0  0  0  0  0  0
    4.3398    0.0000    0.0000 C   0  0  0  0  0  0  0  0  0  0  0  0
    3.2003   -3.3299    0.0000 C   0  0  0  0  0  0  0  0  0  0  0  0
    2.0334   -1.3443    0.0000 H   0  0  0  0  0  0  0  0  0  0  0  0
    4.3398   -1.3443    0.0000 H   0  0  0  0  0  0  0  0  0  0  0  0
    2.0334   -5.3156    0.0000 C   0  0  0  0  0  0  0  0  0  0  0  0
    6.8236   -1.9993    0.0000 C   0  0  0  0  0  0  0  0  0  0  0  0
    6.1686   -3.1662    0.0000 C   0  0  0  0  0  0  0  0  0  0  0  0
    0.7711   -2.2586    0.0000 C   0  0  0  0  0  0  0  0  0  0  0  0
    0.0000   -3.3436    0.0000 C   0  0  0  0  0  0  0  0  0  0  0  0
    0.7711   -4.4217    0.0000 O   0  0  0  0  0  0  0  0  0  0  0  0
  1  2  1  0  0  0  0
  1  7  1  0  0  0  0
  1  3  1  0  0  0  0
  1 13  1  1  0  0  0
  2  4  1  0  0  0  0
  3  5  1  0  0  0  0
  3  9  1  0  0  0  0
  3 11  1  6  0  0  0
  4  6  1  0  0  0  0
  5 12  1  1  0  0  0
  5 17  1  0  0  0  0
  5  6  1  0  0  0  0
  6 14  1  6  0  0  0
  6 19  1  0  0  0  0
  7  8  1  0  0  0  0
  7 15  1  0  0  0  0
  7 16  1  0  0  0  0
  8 10  1  0  0  0  0
  9 10  1  0  0  0  0
 17 18  1  0  0  0  0
 18 19  1  0  0  0  0
M  END
> <ID>
12263

> <Formula>
C16H28O

> <FW>
236.3929

> <DSSTox_CID>
27113

> <DSSTox_RID>
82123

> <DSSTox_GSID>
47113

> <DSSTox_FileID_Sort>
6804

> <TS_ChemName>
(-)-Ambroxide

> <TS_ChemName_Synonyms>


> <TS_CASRN>
6790-58-5

> <CASRN_ChemName_Relationship>
primary

> <TS_Description>
single chemical compound

> <ChemNote>
stereochem

> <STRUCTURE_Shown>
tested chemical

> <STRUCTURE_Formula>
C16H28O

> <STRUCTURE_MW>
236.3929

> <STRUCTURE_ChemType>
defined organic

> <STRUCTURE_DefinedOrganicForm>
parent

> <STRUCTURE_IUPAC>
(3aR,5aS,9aS,9bR)-3a,6,6,9a-tetramethyldodecahydronaphtho[2,1-b]furan

> <STRUCTURE_SMILES>
CC3(C)CCC[C@@]1(C)[C@H]3CC[C@@]2(C)OCC[C@H]12

> <STRUCTURE_SMILES_Desalt>
CC3(C)CCC[C@@]1(C)[C@H]3CC[C@@]2(C)OCC[C@H]12

> <Substance_modify_yyyymmdd>
20120525

$$$$
