67914-60-7
ChemmineR-0915142007XD

 16 17  0  0  0  0  0  0  0  0  1 V2000
    3.9894   -9.2134    0.0000 C   0  0  0  0  0  0  0  0  0  0  0  0
    4.6528   -8.0617    0.0000 C   0  0  0  0  0  0  0  0  0  0  0  0
    5.9887   -8.0617    0.0000 O   0  0  0  0  0  0  0  0  0  0  0  0
    3.9894   -6.9100    0.0000 N   0  0  0  0  0  0  0  0  0  0  0  0
    4.6528   -5.7584    0.0000 C   0  0  0  0  0  0  0  0  0  0  0  0
    3.9894   -4.6067    0.0000 C   0  0  0  0  0  0  0  0  0  0  0  0
    2.6627   -4.6067    0.0000 N   0  0  0  0  0  0  0  0  0  0  0  0
    1.9993   -5.7584    0.0000 C   0  0  0  0  0  0  0  0  0  0  0  0
    2.6627   -6.9100    0.0000 C   0  0  0  0  0  0  0  0  0  0  0  0
    1.9993   -3.4550    0.0000 C   0  0  0  0  0  0  0  0  0  0  0  0
    2.6627   -2.3033    0.0000 C   0  0  0  0  0  0  0  0  0  0  0  0
    1.9993   -1.1517    0.0000 C   0  0  0  0  0  0  0  0  0  0  0  0
    0.6634   -1.1517    0.0000 C   0  0  0  0  0  0  0  0  0  0  0  0
    0.0000    0.0000    0.0000 O   0  0  0  0  0  0  0  0  0  0  0  0
    0.0000   -2.3033    0.0000 C   0  0  0  0  0  0  0  0  0  0  0  0
    0.6634   -3.4550    0.0000 C   0  0  0  0  0  0  0  0  0  0  0  0
  1  2  1  0  0  0  0
  2  3  2  0  0  0  0
  2  4  1  0  0  0  0
  4  5  1  0  0  0  0
  4  9  1  0  0  0  0
  5  6  1  0  0  0  0
  6  7  1  0  0  0  0
  7  8  1  0  0  0  0
  7 10  1  0  0  0  0
  8  9  1  0  0  0  0
 10 11  2  0  0  0  0
 10 16  1  0  0  0  0
 11 12  1  0  0  0  0
 12 13  2  0  0  0  0
 13 14  1  0  0  0  0
 13 15  1  0  0  0  0
 15 16  2  0  0  0  0
M  END
> <ID>
16202

> <Formula>
C12H16N2O2

> <FW>
220.2676

> <DSSTox_CID>
31593

> <DSSTox_RID>
97477

> <DSSTox_GSID>
57804

> <DSSTox_FileID_Sort>
8544

> <TS_ChemName>
4-(4-Acetylpiperazin-4-yl)phenol

> <TS_ChemName_Synonyms>


> <TS_CASRN>
67914-60-7

> <CASRN_ChemName_Relationship>
primary

> <TS_Description>
single chemical compound

> <ChemNote>


> <STRUCTURE_Shown>
tested chemical

> <STRUCTURE_Formula>
C12H16N2O2

> <STRUCTURE_MW>
220.2676

> <STRUCTURE_ChemType>
defined organic

> <STRUCTURE_DefinedOrganicForm>
parent

> <STRUCTURE_IUPAC>
1-[4-(4-hydroxyphenyl)piperazin-1-yl]ethanone

> <STRUCTURE_SMILES>
O=C(C)N1CCN(CC1)c2ccc(O)cc2

> <STRUCTURE_SMILES_Desalt>
O=C(C)N1CCN(CC1)c2ccc(O)cc2

> <Substance_modify_yyyymmdd>
20131018

$$$$
