67915-31-5
ChemmineR-0915142007XD

 37 41  0  0  1  0  0  0  0  0  1 V2000
   14.5294   -4.0559    0.0000 C    0  0  0  0  0  0  0  0  0  0  0  0
   15.1455   -5.1512    0.0000 C    0  0  0  0  0  0  0  0  0  0  0  0
   15.5562   -3.3200    0.0000 C    0  0  0  0  0  0  0  0  0  0  0  0
   13.6566   -5.0656    0.0000 O    0  0  0  0  0  0  0  0  0  0  0  0
   15.5391   -2.0194    0.0000 N    0  0  0  0  0  0  0  0  0  0  0  0
   16.1723    0.0000    0.0000 N    0  0  0  0  0  0  0  0  0  0  0  0
   13.7764   -2.9949    0.0000 O    0  0  0  0  0  0  0  0  0  0  0  0
    4.7062   -5.6304    0.0000 N    0  0  0  0  0  0  0  0  0  0  0  0
   14.4781   -6.2978    0.0000 C    0  0  0  0  0  0  0  0  0  0  0  0
   14.4439   -1.2322    0.0000 N    0  0  0  0  0  0  0  0  0  0  0  0
    2.0365   -5.6304    0.0000 N    0  0  0  0  0  0  0  0  0  0  0  0
   14.9059    0.0000    0.0000 C    0  0  0  0  0  0  0  0  0  0  0  0
   16.5830   -1.2664    0.0000 C    0  0  0  0  0  0  0  0  0  0  0  0
   16.4633   -5.1512    0.0000 C    0  0  0  0  0  0  0  0  0  0  0  0
   15.1284   -7.4273    0.0000 C    0  0  0  0  0  0  0  0  0  0  0  0
    6.0411   -5.6304    0.0000 C    0  0  0  0  0  0  0  0  0  0  0  0
   12.4416   -4.5864    0.0000 C    0  0  0  0  0  0  0  0  0  0  0  0
    4.0046   -6.8112    0.0000 C    0  0  0  0  0  0  0  0  0  0  0  0
    4.0730   -4.4838    0.0000 C    0  0  0  0  0  0  0  0  0  0  0  0
    2.7382   -4.4838    0.0000 C    0  0  0  0  0  0  0  0  0  0  0  0
    2.7211   -6.8112    0.0000 C    0  0  0  0  0  0  0  0  0  0  0  0
   12.4587   -3.3200    0.0000 C    0  0  0  0  0  0  0  0  0  0  0  0
    6.6914   -6.8112    0.0000 C    0  0  0  0  0  0  0  0  0  0  0  0
    6.7427   -4.4838    0.0000 C    0  0  0  0  0  0  0  0  0  0  0  0
   16.4461   -7.4273    0.0000 C    0  0  0  0  0  0  0  0  0  0  0  0
    0.7017   -5.6304    0.0000 C    0  0  0  0  0  0  0  0  0  0  0  0
   13.1432   -6.3149    0.0000 Cl   0  0  0  0  0  0  0  0  0  0  0  0
   10.0114   -5.6304    0.0000 O    0  0  0  0  0  0  0  0  0  0  0  0
   17.1136   -6.2978    0.0000 C    0  0  0  0  0  0  0  0  0  0  0  0
    8.6766   -5.6304    0.0000 C    0  0  0  0  0  0  0  0  0  0  0  0
   10.9013   -4.5864    0.0000 C    0  0  0  0  0  0  0  0  0  0  0  0
    8.0263   -6.8112    0.0000 C    0  0  0  0  0  0  0  0  0  0  0  0
    8.0605   -4.4838    0.0000 C    0  0  0  0  0  0  0  0  0  0  0  0
   17.0965   -8.5739    0.0000 Cl   0  0  0  0  0  0  0  0  0  0  0  0
    0.0856   -4.4838    0.0000 C    0  0  0  0  0  0  0  0  0  0  0  0
    0.0000   -6.8112    0.0000 C    0  0  0  0  0  0  0  0  0  0  0  0
   11.7399   -5.8528    0.0000 H    0  0  0  0  0  0  0  0  0  0  0  0
  1  2  1  6  0  0  0
  1  3  1  1  0  0  0
  1  4  1  0  0  0  0
  1  7  1  0  0  0  0
  2  9  2  0  0  0  0
  2 14  1  0  0  0  0
  3  5  1  0  0  0  0
  4 17  1  0  0  0  0
  5 10  1  0  0  0  0
  5 13  1  0  0  0  0
  6 13  2  0  0  0  0
  6 12  1  0  0  0  0
  7 22  1  0  0  0  0
  8 16  1  0  0  0  0
  8 18  1  0  0  0  0
  8 19  1  0  0  0  0
  9 15  1  0  0  0  0
  9 27  1  0  0  0  0
 10 12  2  0  0  0  0
 11 20  1  0  0  0  0
 11 26  1  0  0  0  0
 11 21  1  0  0  0  0
 14 29  2  0  0  0  0
 15 25  2  0  0  0  0
 16 24  2  0  0  0  0
 16 23  1  0  0  0  0
 17 31  1  1  0  0  0
 17 37  1  6  0  0  0
 17 22  1  0  0  0  0
 18 21  1  0  0  0  0
 19 20  1  0  0  0  0
 23 32  2  0  0  0  0
 24 33  1  0  0  0  0
 25 29  1  0  0  0  0
 25 34  1  0  0  0  0
 26 35  1  0  0  0  0
 26 36  1  0  0  0  0
 28 31  1  0  0  0  0
 28 30  1  0  0  0  0
 30 32  1  0  0  0  0
 30 33  2  0  0  0  0
M  END
> <ID>
10985

> <Formula>
C26H31Cl2N5O3

> <FW>
532.462

> <DSSTox_CID>
25498

> <DSSTox_RID>
80917

> <DSSTox_GSID>
45498

> <DSSTox_FileID_Sort>
5598

> <TS_ChemName>
Terconazole

> <TS_ChemName_Synonyms>


> <TS_CASRN>
67915-31-5

> <CASRN_ChemName_Relationship>
primary

> <TS_Description>
single chemical compound

> <ChemNote>
stereochem

> <STRUCTURE_Shown>
tested chemical

> <STRUCTURE_Formula>
C26H31Cl2N5O3

> <STRUCTURE_MW>
532.462

> <STRUCTURE_ChemType>
defined organic

> <STRUCTURE_DefinedOrganicForm>
parent

> <STRUCTURE_IUPAC>
1-(4-{[(2R,4S)-2-(2,4-dichlorophenyl)-2-(1H-1,2,4-triazol-1-ylmethyl)-1,3-dioxolan-4-yl]methoxy}phenyl)-4-(propan-2-yl)piperazine

> <STRUCTURE_SMILES>
CC(C)N1CCN(CC1)c2ccc(cc2)OC[C@H]4CO[C@@](Cn3ncnc3)(O4)c5ccc(Cl)cc5Cl

> <STRUCTURE_SMILES_Desalt>
CC(C)N1CCN(CC1)c2ccc(cc2)OC[C@H]4CO[C@@](Cn3ncnc3)(O4)c5ccc(Cl)cc5Cl

> <Substance_modify_yyyymmdd>
20100107

$$$$
