67953-08-6
ChemmineR-0915142007XD

 20 19  0  0  1  0  0  0  0  0  2 V2000
    6.9104   -1.3305    0.0000 C    0  0  0  0  0  0  0  0  0  0  0  0
    2.3062   -1.3305    0.0000 C    0  0  0  0  0  0  0  0  0  0  0  0
    6.9104    0.0000    0.0000 O    0  0  0  0  0  0  0  0  0  0  0  0
    5.7574   -1.9998    0.0000 C    0  0  0  0  0  0  0  0  0  0  0  0
    1.1531   -1.9998    0.0000 O    0  0  0  0  0  0  0  0  0  0  0  0
    4.6043   -1.3305    0.0000 C    0  0  0  0  0  0  0  0  0  0  0  0
    3.4593   -1.9998    0.0000 C    0  0  0  0  0  0  0  0  0  0  0  0
    2.3062    0.0000    0.0000 N    0  0  0  0  0  0  0  0  0  0  0  0
    5.7574   -3.3302    0.0000 N    0  0  0  0  0  0  0  0  0  0  0  0
    8.0635   -1.9998    0.0000 O    0  0  0  0  0  0  0  0  0  0  0  0
    4.6043   -3.9834    0.0000 C    0  0  0  0  0  0  0  0  0  0  0  0
    4.6043   -5.3139    0.0000 C    0  0  0  0  0  0  0  0  0  0  0  0
    3.4593   -3.3302    0.0000 C    0  0  0  0  0  0  0  0  0  0  0  0
    3.4593   -5.9831    0.0000 C    0  0  0  0  0  0  0  0  0  0  0  0
    2.3062   -3.9834    0.0000 C    0  0  0  0  0  0  0  0  0  0  0  0
    2.3062   -5.3139    0.0000 C    0  0  0  0  0  0  0  0  0  0  0  0
    1.1531   -5.9831    0.0000 N    0  3  0  0  0  0  0  0  0  0  0  0
    0.0000   -5.3139    0.0000 O    0  0  0  0  0  0  0  0  0  0  0  0
    1.1531   -7.3136    0.0000 O    0  5  0  0  0  0  0  0  0  0  0  0
    7.6120   -4.0801    0.0000 Cl   0  0  0  0  0  0  0  0  0  0  0  0
  1  3  2  0  0  0  0
  1  4  1  0  0  0  0
  1 10  1  0  0  0  0
  2  7  1  0  0  0  0
  2  5  2  0  0  0  0
  2  8  1  0  0  0  0
  4  6  1  0  0  0  0
  4  9  1  1  0  0  0
  6  7  1  0  0  0  0
  9 11  1  0  0  0  0
 11 12  1  0  0  0  0
 11 13  2  0  0  0  0
 12 14  2  0  0  0  0
 13 15  1  0  0  0  0
 14 16  1  0  0  0  0
 15 16  2  0  0  0  0
 16 17  1  0  0  0  0
 17 18  2  0  0  0  0
 17 19  1  0  0  0  0
M  END
> <ID>
10366

> <Formula>
C11H14ClN3O5

> <FW>
303.6990 (267.2380+36.4609)

> <DSSTox_CID>
24714

> <DSSTox_RID>
80415

> <DSSTox_GSID>
44714

> <DSSTox_FileID_Sort>
5097

> <TS_ChemName>
N2-(4-Nitrophenyl)-L-glutamine hydrochloride

> <TS_ChemName_Synonyms>
N2-(4-Nitrophenyl)-L-glutamine hydrochloride (1:1) (L-Glutamine, N-(4-nitrophenyl)-, monohydrochloride)

> <TS_CASRN>
67953-08-6

> <CASRN_ChemName_Relationship>
primary

> <TS_Description>
single chemical compound

> <ChemNote>
stereochem; parent [7300-59-6]

> <STRUCTURE_Shown>
tested chemical

> <STRUCTURE_Formula>
C11H14ClN3O5

> <STRUCTURE_MW>
303.699

> <STRUCTURE_ChemType>
defined organic

> <STRUCTURE_DefinedOrganicForm>
complex

> <STRUCTURE_IUPAC>
N~2~-(4-nitrophenyl)-L-glutamine hydrochloride (1:1)

> <STRUCTURE_SMILES>
Cl.O=C(O)[C@H](CCC(N)=O)Nc1ccc(cc1)[N+]([O-])=O

> <STRUCTURE_SMILES_Desalt>
O=C(O)[C@H](CCC(N)=O)Nc1ccc(cc1)[N+]([O-])=O

> <Substance_modify_yyyymmdd>
20091116

$$$$
