679809-58-6
ChemmineR-0915142007XD

 86 88  0  0  1  0  0  0  0  0  2 V2000
    2.0025   -0.1410    0.0000 Na   0  3  0  0  0  0  0  0  0  0  0  0
    3.4126   -3.9485    0.0000 O    0  0  0  0  0  0  0  0  0  0  0  0
    3.4126   -5.2741    0.0000 C    0  0  0  0  0  0  0  0  0  0  0  0
    2.2845   -3.2998    0.0000 C    0  0  0  0  0  0  0  0  0  0  0  0
    2.2845   -5.9228    0.0000 C    0  0  0  0  0  0  0  0  0  0  0  0
    1.1281   -3.9485    0.0000 C    0  0  0  0  0  0  0  0  0  0  0  0
    1.1281   -5.2741    0.0000 C    0  0  0  0  0  0  0  0  0  0  0  0
    2.2845   -1.9743    0.0000 C    0  0  0  0  0  0  0  0  0  0  0  0
    3.4126   -1.3256    0.0000 O    0  5  0  0  0  0  0  0  0  0  0  0
    1.1281   -1.3256    0.0000 O    0  0  0  0  0  0  0  0  0  0  0  0
    0.0000   -5.9228    0.0000 O    0  0  0  0  0  0  0  0  0  0  0  0
    2.2845   -7.2483    0.0000 O    0  0  0  0  0  0  0  0  0  0  0  0
    4.5408   -5.9228    0.0000 O    0  0  0  0  0  0  0  0  0  0  0  0
    7.9534   -5.2459    0.0000 O    0  0  0  0  0  0  0  0  0  0  0  0
    7.9534   -3.9203    0.0000 C    0  0  0  0  0  0  0  0  0  0  0  0
    6.8253   -5.8946    0.0000 C    0  0  0  0  0  0  0  0  0  0  0  0
    6.7971   -3.2716    0.0000 C    0  0  0  0  0  0  0  0  0  0  0  0
    5.6689   -5.2459    0.0000 C    0  0  0  0  0  0  0  0  0  0  0  0
    5.6689   -3.9485    0.0000 C    0  0  0  0  0  0  0  0  0  0  0  0
    6.8253   -7.2201    0.0000 C    0  0  0  0  0  0  0  0  0  0  0  0
    5.6689   -7.8688    0.0000 O    0  0  0  0  0  0  0  0  0  0  0  0
    4.5408   -3.2998    0.0000 O    0  0  0  0  0  0  0  0  0  0  0  0
    6.8253   -1.9743    0.0000 N    0  0  0  0  0  0  0  0  0  0  0  0
    5.6689   -1.3256    0.0000 C    0  0  0  0  0  0  0  0  0  0  0  0
    4.5408   -1.9743    0.0000 C    0  0  0  0  0  0  0  0  0  0  0  0
    5.6689    0.0000    0.0000 O    0  0  0  0  0  0  0  0  0  0  0  0
    9.0816   -3.2716    0.0000 O    0  0  0  0  0  0  0  0  0  0  0  0
   12.4942   -3.9203    0.0000 C    0  0  0  0  0  0  0  0  0  0  0  0
   12.4942   -5.2459    0.0000 C    0  0  0  0  0  0  0  0  0  0  0  0
   11.3661   -3.2716    0.0000 C    0  0  0  0  0  0  0  0  0  0  0  0
   11.3661   -5.8946    0.0000 C    0  0  0  0  0  0  0  0  0  0  0  0
   10.2097   -3.9203    0.0000 C    0  0  0  0  0  0  0  0  0  0  0  0
   10.2097   -5.2459    0.0000 C    0  0  0  0  0  0  0  0  0  0  0  0
   11.3661   -1.9461    0.0000 C    0  0  0  0  0  0  0  0  0  0  0  0
   12.4942   -1.3256    0.0000 O    0  5  0  0  0  0  0  0  0  0  0  0
   10.2097   -1.3256    0.0000 O    0  0  0  0  0  0  0  0  0  0  0  0
    9.0816   -5.8946    0.0000 O    0  0  0  0  0  0  0  0  0  0  0  0
   11.3661   -7.1919    0.0000 O    0  0  0  0  0  0  0  0  0  0  0  0
   13.6224   -5.8946    0.0000 O    0  0  0  0  0  0  0  0  0  0  0  0
   17.0068   -5.2177    0.0000 O    0  0  0  0  0  0  0  0  0  0  0  0
   17.0068   -3.9203    0.0000 C    0  0  0  0  0  0  0  0  0  0  0  0
   15.9069   -5.8946    0.0000 C    0  0  0  0  0  0  0  0  0  0  0  0
   15.9069   -3.2716    0.0000 C    0  0  0  0  0  0  0  0  0  0  0  0
   14.7505   -5.2177    0.0000 C    0  0  0  0  0  0  0  0  0  0  0  0
   14.7505   -3.9203    0.0000 C    0  0  0  0  0  0  0  0  0  0  0  0
   15.9069   -7.1919    0.0000 C    0  0  0  0  0  0  0  0  0  0  0  0
   14.7787   -7.8406    0.0000 O    0  0  0  0  0  0  0  0  0  0  0  0
   13.6224   -3.2716    0.0000 C    0  0  0  0  0  0  0  0  0  0  0  0
   15.9069   -1.9461    0.0000 N    0  0  0  0  0  0  0  0  0  0  0  0
   18.1632   -3.2434    0.0000 O    0  0  0  0  0  0  0  0  0  0  0  0
   21.5758   -3.8921    0.0000 O    0  0  0  0  0  0  0  0  0  0  0  0
   21.5758   -5.2177    0.0000 C    0  0  0  0  0  0  0  0  0  0  0  0
   20.4476   -3.2434    0.0000 C    0  0  0  0  0  0  0  0  0  0  0  0
   20.4476   -5.8664    0.0000 C    0  0  0  0  0  0  0  0  0  0  0  0
   19.2913   -3.8921    0.0000 C    0  0  0  0  0  0  0  0  0  0  0  0
   19.2913   -5.2177    0.0000 C    0  0  0  0  0  0  0  0  0  0  0  0
   14.7505   -1.2974    0.0000 C    0  0  0  0  0  0  0  0  0  0  0  0
   13.6224   -1.9461    0.0000 C    0  0  0  0  0  0  0  0  0  0  0  0
   14.7505    0.0000    0.0000 O    0  0  0  0  0  0  0  0  0  0  0  0
   20.4194   -1.9461    0.0000 C    0  0  0  0  0  0  0  0  0  0  0  0
   21.5476   -1.2692    0.0000 O    0  5  0  0  0  0  0  0  0  0  0  0
   19.2913   -1.2974    0.0000 O    0  0  0  0  0  0  0  0  0  0  0  0
   18.1632   -5.8664    0.0000 O    0  0  0  0  0  0  0  0  0  0  0  0
   20.4476   -7.1919    0.0000 O    0  0  0  0  0  0  0  0  0  0  0  0
   22.7039   -5.8664    0.0000 O    0  0  0  0  0  0  0  0  0  0  0  0
   26.7089   -3.6665    0.0000 O    0  0  0  0  0  0  0  0  0  0  0  0
   25.4961   -4.3152    0.0000 C    0  0  0  0  0  0  0  0  0  0  0  0
   25.1013   -5.7817    0.0000 C    0  0  0  0  0  0  0  0  0  0  0  0
   24.9038   -3.6947    0.0000 C    0  0  0  0  0  0  0  0  0  0  0  0
   23.8321   -5.2177    0.0000 C    0  0  0  0  0  0  0  0  0  0  0  0
   23.8603   -4.0331    0.0000 C    0  0  0  0  0  0  0  0  0  0  0  0
   22.9860   -3.0178    0.0000 O    0  0  0  0  0  0  0  0  0  0  0  0
   25.4115   -2.2281    0.0000 N    0  0  0  0  0  0  0  0  0  0  0  0
   26.6243   -1.7486    0.0000 S    0  0  0  0  0  0  0  0  0  0  0  0
   27.1037   -2.9896    0.0000 O    0  5  0  0  0  0  0  0  0  0  0  0
   26.1730   -0.5359    0.0000 O    0  0  0  0  0  0  0  0  0  0  0  0
   27.8652   -1.2692    0.0000 O    0  0  0  0  0  0  0  0  0  0  0  0
   26.8499   -5.6125    0.0000 O    0  0  0  0  0  0  0  0  0  0  0  0
   26.0602   -6.7125    0.0000 C    0  0  0  0  0  0  0  0  0  0  0  0
    5.6971   -9.1944    0.0000 S    0  0  0  0  0  0  0  0  0  0  0  0
    6.9945   -9.1944    0.0000 O    0  0  0  0  0  0  0  0  0  0  0  0
    4.3716   -9.1944    0.0000 O    0  0  0  0  0  0  0  0  0  0  0  0
    5.6971  -10.4918    0.0000 O    0  0  0  0  0  0  0  0  0  0  0  0
   11.6763   -0.3949    0.0000 Na   0  3  0  0  0  0  0  0  0  0  0  0
   20.4759   -0.1974    0.0000 Na   0  3  0  0  0  0  0  0  0  0  0  0
   28.2037   -2.1153    0.0000 Na   0  3  0  0  0  0  0  0  0  0  0  0
  2  3  1  0  0  0  0
  2  4  1  0  0  0  0
  3  5  1  0  0  0  0
  3 13  1  1  0  0  0
  4  6  2  0  0  0  0
  4  8  1  0  0  0  0
  5  7  1  0  0  0  0
  5 12  1  6  0  0  0
  6  7  1  0  0  0  0
  7 11  1  1  0  0  0
  8  9  1  0  0  0  0
  8 10  2  0  0  0  0
 18 13  1  1  0  0  0
 14 15  1  0  0  0  0
 14 16  1  0  0  0  0
 15 17  1  0  0  0  0
 15 27  1  1  0  0  0
 16 18  1  0  0  0  0
 16 20  1  6  0  0  0
 17 19  1  0  0  0  0
 17 23  1  1  0  0  0
 18 19  1  0  0  0  0
 19 22  1  6  0  0  0
 20 21  1  0  0  0  0
 21 80  1  0  0  0  0
 23 24  1  0  0  0  0
 24 25  1  0  0  0  0
 24 26  2  0  0  0  0
 32 27  1  6  0  0  0
 28 29  1  0  0  0  0
 28 30  1  0  0  0  0
 29 31  1  0  0  0  0
 29 39  1  1  0  0  0
 30 32  1  0  0  0  0
 30 34  1  0  0  0  0
 31 33  1  0  0  0  0
 31 38  1  6  0  0  0
 32 33  1  0  0  0  0
 33 37  1  1  0  0  0
 34 35  1  0  0  0  0
 34 36  2  0  0  0  0
 44 39  1  1  0  0  0
 40 41  1  0  0  0  0
 40 42  1  0  0  0  0
 41 43  1  0  0  0  0
 41 50  1  1  0  0  0
 42 44  1  0  0  0  0
 42 46  1  6  0  0  0
 43 45  1  0  0  0  0
 43 49  1  1  0  0  0
 44 45  1  0  0  0  0
 45 48  1  6  0  0  0
 46 47  1  0  0  0  0
 49 57  1  0  0  0  0
 50 55  1  0  0  0  0
 51 52  1  0  0  0  0
 51 53  1  0  0  0  0
 52 54  1  0  0  0  0
 52 65  1  1  0  0  0
 53 55  1  0  0  0  0
 53 60  1  0  0  0  0
 54 56  1  0  0  0  0
 54 64  1  6  0  0  0
 55 56  1  0  0  0  0
 56 63  1  1  0  0  0
 57 58  1  0  0  0  0
 57 59  2  0  0  0  0
 60 61  1  0  0  0  0
 60 62  2  0  0  0  0
 65 70  1  0  0  0  0
 66 67  1  0  0  0  0
 66 68  1  0  0  0  0
 67 69  1  0  0  0  0
 67 78  1  1  0  0  0
 68 70  1  0  0  0  0
 68 79  1  6  0  0  0
 69 71  1  0  0  0  0
 69 73  1  1  0  0  0
 70 71  1  0  0  0  0
 71 72  1  6  0  0  0
 73 74  1  0  0  0  0
 74 75  1  0  0  0  0
 74 76  2  0  0  0  0
 74 77  2  0  0  0  0
 78 79  1  0  0  0  0
 80 81  2  0  0  0  0
 80 82  1  0  0  0  0
 80 83  2  0  0  0  0
M  END
> <ID>
11331

> <Formula>
C42H59N3Na4O35S2

> <FW>
1322.0060 (22.9892+1230.0492+22.9892+22.9892+22.9892)

> <DSSTox_CID>
25969

> <DSSTox_RID>
81263

> <DSSTox_GSID>
45969

> <DSSTox_FileID_Sort>
5944

> <TS_ChemName>
Enoxaparin sodium

> <TS_ChemName_Synonyms>


> <TS_CASRN>
679809-58-6

> <CASRN_ChemName_Relationship>
primary

> <TS_Description>
polymer

> <ChemNote>
sodium salt of a low-molecular weight heparin obtained by alkaline depolymn. of the benzyl ester of heparin from porcine mucosa; average mol. Wt. 4200

> <STRUCTURE_Shown>
monomer of polymer

> <STRUCTURE_Formula>
C42H59N3Na4O35S2

> <STRUCTURE_MW>
1322.006

> <STRUCTURE_ChemType>
defined organic

> <STRUCTURE_DefinedOrganicForm>
salt

> <STRUCTURE_IUPAC>
tetrasodium (2R,3R,4S)-2-({(2R,3S,4R,5R,6S)-5-(acetylamino)-6-{[(1R,2R,3R,4R)-4-{[(2R,3S,4R,5R,6R)-5-(acetylamino)-6-{[(4R,5R,6R)-2-carboxylato-4,5-dihydroxy-6-{[(1R,3R,4R,5R)-3-hydroxy-4-(sulfonatoamino)-6,8-dioxabicyclo[3.2.1]oct-2-yl]oxy}tetrahydro-2H-

> <STRUCTURE_SMILES>
[Na+].[Na+].[Na+].[Na+].[O-]C(=O)C1=C[C@H](O)[C@@H](O)[C@@H](O1)O[C@H]2[C@H](O)[C@@H](NC(C)=O)[C@H](O[C@@H]2COS(=O)(=O)O)O[C@@H]7C(C[C@@H](O[C@H]3[C@H](C)[C@@H](NC(C)=O)[C@H](O[C@@H]3CO)OC4[C@H](O)[C@@H](O)[C@@H](OC4C([O-])=O)OC6[C@H](O)[C@@H](NS([O-])(=O

> <STRUCTURE_SMILES_Desalt>
O=C(O)C1=C[C@H](O)[C@@H](O)[C@@H](O1)O[C@H]2[C@H](O)[C@@H](NC(C)=O)[C@H](O[C@@H]2COS(=O)(=O)O)O[C@@H]7C(C[C@@H](O[C@H]3[C@H](C)[C@@H](NC(C)=O)[C@H](O[C@@H]3CO)OC4[C@H](O)[C@@H](O)[C@@H](OC4C(=O)O)OC6[C@H](O)[C@@H](NS(=O)(=O)O)[C@H]5O[C@@H]6CO5)[C@H](O)[C@

> <Substance_modify_yyyymmdd>
20100107

$$$$
