68-12-2
ChemmineR-0915142007XD

  5  4  0  0  0  0  0  0  0  0  1 V2000
    3.4567   -1.9945    0.0000 C   0  0  0  0  0  0  0  0  0  0  0  0
    2.3056   -1.3308    0.0000 N   0  0  0  0  0  0  0  0  0  0  0  0
    1.1511   -1.9945    0.0000 C   0  0  0  0  0  0  0  0  0  0  0  0
    0.0000   -1.3308    0.0000 O   0  0  0  0  0  0  0  0  0  0  0  0
    2.3056    0.0000    0.0000 C   0  0  0  0  0  0  0  0  0  0  0  0
  1  2  1  0  0  0  0
  2  3  1  0  0  0  0
  2  5  1  0  0  0  0
  3  4  2  0  0  0  0
M  END
> <ID>
497

> <Formula>
C3H7NO

> <FW>
73.0938

> <DSSTox_CID>
515

> <DSSTox_RID>
75636

> <DSSTox_GSID>
20515

> <DSSTox_FileID_Sort>
320

> <TS_ChemName>
N,N-Dimethylformamide

> <TS_ChemName_Synonyms>
N,N-Dimethylformamide (Dimethylformamide)  (DMF)

> <TS_CASRN>
68-12-2

> <CASRN_ChemName_Relationship>
primary

> <TS_Description>
single chemical compound

> <ChemNote>


> <STRUCTURE_Shown>
tested chemical

> <STRUCTURE_Formula>
C3H7NO

> <STRUCTURE_MW>
73.0938

> <STRUCTURE_ChemType>
defined organic

> <STRUCTURE_DefinedOrganicForm>
parent

> <STRUCTURE_IUPAC>
N,N-dimethylformamide

> <STRUCTURE_SMILES>
CN(C)C=O

> <STRUCTURE_SMILES_Desalt>
CN(C)C=O

> <Substance_modify_yyyymmdd>
20080429

$$$$
