68-19-9
ChemmineR-0915142007XD

 94101  0  0  1  0  0  0  0  0  2 V2000
    5.7321   -3.3938    0.0000 C    0  0  0  0  0  0  0  0  0  0  0  0
    7.0565   -3.3938    0.0000 C    0  0  0  0  0  0  0  0  0  0  0  0
    5.3389   -4.6561    0.0000 C    0  0  0  0  0  0  0  0  0  0  0  0
    7.4704   -4.6561    0.0000 N    0  0  0  0  0  0  0  0  0  0  0  0
    6.3529   -5.4217    0.0000 C    0  0  0  0  0  0  0  0  0  0  0  0
    9.5191   -3.3938    0.0000 C    0  0  0  0  0  0  0  0  0  0  0  0
    8.2567   -2.7522    0.0000 C    0  0  0  0  0  0  0  0  0  0  0  0
   10.7814   -3.0006    0.0000 C    0  0  0  0  0  0  0  0  0  0  0  0
    9.5191   -4.7181    0.0000 N    0  0  0  0  0  0  0  0  0  0  0  0
   11.5056   -4.0559    0.0000 C    0  0  0  0  0  0  0  0  0  0  0  0
   10.7814   -5.1113    0.0000 C    0  0  0  0  0  0  0  0  0  0  0  0
   11.4229   -6.2702    0.0000 C    0  0  0  0  0  0  0  0  0  0  0  0
   10.7814   -7.3876    0.0000 C    0  0  0  0  0  0  0  0  0  0  0  0
    5.6700   -8.6913    0.0000 C    0  0  0  0  0  0  0  0  0  0  0  0
    6.9944   -8.6913    0.0000 C    0  0  0  0  0  0  0  0  0  0  0  0
    5.2769   -7.4290    0.0000 C    0  0  0  0  0  0  0  0  0  0  0  0
    7.3876   -7.4290    0.0000 N    0  0  0  0  0  0  0  0  0  0  0  0
    6.3529   -6.6426    0.0000 C    0  0  0  0  0  0  0  0  0  0  0  0
    9.0431   -8.6499    0.0000 C    0  0  0  0  0  0  0  0  0  0  0  0
    8.0498   -9.3328    0.0000 C    0  0  0  0  0  0  0  0  0  0  0  0
   10.0985   -9.3949    0.0000 C    0  0  0  0  0  0  0  0  0  0  0  0
    9.4570   -7.3876    0.0000 N    0  0  0  0  0  0  0  0  0  0  0  0
   11.1745   -8.6499    0.0000 C    0  0  0  0  0  0  0  0  0  0  0  0
    8.0498  -10.6365    0.0000 C    0  0  0  0  0  0  0  0  0  0  0  0
    8.2567   -1.4486    0.0000 C    0  0  0  0  0  0  0  0  0  0  0  0
   13.3681   -3.0006    0.0000 N    0  0  0  0  0  0  0  0  0  0  0  0
   12.7059   -1.8624    0.0000 C    0  0  0  0  0  0  0  0  0  0  0  0
   11.4229   -1.8624    0.0000 C    0  0  0  0  0  0  0  0  0  0  0  0
   13.3681   -0.7243    0.0000 O    0  0  0  0  0  0  0  0  0  0  0  0
   10.1192   -1.8417    0.0000 C    0  0  0  0  0  0  0  0  0  0  0  0
   12.8300   -4.0559    0.0000 C    0  0  0  0  0  0  0  0  0  0  0  0
   13.4922   -5.1941    0.0000 C    0  0  0  0  0  0  0  0  0  0  0  0
   14.8166   -5.1941    0.0000 C    0  0  0  0  0  0  0  0  0  0  0  0
   15.4581   -6.3322    0.0000 N    0  0  0  0  0  0  0  0  0  0  0  0
   15.4581   -4.0559    0.0000 O    0  0  0  0  0  0  0  0  0  0  0  0
   10.0985  -10.7193    0.0000 C    0  0  0  0  0  0  0  0  0  0  0  0
   11.2366  -11.3815    0.0000 C    0  0  0  0  0  0  0  0  0  0  0  0
   11.2366  -12.6852    0.0000 C    0  0  0  0  0  0  0  0  0  0  0  0
   10.0985  -13.3474    0.0000 O    0  0  0  0  0  0  0  0  0  0  0  0
   12.3748  -13.3474    0.0000 N    0  0  0  0  0  0  0  0  0  0  0  0
    5.0699   -2.2763    0.0000 C    0  0  0  0  0  0  0  0  0  0  0  0
    3.7455   -2.2763    0.0000 C    0  0  0  0  0  0  0  0  0  0  0  0
    3.1040   -1.1175    0.0000 C    0  0  0  0  0  0  0  0  0  0  0  0
    3.7455    0.0000    0.0000 O    0  0  0  0  0  0  0  0  0  0  0  0
    1.8210   -1.1175    0.0000 N    0  0  0  0  0  0  0  0  0  0  0  0
    4.2008   -3.9939    0.0000 C    0  0  0  0  0  0  0  0  0  0  0  0
    3.0420   -4.6561    0.0000 C    0  0  0  0  0  0  0  0  0  0  0  0
    3.0420   -5.9598    0.0000 O    0  0  0  0  0  0  0  0  0  0  0  0
    1.9038   -3.9939    0.0000 N    0  0  0  0  0  0  0  0  0  0  0  0
    4.2008   -5.2976    0.0000 C    0  0  0  0  0  0  0  0  0  0  0  0
    5.2148   -6.0632    0.0000 C    0  0  0  0  0  0  0  0  0  0  0  0
    4.1387   -6.7875    0.0000 C    0  0  0  0  0  0  0  0  0  0  0  0
    3.0213   -7.4290    0.0000 C    0  0  0  0  0  0  0  0  0  0  0  0
    3.0213   -8.7327    0.0000 O    0  0  0  0  0  0  0  0  0  0  0  0
    1.8831   -6.7875    0.0000 N    0  0  0  0  0  0  0  0  0  0  0  0
    5.6700   -9.9950    0.0000 C    0  0  0  0  0  0  0  0  0  0  0  0
    4.5526  -10.6365    0.0000 C    0  0  0  0  0  0  0  0  0  0  0  0
    4.5526  -11.9609    0.0000 C    0  0  0  0  0  0  0  0  0  0  0  0
    3.4144  -12.6231    0.0000 N    0  0  0  0  0  0  0  0  0  0  0  0
    2.2970  -11.9609    0.0000 C    0  0  0  0  0  0  0  0  0  0  0  0
    2.2970  -14.5683    0.0000 P    0  0  0  0  0  0  0  0  0  0  0  0
    1.1175  -12.6231    0.0000 C    0  0  0  0  0  0  0  0  0  0  0  0
    1.1175  -13.9268    0.0000 O    0  0  0  0  0  0  0  0  0  0  0  0
    5.6700  -12.6231    0.0000 O    0  0  0  0  0  0  0  0  0  0  0  0
    4.5526   -9.3328    0.0000 C    0  0  0  0  0  0  0  0  0  0  0  0
    0.0000  -11.9609    0.0000 C    0  0  0  0  0  0  0  0  0  0  0  0
    2.2970  -15.8927    0.0000 O    0  5  0  0  0  0  0  0  0  0  0  0
    3.4144  -13.9268    0.0000 O    0  0  0  0  0  0  0  0  0  0  0  0
    5.7528  -18.4380    0.0000 C    0  0  0  0  0  0  0  0  0  0  0  0
    7.0565  -18.4380    0.0000 O    0  0  0  0  0  0  0  0  0  0  0  0
    5.3389  -17.1757    0.0000 C    0  0  0  0  0  0  0  0  0  0  0  0
    7.4704  -17.1757    0.0000 C    0  0  0  0  0  0  0  0  0  0  0  0
    6.3943  -16.4307    0.0000 C    0  0  0  0  0  0  0  0  0  0  0  0
    4.0766  -16.7825    0.0000 O    0  0  0  0  0  0  0  0  0  0  0  0
    6.3943  -15.1063    0.0000 O    0  0  0  0  0  0  0  0  0  0  0  0
    8.7741  -16.5342    0.0000 N    0  0  0  0  0  0  0  0  0  0  0  0
    4.9665  -19.4934    0.0000 C    0  0  0  0  0  0  0  0  0  0  0  0
    5.5252  -20.6936    0.0000 O    0  0  0  0  0  0  0  0  0  0  0  0
    8.0084   -6.1667    0.0000 Co   0  3  0  0  0  0  0  0  0  0  0  0
    9.3121   -6.1667    0.0000 C    0  0  0  0  0  0  0  0  0  0  0  0
   10.6365   -6.1667    0.0000 N    0  0  0  0  0  0  0  0  0  0  0  0
   12.3127  -14.8166    0.0000 C    0  0  0  0  0  0  0  0  0  0  0  0
   12.3127  -16.1203    0.0000 C    0  0  0  0  0  0  0  0  0  0  0  0
   11.1539  -14.1751    0.0000 C    0  0  0  0  0  0  0  0  0  0  0  0
   11.1539  -16.8032    0.0000 C    0  0  0  0  0  0  0  0  0  0  0  0
   10.0364  -14.8166    0.0000 C    0  0  0  0  0  0  0  0  0  0  0  0
   10.0364  -16.1203    0.0000 C    0  0  0  0  0  0  0  0  0  0  0  0
    8.7741  -14.4027    0.0000 N    0  0  0  0  0  0  0  0  0  0  0  0
    8.0084  -15.4788    0.0000 C    0  0  0  0  0  0  0  0  0  0  0  0
   13.4301  -14.1751    0.0000 C    0  0  0  0  0  0  0  0  0  0  0  0
   13.4301  -16.8032    0.0000 C    0  0  0  0  0  0  0  0  0  0  0  0
    6.3943   -7.8843    0.0000 H    0  0  0  0  0  0  0  0  0  0  0  0
   12.4989   -8.6499    0.0000 C    0  0  0  0  0  0  0  0  0  0  0  0
   12.1058   -9.5811    0.0000 C    0  0  0  0  0  0  0  0  0  0  0  0
  1  2  1  0  0  0  0
  1  3  1  0  0  0  0
  1 41  1  6  0  0  0
  2  4  1  0  0  0  0
  2  7  2  0  0  0  0
  3  5  1  0  0  0  0
  3 46  1  0  0  0  0
  3 50  1  6  0  0  0
  4  5  1  0  0  0  0
  4 79  1  0  0  0  0
  5 18  1  0  0  0  0
  5 51  1  6  0  0  0
  6  7  1  0  0  0  0
  6  8  1  0  0  0  0
  6  9  2  0  0  0  0
  7 25  1  0  0  0  0
  8 10  1  0  0  0  0
  8 28  1  1  0  0  0
  8 30  1  6  0  0  0
  9 11  1  0  0  0  0
 10 11  1  0  0  0  0
 10 31  1  6  0  0  0
 11 12  2  0  0  0  0
 12 13  1  0  0  0  0
 13 22  2  0  0  0  0
 13 23  1  0  0  0  0
 14 15  1  0  0  0  0
 14 16  1  0  0  0  0
 14 56  1  6  0  0  0
 14 65  1  1  0  0  0
 15 17  2  0  0  0  0
 15 20  1  0  0  0  0
 16 18  1  0  0  0  0
 16 52  1  1  0  0  0
 17 18  1  0  0  0  0
 18 92  1  1  0  0  0
 19 20  2  0  0  0  0
 19 21  1  0  0  0  0
 19 22  1  0  0  0  0
 20 24  1  0  0  0  0
 21 23  1  0  0  0  0
 21 36  1  6  0  0  0
 23 93  1  0  0  0  0
 23 94  1  0  0  0  0
 26 27  1  0  0  0  0
 27 28  1  0  0  0  0
 27 29  2  0  0  0  0
 31 32  1  0  0  0  0
 32 33  1  0  0  0  0
 33 34  1  0  0  0  0
 33 35  2  0  0  0  0
 36 37  1  0  0  0  0
 37 38  1  0  0  0  0
 38 39  2  0  0  0  0
 38 40  1  0  0  0  0
 41 42  1  0  0  0  0
 42 43  1  0  0  0  0
 43 44  2  0  0  0  0
 43 45  1  0  0  0  0
 46 47  1  0  0  0  0
 47 48  2  0  0  0  0
 47 49  1  0  0  0  0
 52 53  1  0  0  0  0
 53 54  2  0  0  0  0
 53 55  1  0  0  0  0
 56 57  1  0  0  0  0
 57 58  1  0  0  0  0
 58 59  1  0  0  0  0
 58 64  2  0  0  0  0
 59 60  1  0  0  0  0
 60 62  1  0  0  0  0
 61 63  1  0  0  0  0
 61 67  1  0  0  0  0
 61 68  2  0  0  0  0
 61 74  1  0  0  0  0
 62 63  1  0  0  0  0
 62 66  1  6  0  0  0
 69 70  1  0  0  0  0
 69 71  1  0  0  0  0
 69 77  1  6  0  0  0
 70 72  1  0  0  0  0
 71 73  1  0  0  0  0
 71 74  1  1  0  0  0
 72 73  1  0  0  0  0
 72 76  1  1  0  0  0
 73 75  1  1  0  0  0
 76 87  1  0  0  0  0
 76 89  1  0  0  0  0
 77 78  1  0  0  0  0
 79 80  1  0  0  0  0
 80 81  3  0  0  0  0
 82 83  1  0  0  0  0
 82 84  2  0  0  0  0
 82 90  1  0  0  0  0
 83 85  2  0  0  0  0
 83 91  1  0  0  0  0
 84 86  1  0  0  0  0
 85 87  1  0  0  0  0
 86 87  2  0  0  0  0
 86 88  1  0  0  0  0
 88 89  2  0  0  0  0
M  END
> <ID>
10004

> <Formula>
C63H88CoN14O14P

> <FW>
1355.3652

> <DSSTox_CID>
24346

> <DSSTox_RID>
80159

> <DSSTox_GSID>
44346

> <DSSTox_FileID_Sort>
4841

> <TS_ChemName>
Vitamin B12

> <TS_ChemName_Synonyms>
Vitamin B12 (Cyanocobalamin)

> <TS_CASRN>
68-19-9

> <CASRN_ChemName_Relationship>
primary

> <TS_Description>
single chemical compound

> <ChemNote>
stereochem

> <STRUCTURE_Shown>
tested chemical

> <STRUCTURE_Formula>
C63H88CoN14O14P

> <STRUCTURE_MW>
1355.3652

> <STRUCTURE_ChemType>
organometallic

> <STRUCTURE_DefinedOrganicForm>


> <STRUCTURE_IUPAC>
(cyano-kappaC)[(1R,2R,3R,4R,6Z,8S,11Z,13S,14S,16Z,18S,19S)-3,14,19-tris(2-amino-2-oxoethyl)-8,13,18-tris(3-amino-3-oxopropyl)-4-[3-({2-[({[(2R,3S,4R,5S)-5-(5,6-dimethyl-1H-benzimidazol-1-yl)-4-hydroxy-2-(hydroxymethyl)tetrahydrofuran-3-yl]oxy}phosphinato)

> <STRUCTURE_SMILES>
NC(=O)CC[C@@H]8C=2N=C(C(C)=C1[C@@H](CCC(N)=O)[C@](C)(CC(N)=O)[C@@](C)(N1[Co+]C#N)[C@@H]7N=C(C(C)=C3N=C(C=2)C(C)(C)[C@@H]3CCC(N)=O)[C@](C)(CCC(=O)NC[C@@H](C)OP([O-])(=O)O[C@@H]6[C@@H](CO)O[C@H](n5cnc4cc(C)c(C)cc45)[C@@H]6O)[C@H]7CC(N)=O)[C@@]8(C)CC(N)=O

> <STRUCTURE_SMILES_Desalt>
NC(=O)CC[C@@H]8C=2N=C(C(C)=C1[C@@H](CCC(N)=O)[C@](C)(CC(N)=O)[C@@](C)(N1[Co+]C#N)[C@@H]7N=C(C(C)=C3N=C(C=2)C(C)(C)[C@@H]3CCC(N)=O)[C@](C)(CCC(=O)NC[C@@H](C)OP(=O)(O)O[C@@H]6[C@@H](CO)O[C@H](n5cnc4cc(C)c(C)cc45)[C@@H]6O)[C@H]7CC(N)=O)[C@@]8(C)CC(N)=O

> <Substance_modify_yyyymmdd>
20091116

$$$$
