68-11-1
ChemmineR-0915142007XD

  5  4  0  0  0  0  0  0  0  0  1 V2000
    2.3056    0.0000    0.0000 O   0  0  0  0  0  0  0  0  0  0  0  0
    2.3056   -1.3308    0.0000 C   0  0  0  0  0  0  0  0  0  0  0  0
    3.4567   -1.9945    0.0000 O   0  0  0  0  0  0  0  0  0  0  0  0
    1.1511   -1.9945    0.0000 C   0  0  0  0  0  0  0  0  0  0  0  0
    0.0000   -1.3308    0.0000 S   0  0  0  0  0  0  0  0  0  0  0  0
  1  2  2  0  0  0  0
  2  3  1  0  0  0  0
  2  4  1  0  0  0  0
  4  5  1  0  0  0  0
M  END
> <ID>
4565

> <Formula>
C2H4O2S

> <FW>
92.117

> <DSSTox_CID>
6141

> <DSSTox_RID>
78033

> <DSSTox_GSID>
26141

> <DSSTox_FileID_Sort>
2716

> <TS_ChemName>
Thioglycolic acid

> <TS_ChemName_Synonyms>
Thioglycolic acid (Acetic acid, mercapto-)

> <TS_CASRN>
68-11-1

> <CASRN_ChemName_Relationship>
primary

> <TS_Description>
single chemical compound

> <ChemNote>


> <STRUCTURE_Shown>
tested chemical

> <STRUCTURE_Formula>
C2H4O2S

> <STRUCTURE_MW>
92.117

> <STRUCTURE_ChemType>
defined organic

> <STRUCTURE_DefinedOrganicForm>
parent

> <STRUCTURE_IUPAC>
sulfanylacetic acid

> <STRUCTURE_SMILES>
O=C(O)CS

> <STRUCTURE_SMILES_Desalt>
O=C(O)CS

> <Substance_modify_yyyymmdd>
20080429

$$$$
