68-36-0
ChemmineR-0915142007XD

 14 14  0  0  0  0  0  0  0  0  1 V2000
    5.3244   -1.3251    0.0000 C    0  0  0  0  0  0  0  0  0  0  0  0
    4.6618   -2.4826    0.0000 C    0  0  0  0  0  0  0  0  0  0  0  0
    3.3367   -2.4826    0.0000 C    0  0  0  0  0  0  0  0  0  0  0  0
    2.6582   -1.3251    0.0000 C    0  0  0  0  0  0  0  0  0  0  0  0
    3.3367   -0.1756    0.0000 C    0  0  0  0  0  0  0  0  0  0  0  0
    4.6618   -0.1756    0.0000 C    0  0  0  0  0  0  0  0  0  0  0  0
    6.6495   -1.3251    0.0000 C    0  0  0  0  0  0  0  0  0  0  0  0
    6.6495   -2.6582    0.0000 Cl   0  0  0  0  0  0  0  0  0  0  0  0
    6.6495    0.0000    0.0000 Cl   0  0  0  0  0  0  0  0  0  0  0  0
    7.9826   -1.3251    0.0000 Cl   0  0  0  0  0  0  0  0  0  0  0  0
    1.3331   -1.3251    0.0000 C    0  0  0  0  0  0  0  0  0  0  0  0
    1.3331    0.0000    0.0000 Cl   0  0  0  0  0  0  0  0  0  0  0  0
    1.3331   -2.6582    0.0000 Cl   0  0  0  0  0  0  0  0  0  0  0  0
    0.0000   -1.3251    0.0000 Cl   0  0  0  0  0  0  0  0  0  0  0  0
  1  2  2  0  0  0  0
  1  6  1  0  0  0  0
  1  7  1  0  0  0  0
  2  3  1  0  0  0  0
  3  4  2  0  0  0  0
  4  5  1  0  0  0  0
  4 11  1  0  0  0  0
  5  6  2  0  0  0  0
  7  8  1  0  0  0  0
  7  9  1  0  0  0  0
  7 10  1  0  0  0  0
 11 12  1  0  0  0  0
 11 13  1  0  0  0  0
 11 14  1  0  0  0  0
M  END
> <ID>
4660

> <Formula>
C8H4Cl6

> <FW>
312.8354

> <DSSTox_CID>
6366

> <DSSTox_RID>
78105

> <DSSTox_GSID>
26366

> <DSSTox_FileID_Sort>
2788

> <TS_ChemName>
1,4-Bis(trichloromethyl)benzene

> <TS_ChemName_Synonyms>


> <TS_CASRN>
68-36-0

> <CASRN_ChemName_Relationship>
primary

> <TS_Description>
single chemical compound

> <ChemNote>


> <STRUCTURE_Shown>
tested chemical

> <STRUCTURE_Formula>
C8H4Cl6

> <STRUCTURE_MW>
312.8354

> <STRUCTURE_ChemType>
defined organic

> <STRUCTURE_DefinedOrganicForm>
parent

> <STRUCTURE_IUPAC>
1,4-bis(trichloromethyl)benzene

> <STRUCTURE_SMILES>
ClC(Cl)(Cl)c1ccc(cc1)C(Cl)(Cl)Cl

> <STRUCTURE_SMILES_Desalt>
ClC(Cl)(Cl)c1ccc(cc1)C(Cl)(Cl)Cl

> <Substance_modify_yyyymmdd>
20080429

$$$$
