68-35-9
ChemmineR-0915142007XD

 17 18  0  0  0  0  0  0  0  0  1 V2000
    4.6561   -2.6659    0.0000 S   0  0  0  0  0  0  0  0  0  0  0  0
    3.9896   -1.5088    0.0000 N   0  0  0  0  0  0  0  0  0  0  0  0
    2.6567   -1.5088    0.0000 C   0  0  0  0  0  0  0  0  0  0  0  0
    5.8039   -1.9994    0.0000 C   0  0  0  0  0  0  0  0  0  0  0  0
    3.4990   -3.3232    0.0000 O   0  0  0  0  0  0  0  0  0  0  0  0
    5.3133   -3.8138    0.0000 O   0  0  0  0  0  0  0  0  0  0  0  0
    1.9902   -2.6659    0.0000 N   0  0  0  0  0  0  0  0  0  0  0  0
    1.9902   -0.3610    0.0000 N   0  0  0  0  0  0  0  0  0  0  0  0
    5.8039   -0.6665    0.0000 C   0  0  0  0  0  0  0  0  0  0  0  0
    6.9518   -2.6659    0.0000 C   0  0  0  0  0  0  0  0  0  0  0  0
    8.1089   -0.6665    0.0000 C   0  0  0  0  0  0  0  0  0  0  0  0
    9.2567    0.0000    0.0000 N   0  0  0  0  0  0  0  0  0  0  0  0
    8.1089   -1.9994    0.0000 C   0  0  0  0  0  0  0  0  0  0  0  0
    6.9518    0.0000    0.0000 C   0  0  0  0  0  0  0  0  0  0  0  0
    0.0000   -1.5088    0.0000 C   0  0  0  0  0  0  0  0  0  0  0  0
    0.6665   -2.6659    0.0000 C   0  0  0  0  0  0  0  0  0  0  0  0
    0.6665   -0.3610    0.0000 C   0  0  0  0  0  0  0  0  0  0  0  0
  1  2  1  0  0  0  0
  1  4  1  0  0  0  0
  1  5  2  0  0  0  0
  1  6  2  0  0  0  0
  2  3  1  0  0  0  0
  3  7  1  0  0  0  0
  3  8  2  0  0  0  0
  4  9  2  0  0  0  0
  4 10  1  0  0  0  0
  7 16  2  0  0  0  0
  8 17  1  0  0  0  0
  9 14  1  0  0  0  0
 10 13  2  0  0  0  0
 11 13  1  0  0  0  0
 11 12  1  0  0  0  0
 11 14  2  0  0  0  0
 15 17  2  0  0  0  0
 15 16  1  0  0  0  0
M  END
> <ID>
9865

> <Formula>
C10H10N4O2S

> <FW>
250.277

> <DSSTox_CID>
24130

> <DSSTox_RID>
80105

> <DSSTox_GSID>
44130

> <DSSTox_FileID_Sort>
4787

> <TS_ChemName>
Sulfadiazine

> <TS_ChemName_Synonyms>


> <TS_CASRN>
68-35-9

> <CASRN_ChemName_Relationship>
primary

> <TS_Description>
single chemical compound

> <ChemNote>


> <STRUCTURE_Shown>
tested chemical

> <STRUCTURE_Formula>
C10H10N4O2S

> <STRUCTURE_MW>
250.277

> <STRUCTURE_ChemType>
defined organic

> <STRUCTURE_DefinedOrganicForm>
parent

> <STRUCTURE_IUPAC>
4-amino-N-(pyrimidin-2-yl)benzenesulfonamide

> <STRUCTURE_SMILES>
O=S(=O)(Nc1ncccn1)c2ccc(N)cc2

> <STRUCTURE_SMILES_Desalt>
O=S(=O)(Nc1ncccn1)c2ccc(N)cc2

> <Substance_modify_yyyymmdd>
20090220

$$$$
