68-96-2
ChemmineR-0915142007XD

 27 30  0  0  1  0  0  0  0  0  1 V2000
    6.8809   -2.4809    0.0000 C   0  0  0  0  0  0  0  0  0  0  0  0
    3.4264   -4.4655    0.0000 C   0  0  0  0  0  0  0  0  0  0  0  0
    8.1821   -2.0502    0.0000 C   0  0  0  0  0  0  0  0  0  0  0  0
    3.4264   -5.8136    0.0000 C   0  0  0  0  0  0  0  0  0  0  0  0
    6.8809   -3.7821    0.0000 C   0  0  0  0  0  0  0  0  0  0  0  0
    4.5872   -3.7821    0.0000 C   0  0  0  0  0  0  0  0  0  0  0  0
    5.7481   -4.4655    0.0000 C   0  0  0  0  0  0  0  0  0  0  0  0
    2.2655   -6.4596    0.0000 C   0  0  0  0  0  0  0  0  0  0  0  0
    5.7481   -1.7974    0.0000 C   0  0  0  0  0  0  0  0  0  0  0  0
    8.9311   -3.1643    0.0000 C   0  0  0  0  0  0  0  0  0  0  0  0
    4.5872   -2.4809    0.0000 C   0  0  0  0  0  0  0  0  0  0  0  0
    8.1821   -4.2221    0.0000 C   0  0  0  0  0  0  0  0  0  0  0  0
    2.2655   -3.7821    0.0000 C   0  0  0  0  0  0  0  0  0  0  0  0
    5.7481   -5.8136    0.0000 C   0  0  0  0  0  0  0  0  0  0  0  0
    8.1821   -0.6740    0.0000 C   0  0  0  0  0  0  0  0  0  0  0  0
    4.5872   -6.4596    0.0000 C   0  0  0  0  0  0  0  0  0  0  0  0
    1.1140   -5.8136    0.0000 C   0  0  0  0  0  0  0  0  0  0  0  0
    7.1524    0.0000    0.0000 O   0  0  0  0  0  0  0  0  0  0  0  0
    0.0000   -6.4596    0.0000 O   0  0  0  0  0  0  0  0  0  0  0  0
    9.3617   -1.6289    0.0000 O   0  0  0  0  0  0  0  0  0  0  0  0
    1.1140   -4.4655    0.0000 C   0  0  0  0  0  0  0  0  0  0  0  0
    6.8809   -1.1047    0.0000 C   0  0  0  0  0  0  0  0  0  0  0  0
    3.4264   -3.1362    0.0000 C   0  0  0  0  0  0  0  0  0  0  0  0
    9.3524    0.0000    0.0000 C   0  0  0  0  0  0  0  0  0  0  0  0
    5.7481   -3.1362    0.0000 H   0  0  0  0  0  0  0  0  0  0  0  0
    4.5872   -5.1115    0.0000 H   0  0  0  0  0  0  0  0  0  0  0  0
    6.8809   -5.1115    0.0000 H   0  0  0  0  0  0  0  0  0  0  0  0
  1  3  1  0  0  0  0
  1  5  1  0  0  0  0
  1  9  1  0  0  0  0
  1 22  1  1  0  0  0
  2  6  1  0  0  0  0
  2  4  1  0  0  0  0
  2 13  1  0  0  0  0
  2 23  1  1  0  0  0
  3 10  1  0  0  0  0
  3 15  1  0  0  0  0
  3 20  1  6  0  0  0
  4  8  2  0  0  0  0
  4 16  1  0  0  0  0
  5  7  1  0  0  0  0
  5 12  1  0  0  0  0
  5 27  1  6  0  0  0
  6 11  1  0  0  0  0
  6  7  1  0  0  0  0
  6 26  1  6  0  0  0
  7 14  1  0  0  0  0
  7 25  1  1  0  0  0
  8 17  1  0  0  0  0
  9 11  1  0  0  0  0
 10 12  1  0  0  0  0
 13 21  1  0  0  0  0
 14 16  1  0  0  0  0
 15 18  2  0  0  0  0
 15 24  1  0  0  0  0
 17 21  1  0  0  0  0
 17 19  2  0  0  0  0
M  END
> <ID>
7940

> <Formula>
C21H30O3

> <FW>
330.4611

> <DSSTox_CID>
20747

> <DSSTox_RID>
79586

> <DSSTox_GSID>
40747

> <DSSTox_FileID_Sort>
4268

> <TS_ChemName>
17alpha-Hydroxyprogesterone

> <TS_ChemName_Synonyms>


> <TS_CASRN>
68-96-2

> <CASRN_ChemName_Relationship>
primary

> <TS_Description>
single chemical compound

> <ChemNote>
stereochem

> <STRUCTURE_Shown>
tested chemical

> <STRUCTURE_Formula>
C21H30O3

> <STRUCTURE_MW>
330.4611

> <STRUCTURE_ChemType>
defined organic

> <STRUCTURE_DefinedOrganicForm>
parent

> <STRUCTURE_IUPAC>
17-hydroxypregn-4-ene-3,20-dione

> <STRUCTURE_SMILES>
CC(=O)[C@@]3(O)CC[C@H]2[C@@H]4CCC1=CC(=O)CC[C@]1(C)[C@H]4CC[C@@]23C

> <STRUCTURE_SMILES_Desalt>
CC(=O)[C@@]3(O)CC[C@H]2[C@@H]4CCC1=CC(=O)CC[C@]1(C)[C@H]4CC[C@@]23C

> <Substance_modify_yyyymmdd>
20080429

$$$$
