68-94-0
ChemmineR-0915142007XD

 10 11  0  0  0  0  0  0  0  0  1 V2000
    1.1548    0.0000    0.0000 O   0  0  0  0  0  0  0  0  0  0  0  0
    1.1548   -1.3291    0.0000 C   0  0  0  0  0  0  0  0  0  0  0  0
    0.0000   -2.0002    0.0000 N   0  0  0  0  0  0  0  0  0  0  0  0
    0.0000   -3.3293    0.0000 C   0  0  0  0  0  0  0  0  0  0  0  0
    1.1679   -3.9873    0.0000 N   0  0  0  0  0  0  0  0  0  0  0  0
    2.3053   -3.3293    0.0000 C   0  0  0  0  0  0  0  0  0  0  0  0
    2.3053   -2.0002    0.0000 C   0  0  0  0  0  0  0  0  0  0  0  0
    3.5734   -1.5862    0.0000 N   0  0  0  0  0  0  0  0  0  0  0  0
    4.3578   -2.6582    0.0000 C   0  0  0  0  0  0  0  0  0  0  0  0
    3.5734   -3.7302    0.0000 N   0  0  0  0  0  0  0  0  0  0  0  0
  1  2  2  0  0  0  0
  2  3  1  0  0  0  0
  2  7  1  0  0  0  0
  3  4  1  0  0  0  0
  4  5  2  0  0  0  0
  5  6  1  0  0  0  0
  6  7  2  0  0  0  0
  6 10  1  0  0  0  0
  7  8  1  0  0  0  0
  8  9  1  0  0  0  0
  9 10  2  0  0  0  0
M  END
> <ID>
11339

> <Formula>
C5H4N4O

> <FW>
136.1115

> <DSSTox_CID>
25983

> <DSSTox_RID>
81271

> <DSSTox_GSID>
45983

> <DSSTox_FileID_Sort>
5952

> <TS_ChemName>
Hypoxanthine

> <TS_ChemName_Synonyms>


> <TS_CASRN>
68-94-0

> <CASRN_ChemName_Relationship>
primary

> <TS_Description>
single chemical compound

> <ChemNote>
tautomers

> <STRUCTURE_Shown>
tested chemical

> <STRUCTURE_Formula>
C5H4N4O

> <STRUCTURE_MW>
136.1115

> <STRUCTURE_ChemType>
defined organic

> <STRUCTURE_DefinedOrganicForm>
parent

> <STRUCTURE_IUPAC>
1,7-dihydro-6H-purin-6-one

> <STRUCTURE_SMILES>
O=C2NC=Nc1ncnc12

> <STRUCTURE_SMILES_Desalt>
O=C2NC=Nc1ncnc12

> <Substance_modify_yyyymmdd>
20110825

$$$$
