68-90-6
ChemmineR-0915142007XD

 22 24  0  0  0  0  0  0  0  0  1 V2000
    4.3647   -1.9233    0.0000 C   0  0  0  0  0  0  0  0  0  0  0  0
    4.3647   -0.6751    0.0000 C   0  0  0  0  0  0  0  0  0  0  0  0
    5.5030   -2.5827    0.0000 C   0  0  0  0  0  0  0  0  0  0  0  0
    3.2814   -0.0628    0.0000 O   0  0  0  0  0  0  0  0  0  0  0  0
    5.5030   -3.8937    0.0000 C   0  0  0  0  0  0  0  0  0  0  0  0
    2.1902   -1.9233    0.0000 C   0  0  0  0  0  0  0  0  0  0  0  0
    5.5030   -6.5078    0.0000 C   0  0  0  0  0  0  0  0  0  0  0  0
    2.1902   -0.6751    0.0000 C   0  0  0  0  0  0  0  0  0  0  0  0
    4.3804   -5.8484    0.0000 C   0  0  0  0  0  0  0  0  0  0  0  0
    6.6491   -5.8484    0.0000 C   0  0  0  0  0  0  0  0  0  0  0  0
    6.6491   -4.5374    0.0000 C   0  0  0  0  0  0  0  0  0  0  0  0
    4.3804   -4.5374    0.0000 C   0  0  0  0  0  0  0  0  0  0  0  0
    6.6805   -1.9390    0.0000 O   0  0  0  0  0  0  0  0  0  0  0  0
    3.2500   -6.5078    0.0000 I   0  0  0  0  0  0  0  0  0  0  0  0
    7.7874   -6.5078    0.0000 I   0  0  0  0  0  0  0  0  0  0  0  0
    5.5030   -7.8502    0.0000 O   0  0  0  0  0  0  0  0  0  0  0  0
    5.5344    0.0000    0.0000 C   0  0  0  0  0  0  0  0  0  0  0  0
    1.0912   -2.5356    0.0000 C   0  0  0  0  0  0  0  0  0  0  0  0
    1.0912   -0.0628    0.0000 C   0  0  0  0  0  0  0  0  0  0  0  0
    6.6805   -0.7065    0.0000 C   0  0  0  0  0  0  0  0  0  0  0  0
    0.0000   -1.9233    0.0000 C   0  0  0  0  0  0  0  0  0  0  0  0
    0.0000   -0.6751    0.0000 C   0  0  0  0  0  0  0  0  0  0  0  0
  1  2  2  0  0  0  0
  1  3  1  0  0  0  0
  1  6  1  0  0  0  0
  2  4  1  0  0  0  0
  2 17  1  0  0  0  0
  3  5  1  0  0  0  0
  3 13  2  0  0  0  0
  4  8  1  0  0  0  0
  5 11  1  0  0  0  0
  5 12  2  0  0  0  0
  6  8  2  0  0  0  0
  6 18  1  0  0  0  0
  7  9  2  0  0  0  0
  7 16  1  0  0  0  0
  7 10  1  0  0  0  0
  8 19  1  0  0  0  0
  9 12  1  0  0  0  0
  9 14  1  0  0  0  0
 10 11  2  0  0  0  0
 10 15  1  0  0  0  0
 17 20  1  0  0  0  0
 18 21  2  0  0  0  0
 19 22  2  0  0  0  0
 21 22  1  0  0  0  0
M  END
> <ID>
11435

> <Formula>
C17H12I2O3

> <FW>
518.0843

> <DSSTox_CID>
26134

> <DSSTox_RID>
81367

> <DSSTox_GSID>
46134

> <DSSTox_FileID_Sort>
6048

> <TS_ChemName>
Benziodarone

> <TS_ChemName_Synonyms>


> <TS_CASRN>
68-90-6

> <CASRN_ChemName_Relationship>
primary

> <TS_Description>
single chemical compound

> <ChemNote>


> <STRUCTURE_Shown>
tested chemical

> <STRUCTURE_Formula>
C17H12I2O3

> <STRUCTURE_MW>
518.0843

> <STRUCTURE_ChemType>
defined organic

> <STRUCTURE_DefinedOrganicForm>
parent

> <STRUCTURE_IUPAC>
(2-ethyl-1-benzofuran-3-yl)(4-hydroxy-3,5-diiodophenyl)methanone

> <STRUCTURE_SMILES>
Ic1cc(cc(I)c1O)C(=O)c2c3ccccc3oc2CC

> <STRUCTURE_SMILES_Desalt>
Ic1cc(cc(I)c1O)C(=O)c2c3ccccc3oc2CC

> <Substance_modify_yyyymmdd>
20110818

$$$$
