68047-06-3
ChemmineR-0915142007XD

 29 31  0  0  0  0  0  0  0  0  1 V2000
    3.9793   -6.9120    0.0000 C   0  0  0  0  0  0  0  0  0  0  0  0
    2.6452   -6.9120    0.0000 C   0  0  0  0  0  0  0  0  0  0  0  0
    4.6578   -5.7504    0.0000 C   0  0  0  0  0  0  0  0  0  0  0  0
    4.6578   -8.0621    0.0000 C   0  0  0  0  0  0  0  0  0  0  0  0
    2.0126   -5.7504    0.0000 C   0  0  0  0  0  0  0  0  0  0  0  0
    3.9793   -4.6118    0.0000 C   0  0  0  0  0  0  0  0  0  0  0  0
    5.9919   -5.7504    0.0000 C   0  0  0  0  0  0  0  0  0  0  0  0
    9.9712   -1.1386    0.0000 N   0  0  0  0  0  0  0  0  0  0  0  0
    5.9919   -3.4387    0.0000 C   0  0  0  0  0  0  0  0  0  0  0  0
    4.6578   -3.4387    0.0000 C   0  0  0  0  0  0  0  0  0  0  0  0
    6.6475   -4.6118    0.0000 C   0  0  0  0  0  0  0  0  0  0  0  0
    2.0126   -8.0621    0.0000 C   0  0  0  0  0  0  0  0  0  0  0  0
    6.6475   -2.3002    0.0000 O   0  0  0  0  0  0  0  0  0  0  0  0
    7.9815   -2.3002    0.0000 C   0  0  0  0  0  0  0  0  0  0  0  0
    8.6371   -1.1386    0.0000 C   0  0  0  0  0  0  0  0  0  0  0  0
    0.6785   -5.7504    0.0000 C   0  0  0  0  0  0  0  0  0  0  0  0
    2.6452   -4.6118    0.0000 C   0  0  0  0  0  0  0  0  0  0  0  0
    5.9919   -8.0621    0.0000 C   0  0  0  0  0  0  0  0  0  0  0  0
    3.9793   -9.2236    0.0000 C   0  0  0  0  0  0  0  0  0  0  0  0
   10.6382   -2.3002    0.0000 C   0  0  0  0  0  0  0  0  0  0  0  0
   10.6382    0.0000    0.0000 C   0  0  0  0  0  0  0  0  0  0  0  0
    0.6785   -8.0621    0.0000 C   0  0  0  0  0  0  0  0  0  0  0  0
    4.6578  -10.3392    0.0000 C   0  0  0  0  0  0  0  0  0  0  0  0
    0.0000   -4.6118    0.0000 C   0  0  0  0  0  0  0  0  0  0  0  0
    2.0126   -3.4387    0.0000 C   0  0  0  0  0  0  0  0  0  0  0  0
    6.6475   -9.2236    0.0000 C   0  0  0  0  0  0  0  0  0  0  0  0
    0.6785   -3.4387    0.0000 C   0  0  0  0  0  0  0  0  0  0  0  0
    5.9919  -10.3392    0.0000 C   0  0  0  0  0  0  0  0  0  0  0  0
    6.6475  -11.5008    0.0000 O   0  0  0  0  0  0  0  0  0  0  0  0
  1  2  2  0  0  0  0
  1  3  1  0  0  0  0
  1  4  1  0  0  0  0
  2  5  1  0  0  0  0
  2 12  1  0  0  0  0
  3  6  1  0  0  0  0
  3  7  2  0  0  0  0
  4 18  2  0  0  0  0
  4 19  1  0  0  0  0
  5 16  1  0  0  0  0
  5 17  2  0  0  0  0
  6 10  2  0  0  0  0
  7 11  1  0  0  0  0
  8 15  1  0  0  0  0
  8 20  1  0  0  0  0
  8 21  1  0  0  0  0
  9 11  2  0  0  0  0
  9 13  1  0  0  0  0
  9 10  1  0  0  0  0
 12 22  1  0  0  0  0
 13 14  1  0  0  0  0
 14 15  1  0  0  0  0
 16 24  2  0  0  0  0
 17 25  1  0  0  0  0
 18 26  1  0  0  0  0
 19 23  2  0  0  0  0
 23 28  1  0  0  0  0
 24 27  1  0  0  0  0
 25 27  2  0  0  0  0
 26 28  2  0  0  0  0
 28 29  1  0  0  0  0
M  END
> <ID>
2189

> <Formula>
C26H29NO2

> <FW>
387.514

> <DSSTox_CID>
2384

> <DSSTox_RID>
76567

> <DSSTox_GSID>
22384

> <DSSTox_FileID_Sort>
1251

> <TS_ChemName>
(Z)-4-Hydroxytamoxifen

> <TS_ChemName_Synonyms>
4-Hydroxytamoxifen (4-OHT) (4-HT) (TOT)

> <TS_CASRN>
68047-06-3

> <CASRN_ChemName_Relationship>
primary

> <TS_Description>
single chemical compound

> <ChemNote>
stereochem; duplicate CASRN

> <STRUCTURE_Shown>
tested chemical

> <STRUCTURE_Formula>
C26H29NO2

> <STRUCTURE_MW>
387.514

> <STRUCTURE_ChemType>
defined organic

> <STRUCTURE_DefinedOrganicForm>
parent

> <STRUCTURE_IUPAC>
4-[(1Z)-1-{4-[2-(dimethylamino)ethoxy]phenyl}-2-phenylbut-1-en-1-yl]phenol

> <STRUCTURE_SMILES>
Oc1ccc(cc1)C(\c2ccc(OCCN(C)C)cc2)=C(/CC)c3ccccc3

> <STRUCTURE_SMILES_Desalt>
Oc1ccc(cc1)C(\c2ccc(OCCN(C)C)cc2)=C(/CC)c3ccccc3

> <Substance_modify_yyyymmdd>
20120530

$$$$
