6804-07-5
ChemmineR-0915142007XD

 19 20  0  0  0  0  0  0  0  0  2 V2000
    3.4409   -1.3349    0.0000 N   0  3  0  0  0  0  0  0  0  0  0  0
    3.4409   -3.9932    0.0000 N   0  3  0  0  0  0  0  0  0  0  0  0
    4.6032   -2.0024    0.0000 C   0  0  0  0  0  0  0  0  0  0  0  0
    2.3016   -2.0024    0.0000 C   0  0  0  0  0  0  0  0  0  0  0  0
    2.3016   -3.3373    0.0000 C   0  0  0  0  0  0  0  0  0  0  0  0
    4.6032   -3.3373    0.0000 C   0  0  0  0  0  0  0  0  0  0  0  0
    9.2063   -2.0024    0.0000 C   0  0  0  0  0  0  0  0  0  0  0  0
    3.4409    0.0000    0.0000 O   0  5  0  0  0  0  0  0  0  0  0  0
    5.7424   -1.3349    0.0000 C   0  0  0  0  0  0  0  0  0  0  0  0
    3.4409   -5.3166    0.0000 O   0  5  0  0  0  0  0  0  0  0  0  0
    6.9047   -2.0024    0.0000 N   0  0  0  0  0  0  0  0  0  0  0  0
    8.0440   -1.3349    0.0000 N   0  0  0  0  0  0  0  0  0  0  0  0
    9.2063   -3.3373    0.0000 O   0  0  0  0  0  0  0  0  0  0  0  0
   10.3456   -1.3349    0.0000 O   0  0  0  0  0  0  0  0  0  0  0  0
    1.1393   -1.3349    0.0000 C   0  0  0  0  0  0  0  0  0  0  0  0
    1.1393   -3.9932    0.0000 C   0  0  0  0  0  0  0  0  0  0  0  0
   11.5079   -2.0024    0.0000 C   0  0  0  0  0  0  0  0  0  0  0  0
    0.0000   -2.0024    0.0000 C   0  0  0  0  0  0  0  0  0  0  0  0
    0.0000   -3.3373    0.0000 C   0  0  0  0  0  0  0  0  0  0  0  0
  1  3  2  0  0  0  0
  1  4  1  0  0  0  0
  1  8  1  0  0  0  0
  2  5  1  0  0  0  0
  2 10  1  0  0  0  0
  2  6  2  0  0  0  0
  3  6  1  0  0  0  0
  3  9  1  0  0  0  0
  4  5  2  0  0  0  0
  4 15  1  0  0  0  0
  5 16  1  0  0  0  0
  7 12  1  0  0  0  0
  7 13  2  0  0  0  0
  7 14  1  0  0  0  0
  9 11  2  0  0  0  0
 11 12  1  0  0  0  0
 14 17  1  0  0  0  0
 15 18  2  0  0  0  0
 16 19  2  0  0  0  0
 18 19  1  0  0  0  0
M  END
> <ID>
9740

> <Formula>
C11H10N4O4

> <FW>
262.2215

> <DSSTox_CID>
23913

> <DSSTox_RID>
80088

> <DSSTox_GSID>
43913

> <DSSTox_FileID_Sort>
4770

> <TS_ChemName>
Carbadox

> <TS_ChemName_Synonyms>


> <TS_CASRN>
6804-07-5

> <CASRN_ChemName_Relationship>
primary

> <TS_Description>
single chemical compound

> <ChemNote>


> <STRUCTURE_Shown>
tested chemical

> <STRUCTURE_Formula>
C11H10N4O4

> <STRUCTURE_MW>
262.2215

> <STRUCTURE_ChemType>
defined organic

> <STRUCTURE_DefinedOrganicForm>
parent

> <STRUCTURE_IUPAC>
methyl (2E)-2-[(1,4-dioxidoquinoxalin-2-yl)methylidene]hydrazinecarboxylate

> <STRUCTURE_SMILES>
O=C(OC)N\N=C\c2c[n+]([O-])c1ccccc1[n+]2[O-]

> <STRUCTURE_SMILES_Desalt>
O=C(OC)N\N=C\c2c[n+](O)c1ccccc1[n+]2O

> <Substance_modify_yyyymmdd>
20090108

$$$$
