68052-23-3
ChemmineR-0915142007XD

 26 27  0  0  0  0  0  0  0  0  1 V2000
    5.7250   -5.9317    0.0000 C   0  0  0  0  0  0  0  0  0  0  0  0
    6.8927   -6.6344    0.0000 C   0  0  0  0  0  0  0  0  0  0  0  0
    8.0191   -5.9317    0.0000 C   0  0  0  0  0  0  0  0  0  0  0  0
    9.1765   -6.6344    0.0000 C   0  0  0  0  0  0  0  0  0  0  0  0
   10.3339   -5.9317    0.0000 C   0  0  0  0  0  0  0  0  0  0  0  0
    4.5676   -6.6344    0.0000 O   0  0  0  0  0  0  0  0  0  0  0  0
    8.0191   -4.6503    0.0000 O   0  0  0  0  0  0  0  0  0  0  0  0
    7.5748   -7.7815    0.0000 C   0  0  0  0  0  0  0  0  0  0  0  0
    6.2314   -7.7918    0.0000 C   0  0  0  0  0  0  0  0  0  0  0  0
    9.1765   -7.9675    0.0000 C   0  0  0  0  0  0  0  0  0  0  0  0
    3.4412   -5.9317    0.0000 C   0  0  0  0  0  0  0  0  0  0  0  0
    3.4412   -4.6503    0.0000 O   0  0  0  0  0  0  0  0  0  0  0  0
    2.2838   -6.6344    0.0000 C   0  0  0  0  0  0  0  0  0  0  0  0
    1.1057   -5.9317    0.0000 C   0  0  0  0  0  0  0  0  0  0  0  0
    2.2838   -7.9675    0.0000 C   0  0  0  0  0  0  0  0  0  0  0  0
    0.0000   -6.6344    0.0000 C   0  0  0  0  0  0  0  0  0  0  0  0
    1.1057   -8.6082    0.0000 C   0  0  0  0  0  0  0  0  0  0  0  0
    0.0000   -7.9675    0.0000 C   0  0  0  0  0  0  0  0  0  0  0  0
    9.1765   -3.9579    0.0000 C   0  0  0  0  0  0  0  0  0  0  0  0
   10.3339   -4.6503    0.0000 O   0  0  0  0  0  0  0  0  0  0  0  0
    9.1765   -2.6765    0.0000 C   0  0  0  0  0  0  0  0  0  0  0  0
   10.3339   -1.9738    0.0000 C   0  0  0  0  0  0  0  0  0  0  0  0
    8.0501   -1.9738    0.0000 C   0  0  0  0  0  0  0  0  0  0  0  0
   10.3339   -0.6407    0.0000 C   0  0  0  0  0  0  0  0  0  0  0  0
    8.0501   -0.6407    0.0000 C   0  0  0  0  0  0  0  0  0  0  0  0
    9.1765    0.0000    0.0000 C   0  0  0  0  0  0  0  0  0  0  0  0
  1  2  1  0  0  0  0
  1  6  1  0  0  0  0
  2  3  1  0  0  0  0
  2  8  1  0  0  0  0
  2  9  1  0  0  0  0
  3  4  1  0  0  0  0
  3  7  1  0  0  0  0
  4  5  1  0  0  0  0
  4 10  1  0  0  0  0
  6 11  1  0  0  0  0
  7 19  1  0  0  0  0
 11 12  2  0  0  0  0
 11 13  1  0  0  0  0
 13 14  2  0  0  0  0
 13 15  1  0  0  0  0
 14 16  1  0  0  0  0
 15 17  2  0  0  0  0
 16 18  2  0  0  0  0
 17 18  1  0  0  0  0
 19 20  2  0  0  0  0
 19 21  1  0  0  0  0
 21 22  2  0  0  0  0
 21 23  1  0  0  0  0
 22 24  1  0  0  0  0
 23 25  2  0  0  0  0
 24 26  2  0  0  0  0
 25 26  1  0  0  0  0
M  END
> <ID>
8215

> <Formula>
C22H26O4

> <FW>
354.4394

> <DSSTox_CID>
21242

> <DSSTox_RID>
79659

> <DSSTox_GSID>
41242

> <DSSTox_FileID_Sort>
4341

> <TS_ChemName>
2,2,4-Trimethylpentane-1,3-diyl dibenzoate

> <TS_ChemName_Synonyms>
2,2,4-Trimethyl-1,3-pentanediol dibenzoate

> <TS_CASRN>
68052-23-3

> <CASRN_ChemName_Relationship>
primary

> <TS_Description>
single chemical compound

> <ChemNote>


> <STRUCTURE_Shown>
tested chemical

> <STRUCTURE_Formula>
C22H26O4

> <STRUCTURE_MW>
354.4394

> <STRUCTURE_ChemType>
defined organic

> <STRUCTURE_DefinedOrganicForm>
parent

> <STRUCTURE_IUPAC>
2,2,4-trimethylpentane-1,3-diyl dibenzoate

> <STRUCTURE_SMILES>
CC(C)C(OC(=O)c1ccccc1)C(C)(C)COC(=O)c2ccccc2

> <STRUCTURE_SMILES_Desalt>
CC(C)C(OC(=O)c1ccccc1)C(C)(C)COC(=O)c2ccccc2

> <Substance_modify_yyyymmdd>
20080825

$$$$
