68060-64-0
ChemmineR-0915142007XD

 40 43  0  0  1  0  0  0  0  0  1 V2000
    6.9079   -4.0319    0.0000 C    0  0  0  0  0  0  0  0  0  0  0  0
    4.6236   -4.0319    0.0000 C    0  0  0  0  0  0  0  0  0  0  0  0
    9.2335   -4.0319    0.0000 C    0  0  0  0  0  0  0  0  0  0  0  0
    5.8071   -4.6787    0.0000 C    0  0  0  0  0  0  0  0  0  0  0  0
    8.0638   -4.6787    0.0000 C    0  0  0  0  0  0  0  0  0  0  0  0
    6.9079   -2.6971    0.0000 C    0  0  0  0  0  0  0  0  0  0  0  0
    9.2335   -2.6971    0.0000 C    0  0  0  0  0  0  0  0  0  0  0  0
    3.4677   -4.6787    0.0000 C    0  0  0  0  0  0  0  0  0  0  0  0
    4.6236   -2.6971    0.0000 C    0  0  0  0  0  0  0  0  0  0  0  0
    2.3256   -4.0319    0.0000 C    0  0  0  0  0  0  0  0  0  0  0  0
    3.4677   -2.0091    0.0000 C    0  0  0  0  0  0  0  0  0  0  0  0
    2.3256   -2.6971    0.0000 C    0  0  0  0  0  0  0  0  0  0  0  0
    8.0638   -2.0091    0.0000 C    0  0  0  0  0  0  0  0  0  0  0  0
   10.4307   -4.7200    0.0000 C    0  0  0  0  0  0  0  0  0  0  0  0
    5.8071   -2.0091    0.0000 C    0  0  0  0  0  0  0  0  0  0  0  0
   11.5453   -4.0319    0.0000 N    0  0  0  0  0  0  0  0  0  0  0  0
   12.6875   -6.0272    0.0000 N    0  0  0  0  0  0  0  0  0  0  0  0
   12.6875   -4.6787    0.0000 C    0  0  0  0  0  0  0  0  0  0  0  0
    8.0638   -6.0272    0.0000 O    0  0  0  0  0  0  0  0  0  0  0  0
    3.4677   -6.0272    0.0000 O    0  0  0  0  0  0  0  0  0  0  0  0
    8.0638   -0.6743    0.0000 N    0  0  0  0  0  0  0  0  0  0  0  0
    1.1834   -4.6787    0.0000 C    0  0  0  0  0  0  0  0  0  0  0  0
    6.9079   -5.3392    0.0000 O    0  0  0  0  0  0  0  0  0  0  0  0
   10.4307   -6.0410    0.0000 O    0  0  0  0  0  0  0  0  0  0  0  0
    5.8071   -6.0410    0.0000 O    0  0  0  0  0  0  0  0  0  0  0  0
   10.4307   -2.0091    0.0000 O    0  0  0  0  0  0  0  0  0  0  0  0
    3.0274   -1.0596    0.0000 O    0  0  0  0  0  0  0  0  0  0  0  0
    1.1834   -2.0091    0.0000 C    0  0  0  0  0  0  0  0  0  0  0  0
    4.2246   -1.1009    0.0000 C    0  0  0  0  0  0  0  0  0  0  0  0
    1.1834   -6.0410    0.0000 O    0  0  0  0  0  0  0  0  0  0  0  0
   11.6279   -6.7841    0.0000 C    0  0  0  0  0  0  0  0  0  0  0  0
   13.7608   -6.7703    0.0000 C    0  0  0  0  0  0  0  0  0  0  0  0
    0.0000   -2.6971    0.0000 C    0  0  0  0  0  0  0  0  0  0  0  0
    0.0000   -4.0319    0.0000 C    0  0  0  0  0  0  0  0  0  0  0  0
    9.2335    0.0000    0.0000 C    0  0  0  0  0  0  0  0  0  0  0  0
    6.9079    0.0000    0.0000 C    0  0  0  0  0  0  0  0  0  0  0  0
   13.3618   -8.0501    0.0000 C    0  0  0  0  0  0  0  0  0  0  0  0
   12.0545   -8.0501    0.0000 C    0  0  0  0  0  0  0  0  0  0  0  0
    6.9079   -1.1421    0.0000 H    0  0  0  0  0  0  0  0  0  0  0  0
    3.0962  -10.0592    0.0000 Cl   0  0  0  0  0  0  0  0  0  0  0  0
  1  4  1  0  0  0  0
  1  5  1  0  0  0  0
  1  6  1  0  0  0  0
  1 23  1  6  0  0  0
  2  4  2  0  0  0  0
  2  8  1  0  0  0  0
  2  9  1  0  0  0  0
  3  5  1  0  0  0  0
  3 14  1  0  0  0  0
  3  7  2  0  0  0  0
  4 25  1  0  0  0  0
  5 19  2  0  0  0  0
  6 13  1  0  0  0  0
  6 15  1  0  0  0  0
  6 39  1  6  0  0  0
  7 13  1  0  0  0  0
  7 26  1  0  0  0  0
  8 10  1  0  0  0  0
  8 20  2  0  0  0  0
  9 15  1  0  0  0  0
  9 11  1  0  0  0  0
 10 22  1  0  0  0  0
 10 12  2  0  0  0  0
 11 12  1  0  0  0  0
 11 27  1  1  0  0  0
 11 29  1  6  0  0  0
 12 28  1  0  0  0  0
 13 21  1  6  0  0  0
 14 16  1  0  0  0  0
 14 24  2  0  0  0  0
 16 18  1  0  0  0  0
 17 18  1  0  0  0  0
 17 31  1  0  0  0  0
 17 32  1  0  0  0  0
 21 35  1  0  0  0  0
 21 36  1  0  0  0  0
 22 30  1  0  0  0  0
 22 34  2  0  0  0  0
 28 33  2  0  0  0  0
 31 38  1  0  0  0  0
 32 37  1  0  0  0  0
 33 34  1  0  0  0  0
 37 38  1  0  0  0  0
M  END
> <ID>
12932

> <Formula>
C27H34ClN3O8

> <FW>
564.0272 (527.5662+36.4609)

> <DSSTox_CID>
27833

> <DSSTox_RID>
82596

> <DSSTox_GSID>
47857

> <DSSTox_FileID_Sort>
7273

> <TS_ChemName>
Rolitetracycline hydrochloride

> <TS_ChemName_Synonyms>


> <TS_CASRN>
68060-64-0

> <CASRN_ChemName_Relationship>
primary

> <TS_Description>
single chemical compound

> <ChemNote>
stereochem; parent [751-97-3]

> <STRUCTURE_Shown>
tested chemical

> <STRUCTURE_Formula>
C27H34ClN3O8

> <STRUCTURE_MW>
564.0272

> <STRUCTURE_ChemType>
defined organic

> <STRUCTURE_DefinedOrganicForm>
complex

> <STRUCTURE_IUPAC>
(4S,4aS,6S,12aS)-4-(dimethylamino)-3,6,10,12,12a-pentahydroxy-6-methyl-1,11-dioxo-N-(pyrrolidin-1-ylmethyl)-1,4,4a,5,5a,6,11,12a-octahydrotetracene-2-carboxamide hydrochloride (1:1)

> <STRUCTURE_SMILES>
Cl.O=C(NCN1CCCC1)C4=C(O)[C@@H](N(C)C)[C@@H]5CC3C(C(=O)c2c(O)cccc2[C@@]3(C)O)=C(O)[C@]5(O)C4=O

> <STRUCTURE_SMILES_Desalt>
O=C(NCN1CCCC1)C4=C(O)[C@@H](N(C)C)[C@@H]5CC3C(C(=O)c2c(O)cccc2[C@@]3(C)O)=C(O)[C@]5(O)C4=O

> <Substance_modify_yyyymmdd>
20110322

$$$$
