6807-17-6
ChemmineR-0915142007XD

 20 21  0  0  0  0  0  0  0  0  1 V2000
    6.5934   -6.0289    0.0000 C   0  0  0  0  0  0  0  0  0  0  0  0
    7.5267   -6.9773    0.0000 O   0  0  0  0  0  0  0  0  0  0  0  0
    5.3139   -6.3676    0.0000 C   0  0  0  0  0  0  0  0  0  0  0  0
    6.9472   -4.7494    0.0000 C   0  0  0  0  0  0  0  0  0  0  0  0
    6.0214   -3.8010    0.0000 C   0  0  0  0  0  0  0  0  0  0  0  0
    4.3805   -5.4192    0.0000 C   0  0  0  0  0  0  0  0  0  0  0  0
    4.7343   -4.1397    0.0000 C   0  0  0  0  0  0  0  0  0  0  0  0
    0.9484   -5.9837    0.0000 C   0  0  0  0  0  0  0  0  0  0  0  0
    0.0000   -6.9321    0.0000 O   0  0  0  0  0  0  0  0  0  0  0  0
    0.6097   -4.6967    0.0000 C   0  0  0  0  0  0  0  0  0  0  0  0
    2.2279   -6.3375    0.0000 C   0  0  0  0  0  0  0  0  0  0  0  0
    3.1763   -5.4042    0.0000 C   0  0  0  0  0  0  0  0  0  0  0  0
    1.5580   -3.7709    0.0000 C   0  0  0  0  0  0  0  0  0  0  0  0
    2.8376   -4.1171    0.0000 C   0  0  0  0  0  0  0  0  0  0  0  0
    3.7859   -3.1913    0.0000 C   0  0  0  0  0  0  0  0  0  0  0  0
    2.8602   -2.2279    0.0000 C   0  0  0  0  0  0  0  0  0  0  0  0
    3.2064   -0.9408    0.0000 C   0  0  0  0  0  0  0  0  0  0  0  0
    4.4934   -0.6247    0.0000 C   0  0  0  0  0  0  0  0  0  0  0  0
    4.7343   -2.2430    0.0000 C   0  0  0  0  0  0  0  0  0  0  0  0
    2.2806    0.0000    0.0000 C   0  0  0  0  0  0  0  0  0  0  0  0
  1  2  1  0  0  0  0
  1  3  2  0  0  0  0
  1  4  1  0  0  0  0
  3  6  1  0  0  0  0
  4  5  2  0  0  0  0
  5  7  1  0  0  0  0
  6  7  2  0  0  0  0
  7 15  1  0  0  0  0
  8  9  1  0  0  0  0
  8 10  2  0  0  0  0
  8 11  1  0  0  0  0
 10 13  1  0  0  0  0
 11 12  2  0  0  0  0
 12 14  1  0  0  0  0
 13 14  2  0  0  0  0
 14 15  1  0  0  0  0
 15 16  1  0  0  0  0
 15 19  1  0  0  0  0
 16 17  1  0  0  0  0
 17 18  1  0  0  0  0
 17 20  1  0  0  0  0
M  END
> <ID>
5919

> <Formula>
C18H22O2

> <FW>
270.3661

> <DSSTox_CID>
9282

> <DSSTox_RID>
78747

> <DSSTox_GSID>
29282

> <DSSTox_FileID_Sort>
3429

> <TS_ChemName>
4,4'-(4-Methylpentane-2,2-diyl)diphenol

> <TS_ChemName_Synonyms>
4,4'-(4-Methylpentane-2,2-diyl)diphenol (Phenol, 4,4'-(1,3-dimethylbutylidene)bis-)

> <TS_CASRN>
6807-17-6

> <CASRN_ChemName_Relationship>
primary

> <TS_Description>
single chemical compound

> <ChemNote>


> <STRUCTURE_Shown>
tested chemical

> <STRUCTURE_Formula>
C18H22O2

> <STRUCTURE_MW>
270.3661

> <STRUCTURE_ChemType>
defined organic

> <STRUCTURE_DefinedOrganicForm>
parent

> <STRUCTURE_IUPAC>
4,4'-(4-methylpentane-2,2-diyl)diphenol

> <STRUCTURE_SMILES>
Oc1ccc(cc1)C(C)(CC(C)C)c2ccc(O)cc2

> <STRUCTURE_SMILES_Desalt>
Oc1ccc(cc1)C(C)(CC(C)C)c2ccc(O)cc2

> <Substance_modify_yyyymmdd>
20080429

$$$$
