68085-85-8
ChemmineR-0915142007XD

 31 33  0  0  1  0  0  0  0  0  1 V2000
    5.2813   -1.0349    0.0000 C    0  0  0  0  0  0  0  0  0  0  0  0
    4.6212   -2.2124    0.0000 C    0  0  0  0  0  0  0  0  0  0  0  0
    5.9950   -2.2124    0.0000 C    0  0  0  0  0  0  0  0  0  0  0  0
    7.2797   -2.8726    0.0000 C    0  0  0  0  0  0  0  0  0  0  0  0
    3.4971   -2.8369    0.0000 C    0  0  0  0  0  0  0  0  0  0  0  0
    1.1776   -2.8369    0.0000 C    0  0  0  0  0  0  0  0  0  0  0  0
    2.3017   -2.2124    0.0000 C    0  0  0  0  0  0  0  0  0  0  0  0
    8.4037   -2.2124    0.0000 O    0  0  0  0  0  0  0  0  0  0  0  0
    9.5278   -5.3884    0.0000 N    0  0  0  0  0  0  0  0  0  0  0  0
    9.5278   -4.1929    0.0000 C    0  0  0  0  0  0  0  0  0  0  0  0
    9.5278   -2.8726    0.0000 C    0  0  0  0  0  0  0  0  0  0  0  0
   10.7232   -2.2124    0.0000 C    0  0  0  0  0  0  0  0  0  0  0  0
    7.2797   -4.1929    0.0000 O    0  0  0  0  0  0  0  0  0  0  0  0
   11.8651   -2.8726    0.0000 C    0  0  0  0  0  0  0  0  0  0  0  0
   13.0963   -2.2838    0.0000 C    0  0  0  0  0  0  0  0  0  0  0  0
   14.2560   -2.8726    0.0000 O    0  0  0  0  0  0  0  0  0  0  0  0
    0.0000   -3.4436    0.0000 F    0  0  0  0  0  0  0  0  0  0  0  0
    0.5710   -1.6772    0.0000 F    0  0  0  0  0  0  0  0  0  0  0  0
    1.7485   -3.9967    0.0000 F    0  0  0  0  0  0  0  0  0  0  0  0
    5.9950    0.0000    0.0000 C    0  0  0  0  0  0  0  0  0  0  0  0
    4.7461    0.0000    0.0000 C    0  0  0  0  0  0  0  0  0  0  0  0
    2.3017   -0.8386    0.0000 Cl   0  0  0  0  0  0  0  0  0  0  0  0
   15.5050   -2.2124    0.0000 C    0  0  0  0  0  0  0  0  0  0  0  0
   10.7232   -0.8921    0.0000 C    0  0  0  0  0  0  0  0  0  0  0  0
   11.8651   -0.1963    0.0000 C    0  0  0  0  0  0  0  0  0  0  0  0
   13.0963   -0.8921    0.0000 C    0  0  0  0  0  0  0  0  0  0  0  0
   15.5050   -0.8921    0.0000 C    0  0  0  0  0  0  0  0  0  0  0  0
   16.6112   -2.8726    0.0000 C    0  0  0  0  0  0  0  0  0  0  0  0
   17.8423   -2.2838    0.0000 C    0  0  0  0  0  0  0  0  0  0  0  0
   16.6112   -0.2498    0.0000 C    0  0  0  0  0  0  0  0  0  0  0  0
   17.8423   -0.8921    0.0000 C    0  0  0  0  0  0  0  0  0  0  0  0
  1  2  1  0  0  0  0
  1  3  1  0  0  0  0
  1 20  1  0  0  0  0
  1 21  1  0  0  0  0
  2  5  1  1  0  0  0
  2  3  1  0  0  0  0
  3  4  1  1  0  0  0
  4  8  1  0  0  0  0
  4 13  2  0  0  0  0
  5  7  2  0  0  0  0
  6  7  1  0  0  0  0
  6 17  1  0  0  0  0
  6 18  1  0  0  0  0
  6 19  1  0  0  0  0
  7 22  1  0  0  0  0
  8 11  1  0  0  0  0
  9 10  3  0  0  0  0
 11 10  1  1  0  0  0
 11 12  1  0  0  0  0
 12 14  1  0  0  0  0
 12 24  2  0  0  0  0
 14 15  2  0  0  0  0
 15 16  1  0  0  0  0
 15 26  1  0  0  0  0
 16 23  1  0  0  0  0
 23 27  1  0  0  0  0
 23 28  2  0  0  0  0
 24 25  1  0  0  0  0
 25 26  2  0  0  0  0
 27 30  2  0  0  0  0
 28 29  1  0  0  0  0
 29 31  2  0  0  0  0
 30 31  1  0  0  0  0
M  END
> <ID>
3460

> <Formula>
C23H19ClF3NO3

> <FW>
449.8501

> <DSSTox_CID>
3997

> <DSSTox_RID>
77251

> <DSSTox_GSID>
23997

> <DSSTox_FileID_Sort>
1934

> <TS_ChemName>
Cyhalothrin

> <TS_ChemName_Synonyms>
Cyhalothrin (Karate) (Cyclopropanecarboxylic acid, 3-(2-chloro-3,3,3-tri fluoro-1-propenyl)-2,2-dimethyl-, cyano(3-phenoxyp henyl)methyl ester)

> <TS_CASRN>
68085-85-8

> <CASRN_ChemName_Relationship>
primary

> <TS_Description>
mixture or formulation

> <ChemNote>
mixture of 2 pairs of enantiomers  [(Z),(1R,3R ), R-; (Z),(1S,3S) S-; (Z),(1R,3R), S-;  (Z), (1S,3S) R-] cyano; structure shown (Z),(1S,3S) S-; stereochem

> <STRUCTURE_Shown>
representative isomer in mixture

> <STRUCTURE_Formula>
C23H19ClF3NO3

> <STRUCTURE_MW>
449.8501

> <STRUCTURE_ChemType>
defined organic

> <STRUCTURE_DefinedOrganicForm>
parent

> <STRUCTURE_IUPAC>
(S)-cyano(3-phenoxyphenyl)methyl (1S,3S)-3-[(1Z)-2-chloro-3,3,3-trifluoroprop-1-en-1-yl]-2,2-dimethylcyclopropanecarboxylate

> <STRUCTURE_SMILES>
Cl\C(=C/[C@@H]3[C@H](C(=O)O[C@H](C#N)c2cccc(Oc1ccccc1)c2)C3(C)C)C(F)(F)F

> <STRUCTURE_SMILES_Desalt>
Cl\C(=C/[C@@H]3[C@H](C(=O)O[C@H](C#N)c2cccc(Oc1ccccc1)c2)C3(C)C)C(F)(F)F

> <Substance_modify_yyyymmdd>
20080429

$$$$
