6809-52-5
ChemmineR-0915142007XD

 24 23  0  0  0  0  0  0  0  0  1 V2000
   14.9673   -1.4511    0.0000 C   0  0  0  0  0  0  0  0  0  0  0  0
   10.3444   -1.4097    0.0000 C   0  0  0  0  0  0  0  0  0  0  0  0
    5.7630   -1.3682    0.0000 C   0  0  0  0  0  0  0  0  0  0  0  0
    1.1609   -1.3267    0.0000 C   0  0  0  0  0  0  0  0  0  0  0  0
    2.3011   -1.9901    0.0000 C   0  0  0  0  0  0  0  0  0  0  0  0
   11.5053   -2.0938    0.0000 C   0  0  0  0  0  0  0  0  0  0  0  0
   16.1489   -2.1352    0.0000 C   0  0  0  0  0  0  0  0  0  0  0  0
    6.9032   -2.0523    0.0000 C   0  0  0  0  0  0  0  0  0  0  0  0
   19.5695   -0.1037    0.0000 O   0  0  0  0  0  0  0  0  0  0  0  0
   19.5695   -1.4304    0.0000 C   0  0  0  0  0  0  0  0  0  0  0  0
   12.6662   -1.4304    0.0000 C   0  0  0  0  0  0  0  0  0  0  0  0
    8.0641   -1.3889    0.0000 C   0  0  0  0  0  0  0  0  0  0  0  0
    3.4412   -1.3475    0.0000 C   0  0  0  0  0  0  0  0  0  0  0  0
   17.2684   -1.4719    0.0000 C   0  0  0  0  0  0  0  0  0  0  0  0
   13.8064   -2.0938    0.0000 C   0  0  0  0  0  0  0  0  0  0  0  0
    4.5814   -2.0316    0.0000 C   0  0  0  0  0  0  0  0  0  0  0  0
    9.2043   -2.0730    0.0000 C   0  0  0  0  0  0  0  0  0  0  0  0
   18.4293   -2.0938    0.0000 C   0  0  0  0  0  0  0  0  0  0  0  0
    1.1609    0.0000    0.0000 C   0  0  0  0  0  0  0  0  0  0  0  0
    0.0000   -1.9901    0.0000 C   0  0  0  0  0  0  0  0  0  0  0  0
   10.3444   -0.0622    0.0000 C   0  0  0  0  0  0  0  0  0  0  0  0
   14.9673   -0.1244    0.0000 C   0  0  0  0  0  0  0  0  0  0  0  0
    5.7630   -0.0415    0.0000 C   0  0  0  0  0  0  0  0  0  0  0  0
   20.7304   -2.0938    0.0000 C   0  0  0  0  0  0  0  0  0  0  0  0
  1  7  2  3  0  0  0
  1 15  1  0  0  0  0
  1 22  1  0  0  0  0
  2  6  2  0  0  0  0
  2 17  1  0  0  0  0
  2 21  1  0  0  0  0
  3  8  2  0  0  0  0
  3 16  1  0  0  0  0
  3 23  1  0  0  0  0
  4  5  2  0  0  0  0
  4 19  1  0  0  0  0
  4 20  1  0  0  0  0
  5 13  1  0  0  0  0
  6 11  1  0  0  0  0
  7 14  1  0  0  0  0
  8 12  1  0  0  0  0
  9 10  2  0  0  0  0
 10 18  1  0  0  0  0
 10 24  1  0  0  0  0
 11 15  1  0  0  0  0
 12 17  1  0  0  0  0
 13 16  1  0  0  0  0
 14 18  1  0  0  0  0
M  END
> <ID>
13617

> <Formula>
C23H38O

> <FW>
330.5472

> <DSSTox_CID>
28546

> <DSSTox_RID>
82818

> <DSSTox_GSID>
48620

> <DSSTox_FileID_Sort>
7495

> <TS_ChemName>
Teprenone

> <TS_ChemName_Synonyms>


> <TS_CASRN>
6809-52-5

> <CASRN_ChemName_Relationship>
primary

> <TS_Description>
mixture of Z,E isomers

> <ChemNote>
mixture of 5Z,E isomers

> <STRUCTURE_Shown>
representative isomer in mixture

> <STRUCTURE_Formula>
C23H38O

> <STRUCTURE_MW>
330.5472

> <STRUCTURE_ChemType>
defined organic

> <STRUCTURE_DefinedOrganicForm>
parent

> <STRUCTURE_IUPAC>
(9E,13E)-6,10,14,18-tetramethylnonadeca-5,9,13,17-tetraen-2-one

> <STRUCTURE_SMILES>
C/C(C)=C\CCC(\C)=C\CCC(\C)=C\CCC(C)=CCCC(C)=O

> <STRUCTURE_SMILES_Desalt>
C/C(C)=C\CCC(\C)=C\CCC(\C)=C\CCC(C)=CCCC(C)=O

> <Substance_modify_yyyymmdd>
20111015

$$$$
