681-84-5
ChemmineR-0915142007XD

  9  8  0  0  0  0  0  0  0  0  1 V2000
    2.0013   -2.0013    0.0000 Si   0  0  0  0  0  0  0  0  0  0  0  0
    2.0013   -0.6724    0.0000 O    0  0  0  0  0  0  0  0  0  0  0  0
    2.0013   -3.3302    0.0000 O    0  0  0  0  0  0  0  0  0  0  0  0
    3.3302   -2.0013    0.0000 O    0  0  0  0  0  0  0  0  0  0  0  0
    0.6724   -2.0013    0.0000 O    0  0  0  0  0  0  0  0  0  0  0  0
    0.0000   -3.1501    0.0000 C    0  0  0  0  0  0  0  0  0  0  0  0
    3.1501    0.0000    0.0000 C    0  0  0  0  0  0  0  0  0  0  0  0
    3.1501   -4.0027    0.0000 C    0  0  0  0  0  0  0  0  0  0  0  0
    4.0027   -3.1501    0.0000 C    0  0  0  0  0  0  0  0  0  0  0  0
  1  2  1  0  0  0  0
  1  3  1  0  0  0  0
  1  4  1  0  0  0  0
  1  5  1  0  0  0  0
  2  7  1  0  0  0  0
  3  8  1  0  0  0  0
  4  9  1  0  0  0  0
  5  6  1  0  0  0  0
M  END
> <ID>
5054

> <Formula>
C4H12O4Si

> <FW>
152.2212

> <DSSTox_CID>
7291

> <DSSTox_RID>
78389

> <DSSTox_GSID>
27291

> <DSSTox_FileID_Sort>
3072

> <TS_ChemName>
Tetramethyl orthosilicate

> <TS_ChemName_Synonyms>


> <TS_CASRN>
681-84-5

> <CASRN_ChemName_Relationship>
primary

> <TS_Description>
single chemical compound

> <ChemNote>


> <STRUCTURE_Shown>
tested chemical

> <STRUCTURE_Formula>
C4H12O4Si

> <STRUCTURE_MW>
152.2212

> <STRUCTURE_ChemType>
organometallic

> <STRUCTURE_DefinedOrganicForm>


> <STRUCTURE_IUPAC>
tetramethyl orthosilicate

> <STRUCTURE_SMILES>
CO[Si](OC)(OC)OC

> <STRUCTURE_SMILES_Desalt>
CO[Si](OC)(OC)OC

> <Substance_modify_yyyymmdd>
20080429

$$$$
