681-57-2
ChemmineR-0915142007XD

 11 10  0  0  0  0  0  0  0  0  1 V2000
    5.7582   -0.4820    0.0000 C   0  0  0  0  0  0  0  0  0  0  0  0
    4.6092   -1.1490    0.0000 C   0  0  0  0  0  0  0  0  0  0  0  0
    5.2761   -2.3046    0.0000 C   0  0  0  0  0  0  0  0  0  0  0  0
    6.6034   -2.3046    0.0000 O   0  0  0  0  0  0  0  0  0  0  0  0
    4.6092   -3.4536    0.0000 O   0  0  0  0  0  0  0  0  0  0  0  0
    3.9422    0.0000    0.0000 C   0  0  0  0  0  0  0  0  0  0  0  0
    3.4536   -1.8159    0.0000 C   0  0  0  0  0  0  0  0  0  0  0  0
    2.3046   -1.1490    0.0000 C   0  0  0  0  0  0  0  0  0  0  0  0
    1.1490   -1.8159    0.0000 C   0  0  0  0  0  0  0  0  0  0  0  0
    0.0000   -1.1490    0.0000 O   0  0  0  0  0  0  0  0  0  0  0  0
    1.1490   -3.1432    0.0000 O   0  0  0  0  0  0  0  0  0  0  0  0
  1  2  1  0  0  0  0
  2  3  1  0  0  0  0
  2  6  1  0  0  0  0
  2  7  1  0  0  0  0
  3  4  1  0  0  0  0
  3  5  2  0  0  0  0
  7  8  1  0  0  0  0
  8  9  1  0  0  0  0
  9 10  1  0  0  0  0
  9 11  2  0  0  0  0
M  END
> <ID>
1522

> <Formula>
C7H12O4

> <FW>
160.1678

> <DSSTox_CID>
1585

> <DSSTox_RID>
76221

> <DSSTox_GSID>
21585

> <DSSTox_FileID_Sort>
905

> <TS_ChemName>
2,2-Dimethylpentanedioic acid

> <TS_ChemName_Synonyms>


> <TS_CASRN>
681-57-2

> <CASRN_ChemName_Relationship>
primary

> <TS_Description>
single chemical compound

> <ChemNote>


> <STRUCTURE_Shown>
tested chemical

> <STRUCTURE_Formula>
C7H12O4

> <STRUCTURE_MW>
160.1678

> <STRUCTURE_ChemType>
defined organic

> <STRUCTURE_DefinedOrganicForm>
parent

> <STRUCTURE_IUPAC>
2,2-dimethylpentanedioic acid

> <STRUCTURE_SMILES>
CC(C)(CCC(O)=O)C(=O)O

> <STRUCTURE_SMILES_Desalt>
CC(C)(CCC(O)=O)C(=O)O

> <Substance_modify_yyyymmdd>
20080429

$$$$
