68157-60-8
ChemmineR-0915142007XD

 17 18  0  0  0  0  0  0  0  0  1 V2000
    4.5978   -3.3171    0.0000 C    0  0  0  0  0  0  0  0  0  0  0  0
    4.5978   -1.9902    0.0000 O    0  0  0  0  0  0  0  0  0  0  0  0
    5.7496   -3.9897    0.0000 N    0  0  0  0  0  0  0  0  0  0  0  0
    3.4461   -3.9897    0.0000 N    0  0  0  0  0  0  0  0  0  0  0  0
    9.2141   -1.9902    0.0000 N    0  0  0  0  0  0  0  0  0  0  0  0
    9.2141   -3.3171    0.0000 C    0  0  0  0  0  0  0  0  0  0  0  0
    8.0623   -1.3268    0.0000 C    0  0  0  0  0  0  0  0  0  0  0  0
    6.9106   -1.9902    0.0000 C    0  0  0  0  0  0  0  0  0  0  0  0
    8.0623   -3.9897    0.0000 C    0  0  0  0  0  0  0  0  0  0  0  0
    6.9106   -3.3171    0.0000 C    0  0  0  0  0  0  0  0  0  0  0  0
    8.0623    0.0000    0.0000 Cl   0  0  0  0  0  0  0  0  0  0  0  0
    2.2943   -3.3171    0.0000 C    0  0  0  0  0  0  0  0  0  0  0  0
    1.1518   -3.9897    0.0000 C    0  0  0  0  0  0  0  0  0  0  0  0
    2.2943   -1.9902    0.0000 C    0  0  0  0  0  0  0  0  0  0  0  0
    0.0000   -3.3171    0.0000 C    0  0  0  0  0  0  0  0  0  0  0  0
    1.1518   -1.3268    0.0000 C    0  0  0  0  0  0  0  0  0  0  0  0
    0.0000   -1.9902    0.0000 C    0  0  0  0  0  0  0  0  0  0  0  0
  1  2  2  0  0  0  0
  1  3  1  0  0  0  0
  1  4  1  0  0  0  0
  3 10  1  0  0  0  0
  4 12  1  0  0  0  0
  5  6  1  0  0  0  0
  5  7  2  0  0  0  0
  6  9  2  0  0  0  0
  7  8  1  0  0  0  0
  7 11  1  0  0  0  0
  8 10  2  0  0  0  0
  9 10  1  0  0  0  0
 12 13  2  0  0  0  0
 12 14  1  0  0  0  0
 13 15  1  0  0  0  0
 14 16  2  0  0  0  0
 15 17  2  0  0  0  0
 16 17  1  0  0  0  0
M  END
> <ID>
6853

> <Formula>
C12H10ClN3O

> <FW>
247.6803

> <DSSTox_CID>
14634

> <DSSTox_RID>
79182

> <DSSTox_GSID>
34634

> <DSSTox_FileID_Sort>
3864

> <TS_ChemName>
Forchlorfenuron

> <TS_ChemName_Synonyms>


> <TS_CASRN>
68157-60-8

> <CASRN_ChemName_Relationship>
primary

> <TS_Description>
single chemical compound

> <ChemNote>


> <STRUCTURE_Shown>
tested chemical

> <STRUCTURE_Formula>
C12H10ClN3O

> <STRUCTURE_MW>
247.6803

> <STRUCTURE_ChemType>
defined organic

> <STRUCTURE_DefinedOrganicForm>
parent

> <STRUCTURE_IUPAC>
1-(2-chloropyridin-4-yl)-3-phenylurea

> <STRUCTURE_SMILES>
Clc2cc(NC(=O)Nc1ccccc1)ccn2

> <STRUCTURE_SMILES_Desalt>
Clc2cc(NC(=O)Nc1ccccc1)ccn2

> <Substance_modify_yyyymmdd>
20080429

$$$$
