68238-36-8
ChemmineR-0915142007XD

 38 39  0  0  0  0  0  0  0  0  2 V2000
    7.8128  -13.8525    0.0000 C    0  0  0  0  0  0  0  0  0  0  0  0
    7.1479  -12.7028    0.0000 C    0  0  0  0  0  0  0  0  0  0  0  0
    7.8128  -11.5392    0.0000 N    0  0  0  0  0  0  0  0  0  0  0  0
    9.1565  -11.5392    0.0000 C    0  0  0  0  0  0  0  0  0  0  0  0
    9.8215  -10.4033    0.0000 C    0  0  0  0  0  0  0  0  0  0  0  0
    7.1479  -10.4033    0.0000 C    0  0  0  0  0  0  0  0  0  0  0  0
    7.8128   -9.2397    0.0000 C    0  0  0  0  0  0  0  0  0  0  0  0
    7.1479   -8.0760    0.0000 C    0  0  0  0  0  0  0  0  0  0  0  0
    5.8181   -8.0760    0.0000 C    0  0  0  0  0  0  0  0  0  0  0  0
    5.1531   -9.2397    0.0000 C    0  0  0  0  0  0  0  0  0  0  0  0
    5.8181  -10.4033    0.0000 C    0  0  0  0  0  0  0  0  0  0  0  0
    5.1531   -6.9263    0.0000 C    0  0  0  0  0  0  0  0  0  0  0  0
    5.8181   -5.7765    0.0000 C    0  0  0  0  0  0  0  0  0  0  0  0
    7.1479   -5.7765    0.0000 C    0  0  0  0  0  0  0  0  0  0  0  0
    7.8128   -4.6268    0.0000 C    0  0  0  0  0  0  0  0  0  0  0  0
    7.1479   -3.4770    0.0000 C    0  0  0  0  0  0  0  0  0  0  0  0
    5.8181   -3.4770    0.0000 C    0  0  0  0  0  0  0  0  0  0  0  0
    5.1531   -4.6268    0.0000 C    0  0  0  0  0  0  0  0  0  0  0  0
    7.8128   -2.3134    0.0000 N    0  3  0  0  0  0  0  0  0  0  0  0
    7.1479   -1.1498    0.0000 C    0  0  0  0  0  0  0  0  0  0  0  0
    7.8128    0.0000    0.0000 C    0  0  0  0  0  0  0  0  0  0  0  0
    9.1565   -2.3134    0.0000 C    0  0  0  0  0  0  0  0  0  0  0  0
    9.8215   -1.1498    0.0000 C    0  0  0  0  0  0  0  0  0  0  0  0
    3.8233   -6.9263    0.0000 C    0  0  0  0  0  0  0  0  0  0  0  0
    3.1445   -5.7765    0.0000 C    0  0  0  0  0  0  0  0  0  0  0  0
    1.8008   -5.7765    0.0000 C    0  0  0  0  0  0  0  0  0  0  0  0
    1.1498   -6.9263    0.0000 C    0  0  0  0  0  0  0  0  0  0  0  0
    1.8008   -8.0760    0.0000 C    0  0  0  0  0  0  0  0  0  0  0  0
    3.1445   -8.0760    0.0000 C    0  0  0  0  0  0  0  0  0  0  0  0
    1.1498   -9.2397    0.0000 S    0  0  0  0  0  0  0  0  0  0  0  0
    0.0000   -8.5747    0.0000 O    0  5  0  0  0  0  0  0  0  0  0  0
    2.3134   -9.9046    0.0000 O    0  0  0  0  0  0  0  0  0  0  0  0
    0.4848  -10.4033    0.0000 O    0  0  0  0  0  0  0  0  0  0  0  0
    3.8233   -4.6268    0.0000 S    0  0  0  0  0  0  0  0  0  0  0  0
    4.7376   -5.4163    0.0000 O    0  5  0  0  0  0  0  0  0  0  0  0
    2.6597   -3.9480    0.0000 O    0  0  0  0  0  0  0  0  0  0  0  0
    4.4744   -3.4770    0.0000 O    0  0  0  0  0  0  0  0  0  0  0  0
    3.1861  -12.4119    0.0000 Na   0  3  0  0  0  0  0  0  0  0  0  0
  1  2  1  0  0  0  0
  2  3  1  0  0  0  0
  3  4  1  0  0  0  0
  3  6  1  0  0  0  0
  4  5  1  0  0  0  0
  6  7  2  0  0  0  0
  6 11  1  0  0  0  0
  7  8  1  0  0  0  0
  8  9  2  0  0  0  0
  9 10  1  0  0  0  0
  9 12  1  0  0  0  0
 10 11  2  0  0  0  0
 12 13  2  0  0  0  0
 12 24  1  0  0  0  0
 13 14  1  0  0  0  0
 13 18  1  0  0  0  0
 14 15  2  0  0  0  0
 15 16  1  0  0  0  0
 16 17  1  0  0  0  0
 16 19  2  0  0  0  0
 17 18  2  0  0  0  0
 19 20  1  0  0  0  0
 19 22  1  0  0  0  0
 20 21  1  0  0  0  0
 22 23  1  0  0  0  0
 24 25  2  0  0  0  0
 24 29  1  0  0  0  0
 25 26  1  0  0  0  0
 25 34  1  0  0  0  0
 26 27  2  0  0  0  0
 27 28  1  0  0  0  0
 28 29  2  0  0  0  0
 28 30  1  0  0  0  0
 30 31  1  0  0  0  0
 30 32  2  0  0  0  0
 30 33  2  0  0  0  0
 34 35  1  0  0  0  0
 34 36  2  0  0  0  0
 34 37  2  0  0  0  0
M  END
> <ID>
16203

> <Formula>
C27H31N2NaO6S2

> <FW>
566.6646 (543.6754+22.9892)

> <DSSTox_CID>
31594

> <DSSTox_RID>
97478

> <DSSTox_GSID>
57805

> <DSSTox_FileID_Sort>
8545

> <TS_ChemName>
Isosulfan blue

> <TS_ChemName_Synonyms>


> <TS_CASRN>
68238-36-8

> <CASRN_ChemName_Relationship>
primary

> <TS_Description>
single chemical compound

> <ChemNote>


> <STRUCTURE_Shown>
tested chemical

> <STRUCTURE_Formula>
C27H31N2NaO6S2

> <STRUCTURE_MW>
566.6646

> <STRUCTURE_ChemType>
defined organic

> <STRUCTURE_DefinedOrganicForm>
salt

> <STRUCTURE_IUPAC>
sodium 2-{[4-(diethylamino)phenyl][4-(diethyliminio)cyclohexa-2,5-dien-1-ylidene]methyl}benzene-1,4-disulfonate

> <STRUCTURE_SMILES>
[Na+].CC/[N+](CC)=C1\C=C/C(C=C1)=C(/c2ccc(cc2)N(CC)CC)c3cc(ccc3S([O-])(=O)=O)S([O-])(=O)=O

> <STRUCTURE_SMILES_Desalt>
CC/[N+](CC)=C1\C=C/C(C=C1)=C(/c2ccc(cc2)N(CC)CC)c3cc(ccc3S(=O)(=O)O)S(=O)(=O)O

> <Substance_modify_yyyymmdd>
20131018

$$$$
