68252-19-7
ChemmineR-0915142007XD

 25 27  0  0  1  0  0  0  0  0  1 V2000
    2.3178   -3.4911    0.0000 N   0  0  0  0  0  0  0  0  0  0  0  0
    6.9437   -3.4526    0.0000 C   0  0  0  0  0  0  0  0  0  0  0  0
    7.6073   -4.6163    0.0000 C   0  0  0  0  0  0  0  0  0  0  0  0
    6.9437   -5.7608    0.0000 N   0  0  0  0  0  0  0  0  0  0  0  0
    1.1541   -4.1643    0.0000 C   0  0  0  0  0  0  0  0  0  0  0  0
    2.3178   -2.1543    0.0000 C   0  0  0  0  0  0  0  0  0  0  0  0
    6.2609   -2.2985    0.0000 C   0  0  0  0  0  0  0  0  0  0  0  0
    8.0882   -2.7794    0.0000 O   0  0  0  0  0  0  0  0  0  0  0  0
    3.4719   -4.1643    0.0000 C   0  0  0  0  0  0  0  0  0  0  0  0
    5.7704   -4.1354    0.0000 C   0  0  0  0  0  0  0  0  0  0  0  0
    4.6355   -3.4719    0.0000 C   0  0  0  0  0  0  0  0  0  0  0  0
    0.0000   -2.1543    0.0000 C   0  0  0  0  0  0  0  0  0  0  0  0
    7.6073   -6.9148    0.0000 C   0  0  0  0  0  0  0  0  0  0  0  0
    1.1541   -1.4907    0.0000 C   0  0  0  0  0  0  0  0  0  0  0  0
    0.0000   -3.4911    0.0000 C   0  0  0  0  0  0  0  0  0  0  0  0
    8.9441   -4.6163    0.0000 C   0  0  0  0  0  0  0  0  0  0  0  0
    4.9241   -2.2985    0.0000 C   0  0  0  0  0  0  0  0  0  0  0  0
    6.9148   -1.1541    0.0000 C   0  0  0  0  0  0  0  0  0  0  0  0
    3.4719   -1.7215    0.0000 C   0  0  0  0  0  0  0  0  0  0  0  0
    1.1541   -5.4819    0.0000 C   0  0  0  0  0  0  0  0  0  0  0  0
    8.9441   -6.9148    0.0000 C   0  0  0  0  0  0  0  0  0  0  0  0
    6.2416    0.0000    0.0000 C   0  0  0  0  0  0  0  0  0  0  0  0
    4.2605   -1.1541    0.0000 C   0  0  0  0  0  0  0  0  0  0  0  0
    9.6173   -5.7608    0.0000 C   0  0  0  0  0  0  0  0  0  0  0  0
    4.9048    0.0000    0.0000 C   0  0  0  0  0  0  0  0  0  0  0  0
  1  5  1  0  0  0  0
  1  6  1  0  0  0  0
  1  9  1  0  0  0  0
  2 10  1  0  0  0  0
  2  3  1  0  0  0  0
  2  7  1  0  0  0  0
  2  8  1  0  0  0  0
  3  4  1  0  0  0  0
  3 16  2  0  0  0  0
  4 13  2  0  0  0  0
  5 15  1  0  0  0  0
  5 20  1  6  0  0  0
  6 14  1  0  0  0  0
  6 19  1  6  0  0  0
  7 17  1  0  0  0  0
  7 18  2  0  0  0  0
  9 11  1  0  0  0  0
 10 11  1  0  0  0  0
 12 14  1  0  0  0  0
 12 15  1  0  0  0  0
 13 21  1  0  0  0  0
 16 24  1  0  0  0  0
 17 23  2  0  0  0  0
 18 22  1  0  0  0  0
 21 24  2  0  0  0  0
 22 25  2  0  0  0  0
 23 25  1  0  0  0  0
M  END
> <ID>
9670

> <Formula>
C22H30N2O

> <FW>
338.4864

> <DSSTox_CID>
23839

> <DSSTox_RID>
97561

> <DSSTox_GSID>
43839

> <DSSTox_FileID_Sort>
8336

> <TS_ChemName>
Pirmenol

> <TS_ChemName_Synonyms>


> <TS_CASRN>
68252-19-7

> <CASRN_ChemName_Relationship>
primary

> <TS_Description>
single chemical compound

> <ChemNote>
stereochem

> <STRUCTURE_Shown>
tested chemical

> <STRUCTURE_Formula>
C22H30N2O

> <STRUCTURE_MW>
338.4864

> <STRUCTURE_ChemType>
defined organic

> <STRUCTURE_DefinedOrganicForm>
parent

> <STRUCTURE_IUPAC>
4-[(2R,6S)-2,6-dimethylpiperidin-1-yl]-1-phenyl-1-(pyridin-2-yl)butan-1-ol

> <STRUCTURE_SMILES>
C[C@H]3CCC[C@@H](C)N3CCCC(O)(c1ccccc1)c2ccccn2

> <STRUCTURE_SMILES_Desalt>
C[C@H]3CCC[C@@H](C)N3CCCC(O)(c1ccccc1)c2ccccn2

> <Substance_modify_yyyymmdd>
20081229

$$$$
