68298-46-4
ChemmineR-0915142007XD

 12 13  0  0  0  0  0  0  0  0  1 V2000
    3.5713   -1.5714    0.0000 O   0  0  0  0  0  0  0  0  0  0  0  0
    2.3076   -1.9889    0.0000 C   0  0  0  0  0  0  0  0  0  0  0  0
    4.3405   -2.6592    0.0000 C   0  0  0  0  0  0  0  0  0  0  0  0
    2.3076   -3.3186    0.0000 C   0  0  0  0  0  0  0  0  0  0  0  0
    3.5713   -3.7306    0.0000 C   0  0  0  0  0  0  0  0  0  0  0  0
    1.1538   -1.3296    0.0000 C   0  0  0  0  0  0  0  0  0  0  0  0
    0.0000   -1.9889    0.0000 C   0  0  0  0  0  0  0  0  0  0  0  0
    0.0000   -3.3186    0.0000 C   0  0  0  0  0  0  0  0  0  0  0  0
    1.1538   -3.9889    0.0000 C   0  0  0  0  0  0  0  0  0  0  0  0
    1.1538    0.0000    0.0000 N   0  0  0  0  0  0  0  0  0  0  0  0
    5.4943   -3.3186    0.0000 C   0  0  0  0  0  0  0  0  0  0  0  0
    5.4943   -1.9889    0.0000 C   0  0  0  0  0  0  0  0  0  0  0  0
  1  2  1  0  0  0  0
  1  3  1  0  0  0  0
  2  4  2  0  0  0  0
  2  6  1  0  0  0  0
  3  5  1  0  0  0  0
  3 11  1  0  0  0  0
  3 12  1  0  0  0  0
  4  5  1  0  0  0  0
  4  9  1  0  0  0  0
  6  7  2  0  0  0  0
  6 10  1  0  0  0  0
  7  8  1  0  0  0  0
  8  9  2  0  0  0  0
M  END
> <ID>
10367

> <Formula>
C10H13NO

> <FW>
163.2163

> <DSSTox_CID>
24715

> <DSSTox_RID>
80416

> <DSSTox_GSID>
44715

> <DSSTox_FileID_Sort>
5098

> <TS_ChemName>
2,2-Dimethyl-2,3-dihydro-1-benzofuran-7-amine

> <TS_ChemName_Synonyms>
2,2-Dimethyl-2,3-dihydro-1-benzofuran-7-amine (7-Benzofuranamine, 2,3-dihydro-2,2-dimethyl-)

> <TS_CASRN>
68298-46-4

> <CASRN_ChemName_Relationship>
primary

> <TS_Description>
single chemical compound

> <ChemNote>


> <STRUCTURE_Shown>
tested chemical

> <STRUCTURE_Formula>
C10H13NO

> <STRUCTURE_MW>
163.2163

> <STRUCTURE_ChemType>
defined organic

> <STRUCTURE_DefinedOrganicForm>
parent

> <STRUCTURE_IUPAC>
2,2-dimethyl-2,3-dihydro-1-benzofuran-7-amine

> <STRUCTURE_SMILES>
Nc1cccc2CC(C)(C)Oc12

> <STRUCTURE_SMILES_Desalt>
Nc1cccc2CC(C)(C)Oc12

> <Substance_modify_yyyymmdd>
20091116

$$$$
