683-18-1
ChemmineR-0915142007XD

 11 10  0  0  0  0  0  0  0  0  1 V2000
    3.9134   -1.1192    0.0000 Sn   0  0  0  0  0  0  0  0  0  0  0  0
    2.6063   -1.1192    0.0000 C    0  0  0  0  0  0  0  0  0  0  0  0
    1.9489   -2.2463    0.0000 C    0  0  0  0  0  0  0  0  0  0  0  0
    0.6418   -2.2463    0.0000 C    0  0  0  0  0  0  0  0  0  0  0  0
    0.0000   -3.3812    0.0000 C    0  0  0  0  0  0  0  0  0  0  0  0
    5.2205   -1.1192    0.0000 C    0  0  0  0  0  0  0  0  0  0  0  0
    5.8623   -2.2463    0.0000 C    0  0  0  0  0  0  0  0  0  0  0  0
    7.1694   -2.2463    0.0000 C    0  0  0  0  0  0  0  0  0  0  0  0
    7.8269   -3.3812    0.0000 C    0  0  0  0  0  0  0  0  0  0  0  0
    4.8370    0.0000    0.0000 Cl   0  0  0  0  0  0  0  0  0  0  0  0
    2.9899   -0.0626    0.0000 Cl   0  0  0  0  0  0  0  0  0  0  0  0
  1  2  1  0  0  0  0
  1  6  1  0  0  0  0
  1 10  1  0  0  0  0
  1 11  1  0  0  0  0
  2  3  1  0  0  0  0
  3  4  1  0  0  0  0
  4  5  1  0  0  0  0
  6  7  1  0  0  0  0
  7  8  1  0  0  0  0
  8  9  1  0  0  0  0
M  END
> <ID>
5055

> <Formula>
C8H18Cl2Sn

> <FW>
303.8445

> <DSSTox_CID>
7292

> <DSSTox_RID>
78390

> <DSSTox_GSID>
27292

> <DSSTox_FileID_Sort>
3073

> <TS_ChemName>
Dibutyltin dichloride

> <TS_ChemName_Synonyms>
Stannane, dibutyldichloro-

> <TS_CASRN>
683-18-1

> <CASRN_ChemName_Relationship>
primary

> <TS_Description>
single chemical compound

> <ChemNote>


> <STRUCTURE_Shown>
tested chemical

> <STRUCTURE_Formula>
C8H18Cl2Sn

> <STRUCTURE_MW>
303.8445

> <STRUCTURE_ChemType>
organometallic

> <STRUCTURE_DefinedOrganicForm>


> <STRUCTURE_IUPAC>
dibutyl(dichloro)stannane

> <STRUCTURE_SMILES>
CCCC[Sn](Cl)(Cl)CCCC

> <STRUCTURE_SMILES_Desalt>
CCCC[Sn](Cl)(Cl)CCCC

> <Substance_modify_yyyymmdd>
20080429

$$$$
