6834-98-6
ChemmineR-0915142007XD

 47 47  0  0  1  0  0  0  0  0  1 V2000
   13.8557   -3.3029    0.0000 C   0  0  0  0  0  0  0  0  0  0  0  0
   13.8557   -1.9942    0.0000 C   0  0  0  0  0  0  0  0  0  0  0  0
   15.0190   -3.9677    0.0000 O   0  0  0  0  0  0  0  0  0  0  0  0
   12.6924   -1.3710    0.0000 C   0  0  0  0  0  0  0  0  0  0  0  0
    1.1841   -4.0923    0.0000 C   0  0  0  0  0  0  0  0  0  0  0  0
    1.1841   -5.4010    0.0000 C   0  0  0  0  0  0  0  0  0  0  0  0
    2.3474   -3.3860    0.0000 C   0  0  0  0  0  0  0  0  0  0  0  0
    2.3474   -6.0450    0.0000 C   0  0  0  0  0  0  0  0  0  0  0  0
   11.5499   -2.0150    0.0000 C   0  0  0  0  0  0  0  0  0  0  0  0
    2.3474   -2.0565    0.0000 C   0  0  0  0  0  0  0  0  0  0  0  0
   15.0190   -5.2971    0.0000 C   0  0  0  0  0  0  0  0  0  0  0  0
   12.6924   -3.9884    0.0000 O   0  0  0  0  0  0  0  0  0  0  0  0
    3.4899   -5.3802    0.0000 C   0  0  0  0  0  0  0  0  0  0  0  0
   10.4073   -1.3918    0.0000 C   0  0  0  0  0  0  0  0  0  0  0  0
    3.4899   -1.4126    0.0000 C   0  0  0  0  0  0  0  0  0  0  0  0
    4.6324   -2.0358    0.0000 C   0  0  0  0  0  0  0  0  0  0  0  0
    9.2233   -2.0358    0.0000 C   0  0  0  0  0  0  0  0  0  0  0  0
    6.9590   -2.0358    0.0000 C   0  0  0  0  0  0  0  0  0  0  0  0
   13.8557   -5.9619    0.0000 C   0  0  0  0  0  0  0  0  0  0  0  0
    8.0807   -1.4126    0.0000 C   0  0  0  0  0  0  0  0  0  0  0  0
    5.7957   -1.4126    0.0000 C   0  0  0  0  0  0  0  0  0  0  0  0
    4.6324   -6.0242    0.0000 C   0  0  0  0  0  0  0  0  0  0  0  0
   10.4073   -5.3179    0.0000 C   0  0  0  0  0  0  0  0  0  0  0  0
    8.0807   -5.3387    0.0000 C   0  0  0  0  0  0  0  0  0  0  0  0
    9.2233   -6.0034    0.0000 C   0  0  0  0  0  0  0  0  0  0  0  0
    5.7957   -5.3595    0.0000 C   0  0  0  0  0  0  0  0  0  0  0  0
    6.9590   -6.0242    0.0000 C   0  0  0  0  0  0  0  0  0  0  0  0
   11.5499   -6.0034    0.0000 C   0  0  0  0  0  0  0  0  0  0  0  0
   15.0190   -1.3295    0.0000 C   0  0  0  0  0  0  0  0  0  0  0  0
   12.6924   -5.2971    0.0000 C   0  0  0  0  0  0  0  0  0  0  0  0
    0.0000   -3.4483    0.0000 O   0  0  0  0  0  0  0  0  0  0  0  0
   12.6924   -0.0415    0.0000 O   0  0  0  0  0  0  0  0  0  0  0  0
    0.0415   -6.1073    0.0000 O   0  0  0  0  0  0  0  0  0  0  0  0
    3.4899   -4.0715    0.0000 O   0  0  0  0  0  0  0  0  0  0  0  0
   13.8557   -7.2914    0.0000 O   0  0  0  0  0  0  0  0  0  0  0  0
   10.4073   -0.0623    0.0000 O   0  0  0  0  0  0  0  0  0  0  0  0
    3.4899   -0.0623    0.0000 O   0  0  0  0  0  0  0  0  0  0  0  0
    5.7957   -0.0623    0.0000 O   0  0  0  0  0  0  0  0  0  0  0  0
    8.0807   -0.0623    0.0000 O   0  0  0  0  0  0  0  0  0  0  0  0
   16.1615   -1.9734    0.0000 C   0  0  0  0  0  0  0  0  0  0  0  0
    2.3474   -7.3745    0.0000 C   0  0  0  0  0  0  0  0  0  0  0  0
   16.1615   -6.0034    0.0000 C   0  0  0  0  0  0  0  0  0  0  0  0
   14.9982    0.0000    0.0000 O   0  0  0  0  0  0  0  0  0  0  0  0
   17.2832   -1.2672    0.0000 C   0  0  0  0  0  0  0  0  0  0  0  0
   18.4673   -1.9111    0.0000 C   0  0  0  0  0  0  0  0  0  0  0  0
   19.6098   -1.2048    0.0000 C   0  0  0  0  0  0  0  0  0  0  0  0
   20.7731   -1.8488    0.0000 C   0  0  0  0  0  0  0  0  0  0  0  0
  1  2  1  0  0  0  0
  1  3  1  0  0  0  0
  1 12  2  0  0  0  0
  2  4  1  0  0  0  0
  2 29  1  0  0  0  0
  3 11  1  0  0  0  0
  4  9  1  0  0  0  0
  4 32  1  6  0  0  0
  5  7  1  0  0  0  0
  5 31  1  0  0  0  0
  5  6  1  0  0  0  0
  6  8  1  0  0  0  0
  6 33  1  0  0  0  0
  7 10  1  0  0  0  0
  7 34  1  0  0  0  0
  8 13  2  0  0  0  0
  8 41  1  0  0  0  0
  9 14  1  0  0  0  0
 10 15  1  0  0  0  0
 11 19  1  0  0  0  0
 11 42  1  0  0  0  0
 13 22  1  0  0  0  0
 14 17  1  0  0  0  0
 14 36  1  6  0  0  0
 15 16  1  0  0  0  0
 15 37  1  6  0  0  0
 16 21  1  0  0  0  0
 17 20  1  0  0  0  0
 18 20  1  0  0  0  0
 18 21  1  0  0  0  0
 19 30  1  0  0  0  0
 19 35  1  6  0  0  0
 20 39  1  6  0  0  0
 21 38  1  6  0  0  0
 22 26  2  0  0  0  0
 23 28  1  0  0  0  0
 23 25  2  0  0  0  0
 24 25  1  0  0  0  0
 24 27  2  0  0  0  0
 26 27  1  0  0  0  0
 28 30  2  0  0  0  0
 29 40  1  0  0  0  0
 29 43  1  6  0  0  0
 40 44  1  0  0  0  0
 44 45  1  0  0  0  0
 45 46  1  0  0  0  0
 46 47  1  0  0  0  0
M  END
> <ID>
12036

> <Formula>
C35H58O12

> <FW>
670.8278

> <DSSTox_CID>
26866

> <DSSTox_RID>
81973

> <DSSTox_GSID>
46866

> <DSSTox_FileID_Sort>
6654

> <TS_ChemName>
Pentamycin

> <TS_ChemName_Synonyms>


> <TS_CASRN>
6834-98-6

> <CASRN_ChemName_Relationship>
primary

> <TS_Description>
single chemical compound

> <ChemNote>
stereochem

> <STRUCTURE_Shown>
tested chemical

> <STRUCTURE_Formula>
C35H58O12

> <STRUCTURE_MW>
670.8278

> <STRUCTURE_ChemType>
defined organic

> <STRUCTURE_DefinedOrganicForm>
parent

> <STRUCTURE_IUPAC>
(4S,6S,8S,10R,12R,17E,19E,21E,23E,25E,27R)-4,6,8,10,12,14,15,16,27-nonahydroxy-3-[(1R)-1-hydroxyhexyl]-17,28-dimethyloxacyclooctacosa-17,19,21,23,25-pentaen-2-one

> <STRUCTURE_SMILES>
CCCCC[C@@H](O)C1C(=O)OC(C)[C@H](O)C=CC=CC=CC=CC=C(C)C(O)C(O)C(O)C[C@H](O)C[C@H](O)C[C@H](O)C[C@H](O)C[C@@H]1O

> <STRUCTURE_SMILES_Desalt>
CCCCC[C@@H](O)C1C(=O)OC(C)[C@H](O)C=CC=CC=CC=CC=C(C)C(O)C(O)C(O)C[C@H](O)C[C@H](O)C[C@H](O)C[C@H](O)C[C@@H]1O

> <Substance_modify_yyyymmdd>
20110728

$$$$
