68367-52-2
ChemmineR-0915142007XD

 17 19  0  0  1  0  0  0  0  0  1 V2000
    4.4880   -3.2665    0.0000 C   0  0  0  0  0  0  0  0  0  0  0  0
    5.2278   -1.1517    0.0000 N   0  0  0  0  0  0  0  0  0  0  0  0
    5.6397   -2.4778    0.0000 C   0  0  0  0  0  0  0  0  0  0  0  0
    3.8389   -1.1517    0.0000 C   0  0  0  0  0  0  0  0  0  0  0  0
    3.3922   -3.8668    0.0000 C   0  0  0  0  0  0  0  0  0  0  0  0
    3.3922   -2.4010    0.0000 N   0  0  0  0  0  0  0  0  0  0  0  0
    3.3922   -5.1790    0.0000 C   0  0  0  0  0  0  0  0  0  0  0  0
    2.2614   -3.2386    0.0000 C   0  0  0  0  0  0  0  0  0  0  0  0
    6.9798   -2.9175    0.0000 O   0  0  0  0  0  0  0  0  0  0  0  0
    3.0153    0.0000    0.0000 O   0  0  0  0  0  0  0  0  0  0  0  0
    4.5020   -5.8421    0.0000 O   0  0  0  0  0  0  0  0  0  0  0  0
    5.6187   -3.8668    0.0000 C   0  0  0  0  0  0  0  0  0  0  0  0
    2.2614   -5.8421    0.0000 C   0  0  0  0  0  0  0  0  0  0  0  0
    1.1656   -3.8668    0.0000 C   0  0  0  0  0  0  0  0  0  0  0  0
    5.6187   -5.1790    0.0000 C   0  0  0  0  0  0  0  0  0  0  0  0
    1.1656   -5.1790    0.0000 C   0  0  0  0  0  0  0  0  0  0  0  0
    0.0000   -3.2037    0.0000 F   0  0  0  0  0  0  0  0  0  0  0  0
  1  3  1  6  0  0  0
  1  5  1  0  0  0  0
  1  6  1  1  0  0  0
  1 12  1  0  0  0  0
  2  3  1  0  0  0  0
  2  4  1  0  0  0  0
  3  9  2  0  0  0  0
  4  6  1  0  0  0  0
  4 10  2  0  0  0  0
  5  7  2  0  0  0  0
  5  8  1  0  0  0  0
  7 13  1  0  0  0  0
  7 11  1  0  0  0  0
  8 14  2  0  0  0  0
 11 15  1  0  0  0  0
 12 15  1  0  0  0  0
 13 16  2  0  0  0  0
 14 16  1  0  0  0  0
 14 17  1  0  0  0  0
M  END
> <ID>
3207

> <Formula>
C11H9FN2O3

> <FW>
236.1992

> <DSSTox_CID>
3587

> <DSSTox_RID>
77094

> <DSSTox_GSID>
23587

> <DSSTox_FileID_Sort>
1777

> <TS_ChemName>
Sorbinil

> <TS_ChemName_Synonyms>


> <TS_CASRN>
68367-52-2

> <CASRN_ChemName_Relationship>
primary

> <TS_Description>
single chemical compound

> <ChemNote>
stereochem

> <STRUCTURE_Shown>
tested chemical

> <STRUCTURE_Formula>
C11H9FN2O3

> <STRUCTURE_MW>
236.1992

> <STRUCTURE_ChemType>
defined organic

> <STRUCTURE_DefinedOrganicForm>
parent

> <STRUCTURE_IUPAC>
(4S)-6-fluoro-2,3-dihydro-2'H,5'H-spiro[chromene-4,4'-imidazolidine]-2',5'-dione

> <STRUCTURE_SMILES>
Fc2ccc3OCC[C@]1(NC(=O)NC1=O)c3c2

> <STRUCTURE_SMILES_Desalt>
Fc2ccc3OCC[C@]1(NC(=O)NC1=O)c3c2

> <Substance_modify_yyyymmdd>
20080429

$$$$
