68377-91-3
ChemmineR-0915142007XD

 24 24  0  0  0  0  0  0  0  0  1 V2000
    5.7714   -2.4234    0.0000 C    0  0  0  0  0  0  0  0  0  0  0  0
    6.6483   -1.4508    0.0000 N    0  0  0  0  0  0  0  0  0  0  0  0
    3.5394   -3.2524    0.0000 S    0  0  0  0  0  0  0  0  0  0  0  0
    4.4322   -2.2799    0.0000 C    0  0  0  0  0  0  0  0  0  0  0  0
    2.3118   -2.7263    0.0000 C    0  0  0  0  0  0  0  0  0  0  0  0
    7.8600   -1.9929    0.0000 C    0  0  0  0  0  0  0  0  0  0  0  0
    7.7165   -3.3002    0.0000 S    0  0  0  0  0  0  0  0  0  0  0  0
    6.4251   -3.5713    0.0000 C    0  0  0  0  0  0  0  0  0  0  0  0
    1.1639   -3.3800    0.0000 C    0  0  0  0  0  0  0  0  0  0  0  0
    3.7626   -1.1320    0.0000 C    0  0  0  0  0  0  0  0  0  0  0  0
    2.4553   -1.4189    0.0000 C    0  0  0  0  0  0  0  0  0  0  0  0
    9.0079   -1.3233    0.0000 S    0  0  0  0  0  0  0  0  0  0  0  0
   13.6314   -1.3392    0.0000 N    0  0  0  0  0  0  0  0  0  0  0  0
    1.1639   -4.7192    0.0000 O    0  0  0  0  0  0  0  0  0  0  0  0
   14.7793   -2.0088    0.0000 C    0  0  0  0  0  0  0  0  0  0  0  0
    0.0000   -2.7103    0.0000 N    0  0  0  0  0  0  0  0  0  0  0  0
   11.3197   -1.3392    0.0000 C    0  0  0  0  0  0  0  0  0  0  0  0
   10.1558   -1.9929    0.0000 C    0  0  0  0  0  0  0  0  0  0  0  0
   12.4676   -1.9929    0.0000 C    0  0  0  0  0  0  0  0  0  0  0  0
   11.3197    0.0000    0.0000 O    0  0  0  0  0  0  0  0  0  0  0  0
   14.1097   -3.1568    0.0000 C    0  0  0  0  0  0  0  0  0  0  0  0
   15.4649   -0.8450    0.0000 C    0  0  0  0  0  0  0  0  0  0  0  0
   15.9432   -2.6785    0.0000 C    0  0  0  0  0  0  0  0  0  0  0  0
   10.6341   -3.1249    0.0000 Cl   0  0  0  0  0  0  0  0  0  0  0  0
  1  2  1  0  0  0  0
  1  4  1  0  0  0  0
  1  8  2  0  0  0  0
  2  6  2  0  0  0  0
  3  4  1  0  0  0  0
  3  5  1  0  0  0  0
  4 10  2  0  0  0  0
  5  9  1  0  0  0  0
  5 11  2  0  0  0  0
  6 12  1  0  0  0  0
  6  7  1  0  0  0  0
  7  8  1  0  0  0  0
  9 14  2  0  0  0  0
  9 16  1  0  0  0  0
 10 11  1  0  0  0  0
 12 18  1  0  0  0  0
 13 19  1  0  0  0  0
 13 15  1  0  0  0  0
 15 21  1  0  0  0  0
 15 22  1  0  0  0  0
 15 23  1  0  0  0  0
 17 18  1  0  0  0  0
 17 19  1  0  0  0  0
 17 20  1  0  0  0  0
M  END
> <ID>
12021

> <Formula>
C15H22ClN3O2S3

> <FW>
408.0021 (371.5411+36.4609)

> <DSSTox_CID>
26849

> <DSSTox_RID>
81958

> <DSSTox_GSID>
46849

> <DSSTox_FileID_Sort>
6639

> <TS_ChemName>
Arotinolol hydrochloride

> <TS_ChemName_Synonyms>


> <TS_CASRN>
68377-91-3

> <CASRN_ChemName_Relationship>
primary

> <TS_Description>
single chemical compound

> <ChemNote>
parent [68377-92-4]

> <STRUCTURE_Shown>
tested chemical

> <STRUCTURE_Formula>
C15H22ClN3O2S3

> <STRUCTURE_MW>
408.0021

> <STRUCTURE_ChemType>
defined organic

> <STRUCTURE_DefinedOrganicForm>
complex

> <STRUCTURE_IUPAC>
5-(2-{[3-(tert-butylamino)-2-hydroxypropyl]sulfanyl}-1,3-thiazol-4-yl)thiophene-2-carboxamide hydrochloride (1:1)

> <STRUCTURE_SMILES>
Cl.OC(CSc1nc(cs1)c2ccc(s2)C(N)=O)CNC(C)(C)C

> <STRUCTURE_SMILES_Desalt>
OC(CSc1nc(cs1)c2ccc(s2)C(N)=O)CNC(C)(C)C

> <Substance_modify_yyyymmdd>
20110729

$$$$
