6837-24-7
ChemmineR-0915142007XD

 12 13  0  0  0  0  0  0  0  0  1 V2000
    3.9843   -2.3363    0.0000 N   0  0  0  0  0  0  0  0  0  0  0  0
    4.7691   -1.2617    0.0000 C   0  0  0  0  0  0  0  0  0  0  0  0
    4.7691   -3.4108    0.0000 C   0  0  0  0  0  0  0  0  0  0  0  0
    6.0369   -1.6783    0.0000 C   0  0  0  0  0  0  0  0  0  0  0  0
    6.0369   -3.0064    0.0000 C   0  0  0  0  0  0  0  0  0  0  0  0
    4.3526    0.0000    0.0000 O   0  0  0  0  0  0  0  0  0  0  0  0
    2.6562   -2.3363    0.0000 C   0  0  0  0  0  0  0  0  0  0  0  0
    1.9861   -3.4893    0.0000 C   0  0  0  0  0  0  0  0  0  0  0  0
    0.6580   -3.4893    0.0000 C   0  0  0  0  0  0  0  0  0  0  0  0
    0.0000   -2.3363    0.0000 C   0  0  0  0  0  0  0  0  0  0  0  0
    0.6580   -1.1832    0.0000 C   0  0  0  0  0  0  0  0  0  0  0  0
    1.9861   -1.1832    0.0000 C   0  0  0  0  0  0  0  0  0  0  0  0
  1  2  1  0  0  0  0
  1  3  1  0  0  0  0
  1  7  1  0  0  0  0
  2  4  1  0  0  0  0
  2  6  2  0  0  0  0
  3  5  1  0  0  0  0
  4  5  1  0  0  0  0
  7  8  1  0  0  0  0
  7 12  1  0  0  0  0
  8  9  1  0  0  0  0
  9 10  1  0  0  0  0
 10 11  1  0  0  0  0
 11 12  1  0  0  0  0
M  END
> <ID>
10368

> <Formula>
C10H17NO

> <FW>
167.2481

> <DSSTox_CID>
24716

> <DSSTox_RID>
80417

> <DSSTox_GSID>
44716

> <DSSTox_FileID_Sort>
5099

> <TS_ChemName>
1-Cyclohexylpyrrolidin-2-one

> <TS_ChemName_Synonyms>
2-Pyrrolidinone, 1-cyclohexyl-

> <TS_CASRN>
6837-24-7

> <CASRN_ChemName_Relationship>
primary

> <TS_Description>
single chemical compound

> <ChemNote>


> <STRUCTURE_Shown>
tested chemical

> <STRUCTURE_Formula>
C10H17NO

> <STRUCTURE_MW>
167.2481

> <STRUCTURE_ChemType>
defined organic

> <STRUCTURE_DefinedOrganicForm>
parent

> <STRUCTURE_IUPAC>
1-cyclohexylpyrrolidin-2-one

> <STRUCTURE_SMILES>
O=C2CCCN2C1CCCCC1

> <STRUCTURE_SMILES_Desalt>
O=C2CCCN2C1CCCCC1

> <Substance_modify_yyyymmdd>
20091116

$$$$
