68392-35-8
ChemmineR-0915142007XD

 29 31  0  0  0  0  0  0  0  0  1 V2000
    3.9777   -6.9208    0.0000 C   0  0  0  0  0  0  0  0  0  0  0  0
    2.6441   -6.9208    0.0000 C   0  0  0  0  0  0  0  0  0  0  0  0
    4.6560   -5.7481    0.0000 C   0  0  0  0  0  0  0  0  0  0  0  0
    4.6560   -8.0589    0.0000 C   0  0  0  0  0  0  0  0  0  0  0  0
    2.0119   -5.7481    0.0000 C   0  0  0  0  0  0  0  0  0  0  0  0
    3.9777   -4.6100    0.0000 C   0  0  0  0  0  0  0  0  0  0  0  0
    5.9896   -5.7481    0.0000 C   0  0  0  0  0  0  0  0  0  0  0  0
    9.9558   -1.1381    0.0000 N   0  0  0  0  0  0  0  0  0  0  0  0
    5.9896   -3.4374    0.0000 C   0  0  0  0  0  0  0  0  0  0  0  0
    4.6560   -3.4374    0.0000 C   0  0  0  0  0  0  0  0  0  0  0  0
    6.6449   -4.6100    0.0000 C   0  0  0  0  0  0  0  0  0  0  0  0
    2.0119   -8.0589    0.0000 C   0  0  0  0  0  0  0  0  0  0  0  0
    6.6449   -2.3108    0.0000 O   0  0  0  0  0  0  0  0  0  0  0  0
    7.9784   -2.3108    0.0000 C   0  0  0  0  0  0  0  0  0  0  0  0
    8.6222   -1.1381    0.0000 C   0  0  0  0  0  0  0  0  0  0  0  0
    0.6783   -5.7481    0.0000 C   0  0  0  0  0  0  0  0  0  0  0  0
    2.6441   -4.6100    0.0000 C   0  0  0  0  0  0  0  0  0  0  0  0
    5.9896   -8.0589    0.0000 C   0  0  0  0  0  0  0  0  0  0  0  0
    3.9777   -9.2200    0.0000 C   0  0  0  0  0  0  0  0  0  0  0  0
   10.6341   -2.3108    0.0000 C   0  0  0  0  0  0  0  0  0  0  0  0
   10.6341    0.0000    0.0000 C   0  0  0  0  0  0  0  0  0  0  0  0
    0.6783   -8.0589    0.0000 C   0  0  0  0  0  0  0  0  0  0  0  0
    4.6560  -10.3352    0.0000 C   0  0  0  0  0  0  0  0  0  0  0  0
    0.0000   -4.6100    0.0000 C   0  0  0  0  0  0  0  0  0  0  0  0
    2.0119   -3.4374    0.0000 C   0  0  0  0  0  0  0  0  0  0  0  0
    6.6449   -9.2200    0.0000 C   0  0  0  0  0  0  0  0  0  0  0  0
    0.6783   -3.4374    0.0000 C   0  0  0  0  0  0  0  0  0  0  0  0
    5.9896  -10.3352    0.0000 C   0  0  0  0  0  0  0  0  0  0  0  0
    6.6449  -11.4963    0.0000 O   0  0  0  0  0  0  0  0  0  0  0  0
  1  2  2  3  0  0  0
  1  3  1  0  0  0  0
  1  4  1  0  0  0  0
  2  5  1  0  0  0  0
  2 12  1  0  0  0  0
  3  6  1  0  0  0  0
  3  7  2  0  0  0  0
  4 18  2  0  0  0  0
  4 19  1  0  0  0  0
  5 16  1  0  0  0  0
  5 17  2  0  0  0  0
  6 10  2  0  0  0  0
  7 11  1  0  0  0  0
  8 15  1  0  0  0  0
  8 20  1  0  0  0  0
  8 21  1  0  0  0  0
  9 11  2  0  0  0  0
  9 13  1  0  0  0  0
  9 10  1  0  0  0  0
 12 22  1  0  0  0  0
 13 14  1  0  0  0  0
 14 15  1  0  0  0  0
 16 24  2  0  0  0  0
 17 25  1  0  0  0  0
 18 26  1  0  0  0  0
 19 23  2  0  0  0  0
 23 28  1  0  0  0  0
 24 27  1  0  0  0  0
 25 27  2  0  0  0  0
 26 28  2  0  0  0  0
 28 29  1  0  0  0  0
M  END
> <ID>
13248

> <Formula>
C26H29NO2

> <FW>
387.514

> <DSSTox_CID>
28161

> <DSSTox_RID>
79302

> <DSSTox_GSID>
37094

> <DSSTox_FileID_Sort>
3984

> <TS_ChemName>
4-Hydroxytamoxifen

> <TS_ChemName_Synonyms>
4-Hydroxytamoxifen (4HT) (Afimoxifene)

> <TS_CASRN>
68392-35-8

> <CASRN_ChemName_Relationship>
primary

> <TS_Description>
mixture of Z,E isomers

> <ChemNote>
mixture of Z [68047-06-3], E isomers

> <STRUCTURE_Shown>
representative isomer in mixture

> <STRUCTURE_Formula>
C26H29NO2

> <STRUCTURE_MW>
387.514

> <STRUCTURE_ChemType>
defined organic

> <STRUCTURE_DefinedOrganicForm>
parent

> <STRUCTURE_IUPAC>
4-(1-{4-[2-(dimethylamino)ethoxy]phenyl}-2-phenylbut-1-en-1-yl)phenol

> <STRUCTURE_SMILES>
Oc1ccc(cc1)C(c2ccc(OCCN(C)C)cc2)=C(CC)c3ccccc3

> <STRUCTURE_SMILES_Desalt>
Oc1ccc(cc1)C(c2ccc(OCCN(C)C)cc2)=C(CC)c3ccccc3

> <Substance_modify_yyyymmdd>
20110628

$$$$
