68391-01-5
ChemmineR-0915142007XD

 25 24  0  0  0  0  0  0  0  0  2 V2000
   17.0216    0.0000    0.0000 Cl   0  5  0  0  0  0  0  0  0  0  0  0
    0.0000   -1.7787    0.0000 C    0  0  0  0  0  0  0  0  0  0  0  0
    1.1582   -2.4612    0.0000 C    0  0  0  0  0  0  0  0  0  0  0  0
    2.2957   -1.7787    0.0000 C    0  0  0  0  0  0  0  0  0  0  0  0
    3.4540   -2.4612    0.0000 C    0  0  0  0  0  0  0  0  0  0  0  0
    4.6122   -1.7787    0.0000 C    0  0  0  0  0  0  0  0  0  0  0  0
    5.7497   -2.4612    0.0000 C    0  0  0  0  0  0  0  0  0  0  0  0
    6.9079   -1.7787    0.0000 C    0  0  0  0  0  0  0  0  0  0  0  0
    8.0455   -2.4612    0.0000 C    0  0  0  0  0  0  0  0  0  0  0  0
    9.2037   -1.7787    0.0000 C    0  0  0  0  0  0  0  0  0  0  0  0
   10.3412   -2.4612    0.0000 C    0  0  0  0  0  0  0  0  0  0  0  0
   11.4787   -1.7994    0.0000 C    0  0  0  0  0  0  0  0  0  0  0  0
   12.6370   -2.4612    0.0000 C    0  0  0  0  0  0  0  0  0  0  0  0
   13.7745   -1.7994    0.0000 C    0  0  0  0  0  0  0  0  0  0  0  0
   14.9327   -2.4612    0.0000 C    0  0  0  0  0  0  0  0  0  0  0  0
   16.0909   -1.7994    0.0000 N    0  3  0  0  0  0  0  0  0  0  0  0
   17.2284   -1.1375    0.0000 C    0  0  0  0  0  0  0  0  0  0  0  0
   15.4084   -0.6412    0.0000 C    0  0  0  0  0  0  0  0  0  0  0  0
   16.7528   -2.9369    0.0000 C    0  0  0  0  0  0  0  0  0  0  0  0
   18.3867   -1.7994    0.0000 C    0  0  0  0  0  0  0  0  0  0  0  0
   19.5242   -1.1375    0.0000 C    0  0  0  0  0  0  0  0  0  0  0  0
   18.3867   -3.1230    0.0000 C    0  0  0  0  0  0  0  0  0  0  0  0
   20.6824   -1.7994    0.0000 C    0  0  0  0  0  0  0  0  0  0  0  0
   19.5242   -3.7849    0.0000 C    0  0  0  0  0  0  0  0  0  0  0  0
   20.6824   -3.1230    0.0000 C    0  0  0  0  0  0  0  0  0  0  0  0
  2  3  1  0  0  0  0
  3  4  1  0  0  0  0
  4  5  1  0  0  0  0
  5  6  1  0  0  0  0
  6  7  1  0  0  0  0
  7  8  1  0  0  0  0
  8  9  1  0  0  0  0
  9 10  1  0  0  0  0
 10 11  1  0  0  0  0
 11 12  1  0  0  0  0
 12 13  1  0  0  0  0
 13 14  1  0  0  0  0
 14 15  1  0  0  0  0
 15 16  1  0  0  0  0
 16 17  1  0  0  0  0
 16 18  1  0  0  0  0
 16 19  1  0  0  0  0
 17 20  1  0  0  0  0
 20 21  1  0  0  0  0
 20 22  2  0  0  0  0
 21 23  2  0  0  0  0
 22 24  1  0  0  0  0
 23 25  1  0  0  0  0
 24 25  2  0  0  0  0
M  END
> <ID>
5675

> <Formula>
C23H42ClN

> <FW>
368.0393 (35.4535+332.5857)

> <DSSTox_CID>
8460

> <DSSTox_RID>
78652

> <DSSTox_GSID>
28460

> <DSSTox_FileID_Sort>
3334

> <TS_ChemName>
Quaternary ammonium compounds, benzyl-C12-18-alkyldimethyl, chlorides

> <TS_ChemName_Synonyms>


> <TS_CASRN>
68391-01-5

> <CASRN_ChemName_Relationship>
primary

> <TS_Description>
mixture or formulation

> <ChemNote>
ammonium; mixture of alkyl derivatives; structure shown C14

> <STRUCTURE_Shown>
representative component

> <STRUCTURE_Formula>
C23H42ClN

> <STRUCTURE_MW>
368.0393

> <STRUCTURE_ChemType>
defined organic

> <STRUCTURE_DefinedOrganicForm>
salt

> <STRUCTURE_IUPAC>
N-benzyl-N,N-dimethyltetradecan-1-aminium chloride

> <STRUCTURE_SMILES>
[Cl-].C[N+](C)(Cc1ccccc1)CCCCCCCCCCCCCC

> <STRUCTURE_SMILES_Desalt>
C[N+](C)(Cc1ccccc1)CCCCCCCCCCCCCC

> <Substance_modify_yyyymmdd>
20080429

$$$$
