68401-82-1
ChemmineR-0915142007XD

 28 29  0  0  1  0  0  0  0  0  2 V2000
    7.4108   -5.9909    0.0000 N    0  0  0  0  0  0  0  0  0  0  0  0
    5.9034   -5.9909    0.0000 C    0  0  0  0  0  0  0  0  0  0  0  0
    5.9034   -4.5807    0.0000 C    0  0  0  0  0  0  0  0  0  0  0  0
    7.4108   -4.5807    0.0000 C    0  0  0  0  0  0  0  0  0  0  0  0
    1.7506   -4.5807    0.0000 C    0  0  0  0  0  0  0  0  0  0  0  0
    8.5195   -6.6328    0.0000 C    0  0  0  0  0  0  0  0  0  0  0  0
    2.4217   -3.4331    0.0000 C    0  0  0  0  0  0  0  0  0  0  0  0
    2.1493   -5.8450    0.0000 N    0  0  0  0  0  0  0  0  0  0  0  0
    4.3765   -4.5807    0.0000 N    0  0  0  0  0  0  0  0  0  0  0  0
    3.7249   -3.4331    0.0000 C    0  0  0  0  0  0  0  0  0  0  0  0
    1.0893   -6.6133    0.0000 C    0  0  0  0  0  0  0  0  0  0  0  0
    0.4182   -4.5807    0.0000 C    0  0  0  0  0  0  0  0  0  0  0  0
    0.0000   -5.8450    0.0000 S    0  0  0  0  0  0  0  0  0  0  0  0
    8.5195   -7.9749    0.0000 C    0  0  0  0  0  0  0  0  0  0  0  0
    8.5195   -3.9194    0.0000 S    0  0  0  0  0  0  0  0  0  0  0  0
    9.7255   -5.9909    0.0000 C    0  0  0  0  0  0  0  0  0  0  0  0
    1.7506   -2.2855    0.0000 N    0  0  0  0  0  0  0  0  0  0  0  0
    5.1059   -6.9343    0.0000 O    0  0  0  0  0  0  0  0  0  0  0  0
    4.3765   -2.2855    0.0000 O    0  0  0  0  0  0  0  0  0  0  0  0
    9.6963   -8.6363    0.0000 O    0  0  0  0  0  0  0  0  0  0  0  0
    1.0893   -7.9263    0.0000 N    0  0  0  0  0  0  0  0  0  0  0  0
    9.7255   -4.5807    0.0000 C    0  0  0  0  0  0  0  0  0  0  0  0
    7.4595   -8.6363    0.0000 O    0  5  0  0  0  0  0  0  0  0  0  0
    2.4217   -1.1379    0.0000 O    0  0  0  0  0  0  0  0  0  0  0  0
    1.7506    0.0000    0.0000 C    0  0  0  0  0  0  0  0  0  0  0  0
    5.9034   -3.5012    0.0000 H    0  0  0  0  0  0  0  0  0  0  0  0
    7.4108   -3.5498    0.0000 H    0  0  0  0  0  0  0  0  0  0  0  0
    4.2695   -8.4417    0.0000 Na   0  3  0  0  0  0  0  0  0  0  0  0
  1  2  1  0  0  0  0
  1  4  1  0  0  0  0
  1  6  1  0  0  0  0
  2 18  2  0  0  0  0
  2  3  1  0  0  0  0
  3  4  1  0  0  0  0
  3  9  1  1  0  0  0
  3 26  1  6  0  0  0
  4 15  1  0  0  0  0
  4 27  1  6  0  0  0
  5  7  1  0  0  0  0
  5  8  1  0  0  0  0
  5 12  2  0  0  0  0
  6 14  1  0  0  0  0
  6 16  2  0  0  0  0
  7 10  1  0  0  0  0
  7 17  2  0  0  0  0
  8 11  2  0  0  0  0
  9 10  1  0  0  0  0
 10 19  2  0  0  0  0
 11 21  1  0  0  0  0
 11 13  1  0  0  0  0
 12 13  1  0  0  0  0
 14 20  2  0  0  0  0
 14 23  1  0  0  0  0
 15 22  1  0  0  0  0
 16 22  1  0  0  0  0
 17 24  1  0  0  0  0
 24 25  1  0  0  0  0
M  END
> <ID>
11854

> <Formula>
C13H12N5NaO5S2

> <FW>
405.3846 (382.3954+22.9892)

> <DSSTox_CID>
26643

> <DSSTox_RID>
81789

> <DSSTox_GSID>
46643

> <DSSTox_FileID_Sort>
6470

> <TS_ChemName>
Ceftizoxime sodium

> <TS_ChemName_Synonyms>


> <TS_CASRN>
68401-82-1

> <CASRN_ChemName_Relationship>
primary

> <TS_Description>
single chemical compound

> <ChemNote>
stereochem; parent [68401-81-0]

> <STRUCTURE_Shown>
tested chemical

> <STRUCTURE_Formula>
C13H12N5NaO5S2

> <STRUCTURE_MW>
405.3846

> <STRUCTURE_ChemType>
defined organic

> <STRUCTURE_DefinedOrganicForm>
salt

> <STRUCTURE_IUPAC>
sodium (6R,7R)-7-{[(2Z)-2-(2-amino-1,3-thiazol-4-yl)-2-(methoxyimino)acetyl]amino}-8-oxo-5-thia-1-azabicyclo[4.2.0]oct-2-ene-2-carboxylate

> <STRUCTURE_SMILES>
[Na+].Nc1scc(n1)\C(=N\OC)C(=O)N[C@@H]3C(=O)N2C(=CCS[C@@H]23)C([O-])=O

> <STRUCTURE_SMILES_Desalt>
Nc1scc(n1)\C(=N\OC)C(=O)N[C@@H]3C(=O)N2C(=CCS[C@@H]23)C(=O)O

> <Substance_modify_yyyymmdd>
20110808

$$$$
