68412-54-4_1
ChemmineR-0915142007XD

 22 22  0  0  0  0  0  0  0  0  1 V2000
   10.3715   -1.9960    0.0000 C   0  0  0  0  0  0  0  0  0  0  0  0
   10.3715   -3.3267    0.0000 C   0  0  0  0  0  0  0  0  0  0  0  0
    9.1973   -1.3307    0.0000 C   0  0  0  0  0  0  0  0  0  0  0  0
    9.1973   -3.9920    0.0000 C   0  0  0  0  0  0  0  0  0  0  0  0
    8.0624   -1.9960    0.0000 C   0  0  0  0  0  0  0  0  0  0  0  0
    8.0624   -3.3267    0.0000 C   0  0  0  0  0  0  0  0  0  0  0  0
    6.9078   -3.9920    0.0000 O   0  0  0  0  0  0  0  0  0  0  0  0
    5.7337   -3.3267    0.0000 C   0  0  0  0  0  0  0  0  0  0  0  0
    4.5987   -3.9920    0.0000 C   0  0  0  0  0  0  0  0  0  0  0  0
    3.4441   -3.3267    0.0000 O   0  0  0  0  0  0  0  0  0  0  0  0
    2.3091   -3.9920    0.0000 C   0  0  0  0  0  0  0  0  0  0  0  0
    1.1546   -3.3267    0.0000 C   0  0  0  0  0  0  0  0  0  0  0  0
    0.0000   -3.9920    0.0000 O   0  0  0  0  0  0  0  0  0  0  0  0
   11.5260   -1.3307    0.0000 C   0  0  0  0  0  0  0  0  0  0  0  0
   12.6610   -1.9960    0.0000 C   0  0  0  0  0  0  0  0  0  0  0  0
   13.8156   -1.3307    0.0000 C   0  0  0  0  0  0  0  0  0  0  0  0
   14.9701   -1.9960    0.0000 C   0  0  0  0  0  0  0  0  0  0  0  0
   16.1051   -1.3307    0.0000 C   0  0  0  0  0  0  0  0  0  0  0  0
   17.2597   -1.9960    0.0000 C   0  0  0  0  0  0  0  0  0  0  0  0
   18.4338   -1.3307    0.0000 C   0  0  0  0  0  0  0  0  0  0  0  0
   19.5688   -1.9960    0.0000 C   0  0  0  0  0  0  0  0  0  0  0  0
   18.4338    0.0000    0.0000 C   0  0  0  0  0  0  0  0  0  0  0  0
  1  2  1  0  0  0  0
  1  3  2  0  0  0  0
  1 14  1  0  0  0  0
  2  4  2  0  0  0  0
  3  5  1  0  0  0  0
  4  6  1  0  0  0  0
  5  6  2  0  0  0  0
  6  7  1  0  0  0  0
  7  8  1  0  0  0  0
  8  9  1  0  0  0  0
  9 10  1  0  0  0  0
 10 11  1  0  0  0  0
 11 12  1  0  0  0  0
 12 13  1  0  0  0  0
 14 15  1  0  0  0  0
 15 16  1  0  0  0  0
 16 17  1  0  0  0  0
 17 18  1  0  0  0  0
 18 19  1  0  0  0  0
 19 20  1  0  0  0  0
 20 21  1  0  0  0  0
 20 22  1  0  0  0  0
M  END
> <ID>
7973

> <Formula>
C19H32O3

> <FW>
308.4556

> <DSSTox_CID>
20802

> <DSSTox_RID>
82514

> <DSSTox_GSID>
47708

> <DSSTox_FileID_Sort>
7195

> <TS_ChemName>
Igepal CO-890

> <TS_ChemName_Synonyms>
Poly(oxy-1,2-ethanediyl),alpha-(4-nonylphenyl)-omega-hydroxy-, branched

> <TS_CASRN>
68412-54-4_1

> <CASRN_ChemName_Relationship>
CAS for various forms

> <TS_Description>
polymer

> <ChemNote>
CAS for various forms of Igepal CO mixtures; mixture of ethoxylated branched nonylphenols with an average of 40 ethoxy groups; structure shown with 2 ethoxy units; average molecular weight 1982

> <STRUCTURE_Shown>
monomer of polymer

> <STRUCTURE_Formula>
C19H32O3

> <STRUCTURE_MW>
308.4556

> <STRUCTURE_ChemType>
defined organic

> <STRUCTURE_DefinedOrganicForm>
parent

> <STRUCTURE_IUPAC>
2-{2-[4-(7-methyloctyl)phenoxy]ethoxy}ethanol

> <STRUCTURE_SMILES>
CC(C)CCCCCCc1ccc(OCCOCCO)cc1

> <STRUCTURE_SMILES_Desalt>
CC(C)CCCCCCc1ccc(OCCOCCO)cc1

> <Substance_modify_yyyymmdd>
20130906

$$$$
