6846-50-0
ChemmineR-0915142007XD

 20 19  0  0  0  0  0  0  0  0  1 V2000
    1.9964   -3.4570    0.0000 C   0  0  0  0  0  0  0  0  0  0  0  0
    1.3309   -2.3076    0.0000 O   0  0  0  0  0  0  0  0  0  0  0  0
    3.3274   -3.4570    0.0000 O   0  0  0  0  0  0  0  0  0  0  0  0
    1.3309   -4.6065    0.0000 C   0  0  0  0  0  0  0  0  0  0  0  0
    0.0000   -4.6065    0.0000 C   0  0  0  0  0  0  0  0  0  0  0  0
    1.9964   -5.7646    0.0000 C   0  0  0  0  0  0  0  0  0  0  0  0
    6.6461   -4.6065    0.0000 C   0  0  0  0  0  0  0  0  0  0  0  0
    5.3152   -4.6065    0.0000 O   0  0  0  0  0  0  0  0  0  0  0  0
    7.3116   -3.4570    0.0000 O   0  0  0  0  0  0  0  0  0  0  0  0
    7.3116   -5.7646    0.0000 C   0  0  0  0  0  0  0  0  0  0  0  0
    6.6461   -6.9140    0.0000 C   0  0  0  0  0  0  0  0  0  0  0  0
    8.6425   -5.7646    0.0000 C   0  0  0  0  0  0  0  0  0  0  0  0
    5.3152   -2.3076    0.0000 C   0  0  0  0  0  0  0  0  0  0  0  0
    6.6461   -2.3076    0.0000 C   0  0  0  0  0  0  0  0  0  0  0  0
    3.9842   -2.3076    0.0000 C   0  0  0  0  0  0  0  0  0  0  0  0
    7.3116   -1.1495    0.0000 C   0  0  0  0  0  0  0  0  0  0  0  0
    6.6461    0.0000    0.0000 C   0  0  0  0  0  0  0  0  0  0  0  0
    8.6425   -1.1495    0.0000 C   0  0  0  0  0  0  0  0  0  0  0  0
    5.3152   -0.9766    0.0000 C   0  0  0  0  0  0  0  0  0  0  0  0
    5.3152   -3.6299    0.0000 C   0  0  0  0  0  0  0  0  0  0  0  0
  1  2  2  0  0  0  0
  1  3  1  0  0  0  0
  1  4  1  0  0  0  0
  3 15  1  0  0  0  0
  4  5  1  0  0  0  0
  4  6  1  0  0  0  0
  7  8  2  0  0  0  0
  7  9  1  0  0  0  0
  7 10  1  0  0  0  0
  9 14  1  0  0  0  0
 10 11  1  0  0  0  0
 10 12  1  0  0  0  0
 13 15  1  0  0  0  0
 13 14  1  0  0  0  0
 13 19  1  0  0  0  0
 13 20  1  0  0  0  0
 14 16  1  0  0  0  0
 16 17  1  0  0  0  0
 16 18  1  0  0  0  0
M  END
> <ID>
5312

> <Formula>
C16H30O4

> <FW>
286.407

> <DSSTox_CID>
7635

> <DSSTox_RID>
78535

> <DSSTox_GSID>
27635

> <DSSTox_FileID_Sort>
3218

> <TS_ChemName>
2,2,4-Trimethyl-1,3-pentanediol diisobutyrate

> <TS_ChemName_Synonyms>
2,2,4-Trimethyl-1,3-pentanediol diisobutyrate (Propanoic acid, 2-methyl-, 2,2-dimethyl-1-(1-methylethyl)-1,3-propanediyl ester)

> <TS_CASRN>
6846-50-0

> <CASRN_ChemName_Relationship>
primary

> <TS_Description>
single chemical compound

> <ChemNote>


> <STRUCTURE_Shown>
tested chemical

> <STRUCTURE_Formula>
C16H30O4

> <STRUCTURE_MW>
286.407

> <STRUCTURE_ChemType>
defined organic

> <STRUCTURE_DefinedOrganicForm>
parent

> <STRUCTURE_IUPAC>
2,2,4-trimethylpentane-1,3-diyl bis(2-methylpropanoate)

> <STRUCTURE_SMILES>
O=C(OC(C(C)C)C(C)(C)COC(=O)C(C)C)C(C)C

> <STRUCTURE_SMILES_Desalt>
O=C(OC(C(C)C)C(C)(C)COC(=O)C(C)C)C(C)C

> <Substance_modify_yyyymmdd>
20080429

$$$$
