68515-49-1
ChemmineR-0915142007XD

 32 32  0  0  0  0  0  0  0  0  1 V2000
    2.2862   -2.0023    0.0000 C   0  0  0  0  0  0  0  0  0  0  0  0
    2.2862   -3.3322    0.0000 C   0  0  0  0  0  0  0  0  0  0  0  0
    3.4368   -1.3299    0.0000 C   0  0  0  0  0  0  0  0  0  0  0  0
    3.4368   -3.9896    0.0000 C   0  0  0  0  0  0  0  0  0  0  0  0
    3.4368    0.0000    0.0000 O   0  0  0  0  0  0  0  0  0  0  0  0
    4.5873   -3.3322    0.0000 O   0  0  0  0  0  0  0  0  0  0  0  0
    4.5873   -2.0023    0.0000 O   0  0  0  0  0  0  0  0  0  0  0  0
    3.4368   -5.3195    0.0000 O   0  0  0  0  0  0  0  0  0  0  0  0
    1.1356   -1.3299    0.0000 C   0  0  0  0  0  0  0  0  0  0  0  0
    1.1356   -3.9896    0.0000 C   0  0  0  0  0  0  0  0  0  0  0  0
    0.0000   -2.0023    0.0000 C   0  0  0  0  0  0  0  0  0  0  0  0
    0.0000   -3.3322    0.0000 C   0  0  0  0  0  0  0  0  0  0  0  0
    4.5873   -5.9919    0.0000 C   0  0  0  0  0  0  0  0  0  0  0  0
    4.5873   -7.3218    0.0000 C   0  0  0  0  0  0  0  0  0  0  0  0
    5.7379   -7.9793    0.0000 C   0  0  0  0  0  0  0  0  0  0  0  0
    5.7379   -9.2942    0.0000 C   0  0  0  0  0  0  0  0  0  0  0  0
    6.8885   -9.9666    0.0000 C   0  0  0  0  0  0  0  0  0  0  0  0
    6.8885  -11.2965    0.0000 C   0  0  0  0  0  0  0  0  0  0  0  0
    8.0540  -11.9539    0.0000 C   0  0  0  0  0  0  0  0  0  0  0  0
    5.7379   -1.3299    0.0000 C   0  0  0  0  0  0  0  0  0  0  0  0
    6.8885   -2.0023    0.0000 C   0  0  0  0  0  0  0  0  0  0  0  0
    8.0540   -1.3299    0.0000 C   0  0  0  0  0  0  0  0  0  0  0  0
    9.2045   -2.0023    0.0000 C   0  0  0  0  0  0  0  0  0  0  0  0
   10.3551   -1.3299    0.0000 C   0  0  0  0  0  0  0  0  0  0  0  0
   11.4907   -2.0023    0.0000 C   0  0  0  0  0  0  0  0  0  0  0  0
   12.6413   -1.3299    0.0000 C   0  0  0  0  0  0  0  0  0  0  0  0
    8.0540  -13.2838    0.0000 C   0  0  0  0  0  0  0  0  0  0  0  0
   13.7919   -2.0023    0.0000 C   0  0  0  0  0  0  0  0  0  0  0  0
    9.2045  -13.9562    0.0000 C   0  0  0  0  0  0  0  0  0  0  0  0
   14.9424   -1.3299    0.0000 C   0  0  0  0  0  0  0  0  0  0  0  0
   13.7919   -3.3322    0.0000 C   0  0  0  0  0  0  0  0  0  0  0  0
    6.8885  -13.9562    0.0000 C   0  0  0  0  0  0  0  0  0  0  0  0
  1  2  2  0  0  0  0
  1  3  1  0  0  0  0
  1  9  1  0  0  0  0
  2  4  1  0  0  0  0
  2 10  1  0  0  0  0
  3  5  2  0  0  0  0
  3  7  1  0  0  0  0
  4  6  2  0  0  0  0
  4  8  1  0  0  0  0
  7 20  1  0  0  0  0
  8 13  1  0  0  0  0
  9 11  2  0  0  0  0
 10 12  2  0  0  0  0
 11 12  1  0  0  0  0
 13 14  1  0  0  0  0
 14 15  1  0  0  0  0
 15 16  1  0  0  0  0
 16 17  1  0  0  0  0
 17 18  1  0  0  0  0
 18 19  1  0  0  0  0
 19 27  1  0  0  0  0
 20 21  1  0  0  0  0
 21 22  1  0  0  0  0
 22 23  1  0  0  0  0
 23 24  1  0  0  0  0
 24 25  1  0  0  0  0
 25 26  1  0  0  0  0
 26 28  1  0  0  0  0
 27 29  1  0  0  0  0
 27 32  1  0  0  0  0
 28 30  1  0  0  0  0
 28 31  1  0  0  0  0
M  END
> <ID>
5693

> <Formula>
C28H46O4

> <FW>
446.6624

> <DSSTox_CID>
8666

> <DSSTox_RID>
78654

> <DSSTox_GSID>
28666

> <DSSTox_FileID_Sort>
3336

> <TS_ChemName>
1,2-Benzenedicarboxylic acid, di-C9-11-branched alkyl esters, C10-rich

> <TS_ChemName_Synonyms>


> <TS_CASRN>
68515-49-1

> <CASRN_ChemName_Relationship>
primary

> <TS_Description>
mixture or formulation

> <ChemNote>
mixture of di alkyl phthalates; structure shown bis(8-methylnonyl) phthalate

> <STRUCTURE_Shown>
representative component

> <STRUCTURE_Formula>
C28H46O4

> <STRUCTURE_MW>
446.6624

> <STRUCTURE_ChemType>
defined organic

> <STRUCTURE_DefinedOrganicForm>
parent

> <STRUCTURE_IUPAC>
bis(8-methylnonyl) benzene-1,2-dicarboxylate

> <STRUCTURE_SMILES>
CC(C)CCCCCCCOC(=O)c1ccccc1C(=O)OCCCCCCCC(C)C

> <STRUCTURE_SMILES_Desalt>
CC(C)CCCCCCCOC(=O)c1ccccc1C(=O)OCCCCCCCC(C)C

> <Substance_modify_yyyymmdd>
20080429

$$$$
