68550-75-4
ChemmineR-0915142007XD

 25 27  0  0  0  0  0  0  0  0  1 V2000
    0.0000   -2.6526    0.0000 C   0  0  0  0  0  0  0  0  0  0  0  0
    0.0000   -3.9789    0.0000 C   0  0  0  0  0  0  0  0  0  0  0  0
    1.1646   -4.6583    0.0000 C   0  0  0  0  0  0  0  0  0  0  0  0
    2.3130   -3.9789    0.0000 C   0  0  0  0  0  0  0  0  0  0  0  0
    2.3130   -2.6526    0.0000 C   0  0  0  0  0  0  0  0  0  0  0  0
    1.1646   -2.0056    0.0000 C   0  0  0  0  0  0  0  0  0  0  0  0
    3.4775   -2.0056    0.0000 N   0  0  0  0  0  0  0  0  0  0  0  0
    3.4775   -0.6632    0.0000 C   0  0  0  0  0  0  0  0  0  0  0  0
    4.6259   -2.6526    0.0000 C   0  0  0  0  0  0  0  0  0  0  0  0
    5.7905   -2.0056    0.0000 C   0  0  0  0  0  0  0  0  0  0  0  0
    6.9389   -2.6526    0.0000 C   0  0  0  0  0  0  0  0  0  0  0  0
    8.0873   -2.0056    0.0000 C   0  0  0  0  0  0  0  0  0  0  0  0
    9.2357   -2.6526    0.0000 O   0  0  0  0  0  0  0  0  0  0  0  0
   10.3841   -2.0056    0.0000 C   0  0  0  0  0  0  0  0  0  0  0  0
   11.5486   -2.6526    0.0000 C   0  0  0  0  0  0  0  0  0  0  0  0
   11.5486    0.0000    0.0000 C   0  0  0  0  0  0  0  0  0  0  0  0
   10.3841   -0.6632    0.0000 C   0  0  0  0  0  0  0  0  0  0  0  0
   12.6970   -0.6632    0.0000 C   0  0  0  0  0  0  0  0  0  0  0  0
   12.6970   -2.0056    0.0000 C   0  0  0  0  0  0  0  0  0  0  0  0
   13.8616   -2.6526    0.0000 C   0  0  0  0  0  0  0  0  0  0  0  0
   15.0100   -2.0056    0.0000 C   0  0  0  0  0  0  0  0  0  0  0  0
   15.0100   -0.6632    0.0000 C   0  0  0  0  0  0  0  0  0  0  0  0
   13.8616    0.0000    0.0000 N   0  0  0  0  0  0  0  0  0  0  0  0
   16.1746    0.0000    0.0000 O   0  0  0  0  0  0  0  0  0  0  0  0
    4.6259   -3.9789    0.0000 O   0  0  0  0  0  0  0  0  0  0  0  0
  1  2  1  0  0  0  0
  1  6  1  0  0  0  0
  2  3  1  0  0  0  0
  3  4  1  0  0  0  0
  4  5  1  0  0  0  0
  5  6  1  0  0  0  0
  5  7  1  0  0  0  0
  7  8  1  0  0  0  0
  7  9  1  0  0  0  0
  9 10  1  0  0  0  0
  9 25  2  0  0  0  0
 10 11  1  0  0  0  0
 11 12  1  0  0  0  0
 12 13  1  0  0  0  0
 13 14  1  0  0  0  0
 14 15  1  0  0  0  0
 14 17  2  0  0  0  0
 15 19  2  0  0  0  0
 16 18  2  0  0  0  0
 16 17  1  0  0  0  0
 18 19  1  0  0  0  0
 18 23  1  0  0  0  0
 19 20  1  0  0  0  0
 20 21  2  0  0  0  0
 21 22  1  0  0  0  0
 22 23  1  0  0  0  0
 22 24  2  0  0  0  0
M  END
> <ID>
10766

> <Formula>
C20H26N2O3

> <FW>
342.432

> <DSSTox_CID>
25140

> <DSSTox_RID>
80698

> <DSSTox_GSID>
45140

> <DSSTox_FileID_Sort>
5379

> <TS_ChemName>
Cilostamide

> <TS_ChemName_Synonyms>


> <TS_CASRN>
68550-75-4

> <CASRN_ChemName_Relationship>
primary

> <TS_Description>
single chemical compound

> <ChemNote>


> <STRUCTURE_Shown>
tested chemical

> <STRUCTURE_Formula>
C20H26N2O3

> <STRUCTURE_MW>
342.432

> <STRUCTURE_ChemType>
defined organic

> <STRUCTURE_DefinedOrganicForm>
parent

> <STRUCTURE_IUPAC>
N-cyclohexyl-N-methyl-4-[(2-oxo-1,2-dihydroquinolin-6-yl)oxy]butanamide

> <STRUCTURE_SMILES>
CN(C1CCCCC1)C(=O)CCCOc2ccc3NC(=O)C=Cc3c2

> <STRUCTURE_SMILES_Desalt>
CN(C1CCCCC1)C(=O)CCCOc2ccc3NC(=O)C=Cc3c2

> <Substance_modify_yyyymmdd>
20100107

$$$$
