68555-86-2
ChemmineR-0915142007XD

 32 33  0  0  0  0  0  0  0  0  2 V2000
   16.5896   -2.2949    0.0000 C    0  0  0  0  0  0  0  0  0  0  0  0
   15.9284   -3.4618    0.0000 C    0  0  0  0  0  0  0  0  0  0  0  0
   14.6059   -3.4618    0.0000 C    0  0  0  0  0  0  0  0  0  0  0  0
   13.9252   -2.2949    0.0000 C    0  0  0  0  0  0  0  0  0  0  0  0
   14.6059   -1.1475    0.0000 C    0  0  0  0  0  0  0  0  0  0  0  0
   15.9284   -1.1475    0.0000 C    0  0  0  0  0  0  0  0  0  0  0  0
   17.9121   -2.2949    0.0000 S    0  0  0  0  0  0  0  0  0  0  0  0
   17.9121   -3.6369    0.0000 O    0  0  0  0  0  0  0  0  0  0  0  0
   17.9121   -0.9724    0.0000 O    0  5  0  0  0  0  0  0  0  0  0  0
   19.2346   -2.2949    0.0000 O    0  0  0  0  0  0  0  0  0  0  0  0
   11.9414   -3.4618    0.0000 N    0  0  0  0  0  0  0  0  0  0  0  0
   12.6027   -2.2949    0.0000 N    0  0  0  0  0  0  0  0  0  0  0  0
    8.6157   -4.6093    0.0000 C    0  0  0  0  0  0  0  0  0  0  0  0
    7.9739   -3.4618    0.0000 C    0  0  0  0  0  0  0  0  0  0  0  0
    8.6157   -2.2949    0.0000 C    0  0  0  0  0  0  0  0  0  0  0  0
    9.9577   -2.2949    0.0000 C    0  0  0  0  0  0  0  0  0  0  0  0
   10.6189   -3.4618    0.0000 C    0  0  0  0  0  0  0  0  0  0  0  0
    9.9577   -4.6093    0.0000 C    0  0  0  0  0  0  0  0  0  0  0  0
    7.9739   -1.1475    0.0000 O    0  0  0  0  0  0  0  0  0  0  0  0
    8.6157    0.0000    0.0000 C    0  0  0  0  0  0  0  0  0  0  0  0
    5.9707   -2.2949    0.0000 N    0  0  0  0  0  0  0  0  0  0  0  0
    6.6320   -3.4618    0.0000 N    0  0  0  0  0  0  0  0  0  0  0  0
    2.6645   -3.4618    0.0000 C    0  0  0  0  0  0  0  0  0  0  0  0
    1.9838   -2.2949    0.0000 C    0  0  0  0  0  0  0  0  0  0  0  0
    2.6645   -1.1475    0.0000 C    0  0  0  0  0  0  0  0  0  0  0  0
    3.9870   -1.1475    0.0000 C    0  0  0  0  0  0  0  0  0  0  0  0
    4.6288   -2.2949    0.0000 C    0  0  0  0  0  0  0  0  0  0  0  0
    3.9870   -3.4618    0.0000 C    0  0  0  0  0  0  0  0  0  0  0  0
    0.6613   -2.2949    0.0000 O    0  0  0  0  0  0  0  0  0  0  0  0
    0.0000   -1.1475    0.0000 C    0  0  0  0  0  0  0  0  0  0  0  0
   10.6189   -5.7568    0.0000 C    0  0  0  0  0  0  0  0  0  0  0  0
   19.4486   -0.4084    0.0000 Na   0  3  0  0  0  0  0  0  0  0  0  0
  1  2  2  0  0  0  0
  1  6  1  0  0  0  0
  1  7  1  0  0  0  0
  2  3  1  0  0  0  0
  3  4  2  0  0  0  0
  4  5  1  0  0  0  0
  4 12  1  0  0  0  0
  5  6  2  0  0  0  0
  7  8  2  0  0  0  0
  7  9  1  0  0  0  0
  7 10  2  0  0  0  0
 11 17  1  0  0  0  0
 11 12  2  0  0  0  0
 13 18  2  0  0  0  0
 13 14  1  0  0  0  0
 14 15  2  0  0  0  0
 14 22  1  0  0  0  0
 15 16  1  0  0  0  0
 15 19  1  0  0  0  0
 16 17  2  0  0  0  0
 17 18  1  0  0  0  0
 18 31  1  0  0  0  0
 19 20  1  0  0  0  0
 21 27  1  0  0  0  0
 21 22  2  0  0  0  0
 23 28  2  0  0  0  0
 23 24  1  0  0  0  0
 24 25  2  0  0  0  0
 24 29  1  0  0  0  0
 25 26  1  0  0  0  0
 26 27  2  0  0  0  0
 27 28  1  0  0  0  0
 29 30  1  0  0  0  0
M  END
> <ID>
10370

> <Formula>
C21H19N4NaO5S

> <FW>
462.4541 (439.4649+22.9892)

> <DSSTox_CID>
24718

> <DSSTox_RID>
80418

> <DSSTox_GSID>
44718

> <DSSTox_FileID_Sort>
5100

> <TS_ChemName>
Acid orange 156

> <TS_ChemName_Synonyms>
Benzenesulfonic acid, 4-[[5-methoxy-4-[(4-methoxyphenyl)azo]-2-methylphenyl]azo]-, sodium salt; C.I. 26501

> <TS_CASRN>
68555-86-2

> <CASRN_ChemName_Relationship>
primary

> <TS_Description>
single chemical compound

> <ChemNote>
parent [87186-90-1]

> <STRUCTURE_Shown>
tested chemical

> <STRUCTURE_Formula>
C21H19N4NaO5S

> <STRUCTURE_MW>
462.4541

> <STRUCTURE_ChemType>
defined organic

> <STRUCTURE_DefinedOrganicForm>
salt

> <STRUCTURE_IUPAC>
sodium 4-[(E)-{5-methoxy-4-[(E)-(4-methoxyphenyl)diazenyl]-2-methylphenyl}diazenyl]benzenesulfonate

> <STRUCTURE_SMILES>
[Na+].O=S([O-])(=O)c3ccc(/N=N/c2cc(OC)c(/N=N/c1ccc(OC)cc1)cc2C)cc3

> <STRUCTURE_SMILES_Desalt>
OS(=O)(=O)c3ccc(/N=N/c2cc(OC)c(/N=N/c1ccc(OC)cc1)cc2C)cc3

> <Substance_modify_yyyymmdd>
20091116

$$$$
