68576-86-3
ChemmineR-0915142007XD

 31 33  0  0  0  0  0  0  0  0  1 V2000
    3.9933  -10.3723    0.0000 C   0  0  0  0  0  0  0  0  0  0  0  0
    2.6657  -10.3723    0.0000 O   0  0  0  0  0  0  0  0  0  0  0  0
    1.9915   -9.2210    0.0000 C   0  0  0  0  0  0  0  0  0  0  0  0
    2.6657   -8.0697    0.0000 C   0  0  0  0  0  0  0  0  0  0  0  0
    1.9915   -6.9183    0.0000 C   0  0  0  0  0  0  0  0  0  0  0  0
    0.6638   -6.9183    0.0000 C   0  0  0  0  0  0  0  0  0  0  0  0
    0.0000   -8.0697    0.0000 C   0  0  0  0  0  0  0  0  0  0  0  0
    0.6638   -9.2210    0.0000 C   0  0  0  0  0  0  0  0  0  0  0  0
    3.9933   -8.0697    0.0000 N   0  0  0  0  0  0  0  0  0  0  0  0
    4.6572   -9.2210    0.0000 C   0  0  0  0  0  0  0  0  0  0  0  0
    5.9848   -9.2210    0.0000 C   0  0  0  0  0  0  0  0  0  0  0  0
    6.6487   -8.0697    0.0000 N   0  0  0  0  0  0  0  0  0  0  0  0
    5.9848   -6.9183    0.0000 C   0  0  0  0  0  0  0  0  0  0  0  0
    4.6572   -6.9183    0.0000 C   0  0  0  0  0  0  0  0  0  0  0  0
    7.9867   -8.0697    0.0000 C   0  0  0  0  0  0  0  0  0  0  0  0
    8.6505   -6.9183    0.0000 C   0  0  0  0  0  0  0  0  0  0  0  0
    9.9782   -6.9183    0.0000 O   0  0  0  0  0  0  0  0  0  0  0  0
    7.9867   -5.7670    0.0000 C   0  0  0  0  0  0  0  0  0  0  0  0
    6.6487   -5.7670    0.0000 O   0  0  0  0  0  0  0  0  0  0  0  0
    5.9848   -4.6053    0.0000 C   0  0  0  0  0  0  0  0  0  0  0  0
    6.6487   -3.4540    0.0000 C   0  0  0  0  0  0  0  0  0  0  0  0
    5.9848   -2.3027    0.0000 C   0  0  0  0  0  0  0  0  0  0  0  0
    4.6572   -2.3027    0.0000 C   0  0  0  0  0  0  0  0  0  0  0  0
    3.9933   -1.1513    0.0000 O   0  0  0  0  0  0  0  0  0  0  0  0
    2.6657   -1.1513    0.0000 C   0  0  0  0  0  0  0  0  0  0  0  0
    3.9933   -3.4540    0.0000 C   0  0  0  0  0  0  0  0  0  0  0  0
    4.6572   -4.6053    0.0000 C   0  0  0  0  0  0  0  0  0  0  0  0
    2.6657   -3.4540    0.0000 O   0  0  0  0  0  0  0  0  0  0  0  0
    1.9915   -4.6053    0.0000 C   0  0  0  0  0  0  0  0  0  0  0  0
    6.6487   -1.1513    0.0000 O   0  0  0  0  0  0  0  0  0  0  0  0
    5.9848    0.0000    0.0000 C   0  0  0  0  0  0  0  0  0  0  0  0
  1  2  1  0  0  0  0
  2  3  1  0  0  0  0
  3  4  2  0  0  0  0
  3  8  1  0  0  0  0
  4  5  1  0  0  0  0
  4  9  1  0  0  0  0
  5  6  2  0  0  0  0
  6  7  1  0  0  0  0
  7  8  2  0  0  0  0
  9 10  1  0  0  0  0
  9 14  1  0  0  0  0
 10 11  1  0  0  0  0
 11 12  1  0  0  0  0
 12 13  1  0  0  0  0
 12 15  1  0  0  0  0
 13 14  1  0  0  0  0
 15 16  1  0  0  0  0
 16 17  1  0  0  0  0
 16 18  1  0  0  0  0
 18 19  1  0  0  0  0
 19 20  1  0  0  0  0
 20 21  2  0  0  0  0
 20 27  1  0  0  0  0
 21 22  1  0  0  0  0
 22 23  2  0  0  0  0
 22 30  1  0  0  0  0
 23 24  1  0  0  0  0
 23 26  1  0  0  0  0
 24 25  1  0  0  0  0
 26 27  2  0  0  0  0
 26 28  1  0  0  0  0
 28 29  1  0  0  0  0
 30 31  1  0  0  0  0
M  END
> <ID>
16204

> <Formula>
C23H32N2O6

> <FW>
432.51

> <DSSTox_CID>
31595

> <DSSTox_RID>
97479

> <DSSTox_GSID>
57806

> <DSSTox_FileID_Sort>
8546

> <TS_ChemName>
Enciprazine

> <TS_ChemName_Synonyms>


> <TS_CASRN>
68576-86-3

> <CASRN_ChemName_Relationship>
primary

> <TS_Description>
single chemical compound

> <ChemNote>


> <STRUCTURE_Shown>
tested chemical

> <STRUCTURE_Formula>
C23H32N2O6

> <STRUCTURE_MW>
432.51

> <STRUCTURE_ChemType>
defined organic

> <STRUCTURE_DefinedOrganicForm>
parent

> <STRUCTURE_IUPAC>
1-[4-(2-methoxyphenyl)piperazin-1-yl]-3-(3,4,5-trimethoxyphenoxy)propan-2-ol

> <STRUCTURE_SMILES>
OC(CN1CCN(CC1)c2ccccc2OC)COc3cc(OC)c(OC)c(OC)c3

> <STRUCTURE_SMILES_Desalt>
OC(CN1CCN(CC1)c2ccccc2OC)COc3cc(OC)c(OC)c(OC)c3

> <Substance_modify_yyyymmdd>
20131018

$$$$
