68609-97-2
ChemmineR-0915142007XD

 17 17  0  0  0  0  0  0  0  0  1 V2000
   14.9510   -1.1405    0.0000 C   0  0  0  0  0  0  0  0  0  0  0  0
   14.2948    0.0000    0.0000 C   0  0  0  0  0  0  0  0  0  0  0  0
   15.6228    0.0000    0.0000 O   0  0  0  0  0  0  0  0  0  0  0  0
   14.9510   -2.4684    0.0000 C   0  0  0  0  0  0  0  0  0  0  0  0
   13.8105   -3.1402    0.0000 O   0  0  0  0  0  0  0  0  0  0  0  0
   12.6544   -2.4684    0.0000 C   0  0  0  0  0  0  0  0  0  0  0  0
   11.5140   -3.1402    0.0000 C   0  0  0  0  0  0  0  0  0  0  0  0
   10.3579   -2.4684    0.0000 C   0  0  0  0  0  0  0  0  0  0  0  0
    9.2018   -3.1402    0.0000 C   0  0  0  0  0  0  0  0  0  0  0  0
    8.0613   -2.4684    0.0000 C   0  0  0  0  0  0  0  0  0  0  0  0
    6.9053   -3.1402    0.0000 C   0  0  0  0  0  0  0  0  0  0  0  0
    5.7492   -2.4684    0.0000 C   0  0  0  0  0  0  0  0  0  0  0  0
    4.6087   -3.1402    0.0000 C   0  0  0  0  0  0  0  0  0  0  0  0
    3.4526   -2.4684    0.0000 C   0  0  0  0  0  0  0  0  0  0  0  0
    2.2965   -3.1402    0.0000 C   0  0  0  0  0  0  0  0  0  0  0  0
    1.1561   -2.4684    0.0000 C   0  0  0  0  0  0  0  0  0  0  0  0
    0.0000   -3.1402    0.0000 C   0  0  0  0  0  0  0  0  0  0  0  0
  1  2  1  0  0  0  0
  1  3  1  0  0  0  0
  1  4  1  0  0  0  0
  2  3  1  0  0  0  0
  4  5  1  0  0  0  0
  5  6  1  0  0  0  0
  6  7  1  0  0  0  0
  7  8  1  0  0  0  0
  8  9  1  0  0  0  0
  9 10  1  0  0  0  0
 10 11  1  0  0  0  0
 11 12  1  0  0  0  0
 12 13  1  0  0  0  0
 13 14  1  0  0  0  0
 14 15  1  0  0  0  0
 15 16  1  0  0  0  0
 16 17  1  0  0  0  0
M  END
> <ID>
4230

> <Formula>
C15H30O2

> <FW>
242.3975

> <DSSTox_CID>
5494

> <DSSTox_RID>
78656

> <DSSTox_GSID>
28774

> <DSSTox_FileID_Sort>
3338

> <TS_ChemName>
C12-14-Alkyl glycidyl ether

> <TS_ChemName_Synonyms>
Oxirane, mono[(C12-14-C12-14-Alkyl glycidyl ether (alkyloxy)methyl] derivs.)

> <TS_CASRN>
68609-97-2

> <CASRN_ChemName_Relationship>
primary

> <TS_Description>
mixture or formulation

> <ChemNote>
undefined mixture of C12 - C14 ethers; structure shown C12 [2461-18-9]

> <STRUCTURE_Shown>
representative component

> <STRUCTURE_Formula>
C15H30O2

> <STRUCTURE_MW>
242.3975

> <STRUCTURE_ChemType>
defined organic

> <STRUCTURE_DefinedOrganicForm>
parent

> <STRUCTURE_IUPAC>
2-[(dodecyloxy)methyl]oxirane

> <STRUCTURE_SMILES>
CCCCCCCCCCCCOCC1CO1

> <STRUCTURE_SMILES_Desalt>
CCCCCCCCCCCCOCC1CO1

> <Substance_modify_yyyymmdd>
20110915

$$$$
