686756-87-6
ChemmineR-0915142007XD

 32 36  0  0  0  0  0  0  0  0  1 V2000
    8.0726   -3.3189    0.0000 N    0  0  0  0  0  0  0  0  0  0  0  0
    6.9144   -1.3310    0.0000 N    0  0  0  0  0  0  0  0  0  0  0  0
    8.0726   -2.0052    0.0000 C    0  0  0  0  0  0  0  0  0  0  0  0
    5.7562   -3.3189    0.0000 C    0  0  0  0  0  0  0  0  0  0  0  0
    6.9144   -3.9931    0.0000 C    0  0  0  0  0  0  0  0  0  0  0  0
    5.7562   -2.0052    0.0000 C    0  0  0  0  0  0  0  0  0  0  0  0
    3.4572   -3.3189    0.0000 N    0  0  0  0  0  0  0  0  0  0  0  0
    4.5981   -1.3310    0.0000 N    0  0  0  0  0  0  0  0  0  0  0  0
    3.4572   -2.0052    0.0000 C    0  0  0  0  0  0  0  0  0  0  0  0
    4.5981   -3.9931    0.0000 C    0  0  0  0  0  0  0  0  0  0  0  0
    2.3163   -1.3310    0.0000 O    0  0  0  0  0  0  0  0  0  0  0  0
    0.0000   -3.9931    0.0000 C    0  0  0  0  0  0  0  0  0  0  0  0
    0.0000   -5.3241    0.0000 C    0  0  0  0  0  0  0  0  0  0  0  0
    1.1582   -5.9810    0.0000 C    0  0  0  0  0  0  0  0  0  0  0  0
    2.3163   -5.3241    0.0000 C    0  0  0  0  0  0  0  0  0  0  0  0
    2.3163   -3.9931    0.0000 C    0  0  0  0  0  0  0  0  0  0  0  0
    1.1582   -3.3189    0.0000 C    0  0  0  0  0  0  0  0  0  0  0  0
    1.1582   -2.0052    0.0000 Br   0  0  0  0  0  0  0  0  0  0  0  0
    9.2134   -1.3310    0.0000 N    0  0  0  0  0  0  0  0  0  0  0  0
   13.8115   -1.3310    0.0000 O    0  0  0  0  0  0  0  0  0  0  0  0
   14.9697   -2.0052    0.0000 C    0  0  0  0  0  0  0  0  0  0  0  0
   14.9697   -3.3189    0.0000 C    0  0  0  0  0  0  0  0  0  0  0  0
   13.8115   -3.9931    0.0000 O    0  0  0  0  0  0  0  0  0  0  0  0
   12.6706   -3.3189    0.0000 C    0  0  0  0  0  0  0  0  0  0  0  0
   12.6706   -2.0052    0.0000 C    0  0  0  0  0  0  0  0  0  0  0  0
   11.5125   -1.3310    0.0000 C    0  0  0  0  0  0  0  0  0  0  0  0
   10.3716   -2.0052    0.0000 C    0  0  0  0  0  0  0  0  0  0  0  0
   10.3716   -3.3189    0.0000 C    0  0  0  0  0  0  0  0  0  0  0  0
   11.5125   -3.9931    0.0000 C    0  0  0  0  0  0  0  0  0  0  0  0
   16.1279   -3.9931    0.0000 C    0  0  0  0  0  0  0  0  0  0  0  0
   17.2860   -3.3189    0.0000 O    0  0  0  0  0  0  0  0  0  0  0  0
    4.5981    0.0000    0.0000 C    0  0  0  0  0  0  0  0  0  0  0  0
  1  3  2  0  0  0  0
  1  5  1  0  0  0  0
  2  3  1  0  0  0  0
  2  6  2  0  0  0  0
  3 19  1  0  0  0  0
  4  5  2  0  0  0  0
  4  6  1  0  0  0  0
  4 10  1  0  0  0  0
  6  8  1  0  0  0  0
  7  9  1  0  0  0  0
  7 10  1  0  0  0  0
  7 16  1  0  0  0  0
  8  9  1  0  0  0  0
  8 32  1  0  0  0  0
  9 11  2  0  0  0  0
 12 17  2  0  0  0  0
 12 13  1  0  0  0  0
 13 14  2  0  0  0  0
 14 15  1  0  0  0  0
 15 16  2  0  0  0  0
 16 17  1  0  0  0  0
 17 18  1  0  0  0  0
 19 27  1  0  0  0  0
 20 21  1  0  0  0  0
 20 25  1  0  0  0  0
 21 22  1  0  0  0  0
 22 23  1  0  0  0  0
 22 30  1  0  0  0  0
 23 24  1  0  0  0  0
 24 25  2  0  0  0  0
 24 29  1  0  0  0  0
 25 26  1  0  0  0  0
 26 27  2  0  0  0  0
 27 28  1  0  0  0  0
 28 29  2  0  0  0  0
 30 31  1  0  0  0  0
M  END
> <ID>
13567

> <Formula>
C22H20BrN5O4

> <FW>
498.3293

> <DSSTox_CID>
28493

> <DSSTox_RID>
82768

> <DSSTox_GSID>
48519

> <DSSTox_FileID_Sort>
7445

> <TS_ChemName>
PharmaGSID_48519

> <TS_ChemName_Synonyms>
3-(2-Bromophenyl)-7-{[2-(hydroxymethyl)-2,3-dihydro-1,4-benzodioxin-6-yl]amino}-1-methyl-3,4-dihydropyrimido[4,5-d]pyrimidin-2(1H)-one

> <TS_CASRN>
686756-87-6

> <CASRN_ChemName_Relationship>
primary

> <TS_Description>
single chemical compound

> <ChemNote>


> <STRUCTURE_Shown>
tested chemical

> <STRUCTURE_Formula>
C22H20BrN5O4

> <STRUCTURE_MW>
498.3293

> <STRUCTURE_ChemType>
defined organic

> <STRUCTURE_DefinedOrganicForm>
parent

> <STRUCTURE_IUPAC>
3-(2-bromophenyl)-7-{[2-(hydroxymethyl)-2,3-dihydro-1,4-benzodioxin-6-yl]amino}-1-methyl-3,4-dihydropyrimido[4,5-d]pyrimidin-2(1H)-one

> <STRUCTURE_SMILES>
Brc1ccccc1N2Cc3cnc(nc3N(C)C2=O)Nc4ccc5OC(COc5c4)CO

> <STRUCTURE_SMILES_Desalt>
Brc1ccccc1N2Cc3cnc(nc3N(C)C2=O)Nc4ccc5OC(COc5c4)CO

> <Substance_modify_yyyymmdd>
20130910

$$$$
