68677-26-9
ChemmineR-0915142007XD

 22 22  0  0  0  0  0  0  0  0  1 V2000
    2.3045   -0.6732    0.0000 C   0  0  0  0  0  0  0  0  0  0  0  0
    2.3045   -2.0068    0.0000 C   0  0  0  0  0  0  0  0  0  0  0  0
    1.1523    0.0000    0.0000 C   0  0  0  0  0  0  0  0  0  0  0  0
    1.1523   -2.6541    0.0000 C   0  0  0  0  0  0  0  0  0  0  0  0
    0.0000   -0.6732    0.0000 C   0  0  0  0  0  0  0  0  0  0  0  0
    0.0000   -2.0068    0.0000 C   0  0  0  0  0  0  0  0  0  0  0  0
    3.5604   -0.2589    0.0000 N   0  0  0  0  0  0  0  0  0  0  0  0
    4.3501   -1.3335    0.0000 C   0  0  0  0  0  0  0  0  0  0  0  0
    3.5604   -2.3952    0.0000 C   0  0  0  0  0  0  0  0  0  0  0  0
    3.9617   -3.6640    0.0000 C   0  0  0  0  0  0  0  0  0  0  0  0
    5.2694   -3.9358    0.0000 C   0  0  0  0  0  0  0  0  0  0  0  0
    5.6707   -5.1917    0.0000 N   0  0  0  0  0  0  0  0  0  0  0  0
    6.9913   -5.4895    0.0000 C   0  0  0  0  0  0  0  0  0  0  0  0
    4.7903   -6.1886    0.0000 C   0  0  0  0  0  0  0  0  0  0  0  0
    8.2989   -2.2786    0.0000 C   0  0  0  0  0  0  0  0  0  0  0  0
    9.4641   -2.9130    0.0000 C   0  0  0  0  0  0  0  0  0  0  0  0
   10.6293   -2.2786    0.0000 C   0  0  0  0  0  0  0  0  0  0  0  0
   11.7816   -2.9130    0.0000 C   0  0  0  0  0  0  0  0  0  0  0  0
    8.2989   -0.9192    0.0000 O   0  0  0  0  0  0  0  0  0  0  0  0
    7.1596   -2.9130    0.0000 O   0  0  0  0  0  0  0  0  0  0  0  0
   11.7816   -4.2725    0.0000 O   0  0  0  0  0  0  0  0  0  0  0  0
   12.9468   -2.2786    0.0000 O   0  0  0  0  0  0  0  0  0  0  0  0
  1  3  2  0  0  0  0
  1  7  1  0  0  0  0
  1  2  1  0  0  0  0
  2  4  2  0  0  0  0
  2  9  1  0  0  0  0
  3  5  1  0  0  0  0
  4  6  1  0  0  0  0
  5  6  2  0  0  0  0
  7  8  1  0  0  0  0
  8  9  2  0  0  0  0
  9 10  1  0  0  0  0
 10 11  1  0  0  0  0
 11 12  1  0  0  0  0
 12 13  1  0  0  0  0
 12 14  1  0  0  0  0
 15 16  1  0  0  0  0
 15 20  1  0  0  0  0
 15 19  2  0  0  0  0
 16 17  2  0  0  0  0
 17 18  1  0  0  0  0
 18 22  1  0  0  0  0
 18 21  2  0  0  0  0
M  END
> <ID>
13885

> <Formula>
C16H20N2O4

> <FW>
304.3410 (188.2688+116.0722)

> <DSSTox_CID>
28822

> <DSSTox_RID>
83091

> <DSSTox_GSID>
48896

> <DSSTox_FileID_Sort>
7768

> <TS_ChemName>
N,N-Dimethyltryptamine fumarate

> <TS_ChemName_Synonyms>


> <TS_CASRN>
68677-26-9

> <CASRN_ChemName_Relationship>
primary

> <TS_Description>
single chemical compound

> <ChemNote>
parent [61-50-7]

> <STRUCTURE_Shown>
tested chemical

> <STRUCTURE_Formula>
C16H20N2O4

> <STRUCTURE_MW>
304.341

> <STRUCTURE_ChemType>
defined organic

> <STRUCTURE_DefinedOrganicForm>
complex

> <STRUCTURE_IUPAC>
2-(1H-indol-3-yl)-N,N-dimethylethanamine (2E)-but-2-enedioate (1:1)

> <STRUCTURE_SMILES>
O=C(O)/C=C/C(=O)O.CN(C)CCc2cnc1ccccc12

> <STRUCTURE_SMILES_Desalt>
CN(C)CCc2cnc1ccccc12

> <Substance_modify_yyyymmdd>
20111204

$$$$
