68694-11-1
ChemmineR-0915142007XD

 23 24  0  0  0  0  0  0  0  0  1 V2000
    8.3511   -7.5764    0.0000 N    0  0  0  0  0  0  0  0  0  0  0  0
    6.9007   -5.9908    0.0000 N    0  0  0  0  0  0  0  0  0  0  0  0
    7.0629   -7.3241    0.0000 C    0  0  0  0  0  0  0  0  0  0  0  0
    9.0088   -6.4413    0.0000 C    0  0  0  0  0  0  0  0  0  0  0  0
    8.1259   -5.4593    0.0000 C    0  0  0  0  0  0  0  0  0  0  0  0
    5.7746   -5.3242    0.0000 C    0  0  0  0  0  0  0  0  0  0  0  0
    5.7746   -3.9909    0.0000 C    0  0  0  0  0  0  0  0  0  0  0  0
    4.6125   -5.9908    0.0000 N    0  0  0  0  0  0  0  0  0  0  0  0
    3.4594   -5.3242    0.0000 C    0  0  0  0  0  0  0  0  0  0  0  0
    2.2972   -5.9908    0.0000 C    0  0  0  0  0  0  0  0  0  0  0  0
    3.4594   -3.9909    0.0000 C    0  0  0  0  0  0  0  0  0  0  0  0
    1.1441   -5.3242    0.0000 C    0  0  0  0  0  0  0  0  0  0  0  0
    2.2972   -3.3152    0.0000 C    0  0  0  0  0  0  0  0  0  0  0  0
    1.1441   -3.9909    0.0000 C    0  0  0  0  0  0  0  0  0  0  0  0
    0.0000   -3.3152    0.0000 Cl   0  0  0  0  0  0  0  0  0  0  0  0
    2.2972   -7.3241    0.0000 C    0  0  0  0  0  0  0  0  0  0  0  0
    2.2972   -8.6574    0.0000 F    0  0  0  0  0  0  0  0  0  0  0  0
    3.6395   -7.3241    0.0000 F    0  0  0  0  0  0  0  0  0  0  0  0
    0.9639   -7.3241    0.0000 F    0  0  0  0  0  0  0  0  0  0  0  0
    6.9007   -3.3152    0.0000 O    0  0  0  0  0  0  0  0  0  0  0  0
    6.9007   -2.0180    0.0000 C    0  0  0  0  0  0  0  0  0  0  0  0
    8.0629   -1.3333    0.0000 C    0  0  0  0  0  0  0  0  0  0  0  0
    8.0629    0.0000    0.0000 C    0  0  0  0  0  0  0  0  0  0  0  0
  1  3  2  0  0  0  0
  1  4  1  0  0  0  0
  2  3  1  0  0  0  0
  2  5  1  0  0  0  0
  2  6  1  0  0  0  0
  4  5  2  0  0  0  0
  6  7  1  0  0  0  0
  6  8  2  0  0  0  0
  7 20  1  0  0  0  0
  8  9  1  0  0  0  0
  9 10  2  0  0  0  0
  9 11  1  0  0  0  0
 10 12  1  0  0  0  0
 10 16  1  0  0  0  0
 11 13  2  0  0  0  0
 12 14  2  0  0  0  0
 13 14  1  0  0  0  0
 14 15  1  0  0  0  0
 16 17  1  0  0  0  0
 16 18  1  0  0  0  0
 16 19  1  0  0  0  0
 20 21  1  0  0  0  0
 21 22  1  0  0  0  0
 22 23  1  0  0  0  0
M  END
> <ID>
6478

> <Formula>
C15H15ClF3N3O

> <FW>
345.7473

> <DSSTox_CID>
12500

> <DSSTox_RID>
78959

> <DSSTox_GSID>
32500

> <DSSTox_FileID_Sort>
3641

> <TS_ChemName>
Triflumizole

> <TS_ChemName_Synonyms>


> <TS_CASRN>
68694-11-1

> <CASRN_ChemName_Relationship>
primary

> <TS_Description>
single chemical compound

> <ChemNote>


> <STRUCTURE_Shown>
tested chemical

> <STRUCTURE_Formula>
C15H15ClF3N3O

> <STRUCTURE_MW>
345.7473

> <STRUCTURE_ChemType>
defined organic

> <STRUCTURE_DefinedOrganicForm>
parent

> <STRUCTURE_IUPAC>
(1E)-N-[4-chloro-2-(trifluoromethyl)phenyl]-1-(1H-imidazol-1-yl)-2-propoxyethanimine

> <STRUCTURE_SMILES>
FC(F)(F)c2cc(Cl)ccc2\N=C(/COCCC)n1ccnc1

> <STRUCTURE_SMILES_Desalt>
FC(F)(F)c2cc(Cl)ccc2\N=C(/COCCC)n1ccnc1

> <Substance_modify_yyyymmdd>
20080429

$$$$
