68792-52-9
ChemmineR-0915142007XD

 35 35  0  0  0  0  0  0  0  0  2 V2000
    5.9820   -1.1385    0.0000 C    0  0  0  0  0  0  0  0  0  0  0  0
    5.3259   -2.3156    0.0000 N    0  0  0  0  0  0  0  0  0  0  0  0
    5.9820   -3.4734    0.0000 C    0  0  0  0  0  0  0  0  0  0  0  0
    7.3135   -3.4734    0.0000 C    0  0  0  0  0  0  0  0  0  0  0  0
    7.9889   -4.6119    0.0000 N    0  0  0  0  0  0  0  0  0  0  0  0
    9.3204   -4.6119    0.0000 C    0  0  0  0  0  0  0  0  0  0  0  0
    9.9764   -3.4734    0.0000 C    0  0  0  0  0  0  0  0  0  0  0  0
   11.3079   -3.4734    0.0000 C    0  0  0  0  0  0  0  0  0  0  0  0
   11.9833   -4.6119    0.0000 C    0  0  0  0  0  0  0  0  0  0  0  0
   11.3079   -5.7504    0.0000 C    0  0  0  0  0  0  0  0  0  0  0  0
    9.9764   -5.7504    0.0000 C    0  0  0  0  0  0  0  0  0  0  0  0
   13.3148   -4.6119    0.0000 C    0  0  0  0  0  0  0  0  0  0  0  0
   13.9709   -5.7504    0.0000 O    0  0  0  0  0  0  0  0  0  0  0  0
   13.9709   -3.4734    0.0000 N    0  0  0  0  0  0  0  0  0  0  0  0
   15.3024   -3.4734    0.0000 C    0  0  0  0  0  0  0  0  0  0  0  0
   15.9777   -4.6119    0.0000 C    0  0  0  0  0  0  0  0  0  0  0  0
   17.3092   -4.6119    0.0000 C    0  0  0  0  0  0  0  0  0  0  0  0
   17.9653   -5.7504    0.0000 C    0  0  0  0  0  0  0  0  0  0  0  0
   19.2968   -5.7504    0.0000 O    0  5  0  0  0  0  0  0  0  0  0  0
   17.3092   -6.9083    0.0000 O    0  0  0  0  0  0  0  0  0  0  0  0
   15.9777   -2.3156    0.0000 C    0  0  0  0  0  0  0  0  0  0  0  0
   15.3024   -1.1385    0.0000 O    0  5  0  0  0  0  0  0  0  0  0  0
   17.3092   -2.3156    0.0000 O    0  0  0  0  0  0  0  0  0  0  0  0
    5.3259   -4.6119    0.0000 C    0  0  0  0  0  0  0  0  0  0  0  0
    3.9944   -4.6119    0.0000 N    0  0  0  0  0  0  0  0  0  0  0  0
    3.3190   -3.4734    0.0000 C    0  0  0  0  0  0  0  0  0  0  0  0
    1.9876   -3.4734    0.0000 N    0  0  0  0  0  0  0  0  0  0  0  0
    1.3315   -2.3156    0.0000 C    0  0  0  0  0  0  0  0  0  0  0  0
    1.9876   -1.1385    0.0000 N    0  0  0  0  0  0  0  0  0  0  0  0
    3.3190   -1.1385    0.0000 C    0  0  0  0  0  0  0  0  0  0  0  0
    3.9944   -2.3156    0.0000 C    0  0  0  0  0  0  0  0  0  0  0  0
    3.9944    0.0000    0.0000 O    0  0  0  0  0  0  0  0  0  0  0  0
    0.0000   -2.3156    0.0000 N    0  0  0  0  0  0  0  0  0  0  0  0
   18.3127   -0.8877    0.0000 Na   0  3  0  0  0  0  0  0  0  0  0  0
   19.1617   -7.3135    0.0000 Na   0  3  0  0  0  0  0  0  0  0  0  0
  1  2  1  0  0  0  0
  2  3  1  0  0  0  0
  2 31  1  0  0  0  0
  3  4  1  0  0  0  0
  3 24  1  0  0  0  0
  4  5  1  0  0  0  0
  5  6  1  0  0  0  0
  6  7  2  0  0  0  0
  6 11  1  0  0  0  0
  7  8  1  0  0  0  0
  8  9  2  0  0  0  0
  9 10  1  0  0  0  0
  9 12  1  0  0  0  0
 10 11  2  0  0  0  0
 12 13  2  0  0  0  0
 12 14  1  0  0  0  0
 14 15  1  0  0  0  0
 15 16  1  0  0  0  0
 15 21  1  0  0  0  0
 16 17  1  0  0  0  0
 17 18  1  0  0  0  0
 18 19  1  0  0  0  0
 18 20  2  0  0  0  0
 21 22  1  0  0  0  0
 21 23  2  0  0  0  0
 24 25  1  0  0  0  0
 25 26  1  0  0  0  0
 26 27  2  0  0  0  0
 26 31  1  0  0  0  0
 27 28  1  0  0  0  0
 28 29  2  0  0  0  0
 28 33  1  0  0  0  0
 29 30  1  0  0  0  0
 30 31  2  0  0  0  0
 30 32  1  0  0  0  0
M  END
> <ID>
11990

> <Formula>
C20H23N7Na2O6

> <FW>
503.4195 (457.4410+22.9892+22.9892)

> <DSSTox_CID>
26814

> <DSSTox_RID>
81926

> <DSSTox_GSID>
46814

> <DSSTox_FileID_Sort>
6607

> <TS_ChemName>
Disodium 5-methyltetrahydrofolate

> <TS_ChemName_Synonyms>


> <TS_CASRN>
68792-52-9

> <CASRN_ChemName_Relationship>
primary

> <TS_Description>
single chemical compound

> <ChemNote>
parent [134-35-0]

> <STRUCTURE_Shown>
tested chemical

> <STRUCTURE_Formula>
C20H23N7Na2O6

> <STRUCTURE_MW>
503.4195

> <STRUCTURE_ChemType>
defined organic

> <STRUCTURE_DefinedOrganicForm>
salt

> <STRUCTURE_IUPAC>
disodium 2-[(4-{[(2-amino-4-hydroxy-5-methyl-5,6,7,8-tetrahydropteridin-6-yl)methyl]amino}benzoyl)amino]pentanedioate

> <STRUCTURE_SMILES>
[Na+].[Na+].[O-]C(=O)C(CCC([O-])=O)NC(=O)c1ccc(cc1)NCC3CNc2nc(N)nc(O)c2N3C

> <STRUCTURE_SMILES_Desalt>
O=C(O)C(CCC(=O)O)NC(=O)c1ccc(cc1)NCC3CNc2nc(N)nc(O)c2N3C

> <Substance_modify_yyyymmdd>
20110801

$$$$
