6881-94-3
ChemmineR-0915142007XD

 10  9  0  0  0  0  0  0  0  0  1 V2000
    9.2273   -0.6532    0.0000 C   0  0  0  0  0  0  0  0  0  0  0  0
    8.0765    0.0000    0.0000 C   0  0  0  0  0  0  0  0  0  0  0  0
   10.3678    0.0000    0.0000 O   0  0  0  0  0  0  0  0  0  0  0  0
    6.9153   -0.6739    0.0000 O   0  0  0  0  0  0  0  0  0  0  0  0
    5.7645    0.0000    0.0000 C   0  0  0  0  0  0  0  0  0  0  0  0
    4.6033   -0.6739    0.0000 C   0  0  0  0  0  0  0  0  0  0  0  0
    3.4525    0.0000    0.0000 O   0  0  0  0  0  0  0  0  0  0  0  0
    2.2913   -0.6739    0.0000 C   0  0  0  0  0  0  0  0  0  0  0  0
    1.1405   -0.0207    0.0000 C   0  0  0  0  0  0  0  0  0  0  0  0
    0.0000   -0.6739    0.0000 C   0  0  0  0  0  0  0  0  0  0  0  0
  1  2  1  0  0  0  0
  1  3  1  0  0  0  0
  2  4  1  0  0  0  0
  4  5  1  0  0  0  0
  5  6  1  0  0  0  0
  6  7  1  0  0  0  0
  7  8  1  0  0  0  0
  8  9  1  0  0  0  0
  9 10  1  0  0  0  0
M  END
> <ID>
5316

> <Formula>
C7H16O3

> <FW>
148.2001

> <DSSTox_CID>
7639

> <DSSTox_RID>
78537

> <DSSTox_GSID>
27639

> <DSSTox_FileID_Sort>
3220

> <TS_ChemName>
2-(2-Propoxyethoxy)ethanol

> <TS_ChemName_Synonyms>


> <TS_CASRN>
6881-94-3

> <CASRN_ChemName_Relationship>
primary

> <TS_Description>
single chemical compound

> <ChemNote>


> <STRUCTURE_Shown>
tested chemical

> <STRUCTURE_Formula>
C7H16O3

> <STRUCTURE_MW>
148.2001

> <STRUCTURE_ChemType>
defined organic

> <STRUCTURE_DefinedOrganicForm>
parent

> <STRUCTURE_IUPAC>
2-(2-propoxyethoxy)ethanol

> <STRUCTURE_SMILES>
CCCOCCOCCO

> <STRUCTURE_SMILES_Desalt>
CCCOCCOCCO

> <Substance_modify_yyyymmdd>
20080429

$$$$
