68844-77-9
ChemmineR-0915142007XD

 34 38  0  0  0  0  0  0  0  0  1 V2000
    5.3229   -3.4205    0.0000 N   0  0  0  0  0  0  0  0  0  0  0  0
    4.4390   -4.4005    0.0000 C   0  0  0  0  0  0  0  0  0  0  0  0
    6.5528   -3.9778    0.0000 C   0  0  0  0  0  0  0  0  0  0  0  0
    5.0539   -2.1330    0.0000 C   0  0  0  0  0  0  0  0  0  0  0  0
    5.0923   -5.5727    0.0000 C   0  0  0  0  0  0  0  0  0  0  0  0
    3.1130   -4.4005    0.0000 C   0  0  0  0  0  0  0  0  0  0  0  0
    6.3990   -5.2845    0.0000 N   0  0  0  0  0  0  0  0  0  0  0  0
    7.7058   -3.2860    0.0000 N   0  0  0  0  0  0  0  0  0  0  0  0
    3.7856   -1.7103    0.0000 C   0  0  0  0  0  0  0  0  0  0  0  0
    4.4390   -6.7065    0.0000 C   0  0  0  0  0  0  0  0  0  0  0  0
    2.4597   -5.5727    0.0000 C   0  0  0  0  0  0  0  0  0  0  0  0
    8.8395   -3.9778    0.0000 C   0  0  0  0  0  0  0  0  0  0  0  0
    2.8056   -2.5942    0.0000 C   0  0  0  0  0  0  0  0  0  0  0  0
    3.5166   -0.4035    0.0000 C   0  0  0  0  0  0  0  0  0  0  0  0
    3.1130   -6.7065    0.0000 C   0  0  0  0  0  0  0  0  0  0  0  0
   10.0117   -3.2860    0.0000 C   0  0  0  0  0  0  0  0  0  0  0  0
    8.8395   -5.2845    0.0000 C   0  0  0  0  0  0  0  0  0  0  0  0
    1.5373   -2.1907    0.0000 C   0  0  0  0  0  0  0  0  0  0  0  0
    2.2483    0.0000    0.0000 C   0  0  0  0  0  0  0  0  0  0  0  0
   11.1455   -3.9778    0.0000 C   0  0  0  0  0  0  0  0  0  0  0  0
   10.0117   -5.9571    0.0000 C   0  0  0  0  0  0  0  0  0  0  0  0
    1.2491   -0.8840    0.0000 C   0  0  0  0  0  0  0  0  0  0  0  0
   11.1455   -5.2845    0.0000 N   0  0  0  0  0  0  0  0  0  0  0  0
    0.0000   -0.4804    0.0000 F   0  0  0  0  0  0  0  0  0  0  0  0
   12.2985   -5.9571    0.0000 C   0  0  0  0  0  0  0  0  0  0  0  0
   13.4514   -5.2845    0.0000 C   0  0  0  0  0  0  0  0  0  0  0  0
   14.6044   -5.9571    0.0000 C   0  0  0  0  0  0  0  0  0  0  0  0
   15.7574   -5.2845    0.0000 C   0  0  0  0  0  0  0  0  0  0  0  0
   14.6044   -7.3022    0.0000 C   0  0  0  0  0  0  0  0  0  0  0  0
   16.9104   -5.9571    0.0000 C   0  0  0  0  0  0  0  0  0  0  0  0
   15.7574   -7.9556    0.0000 C   0  0  0  0  0  0  0  0  0  0  0  0
   16.9104   -7.3022    0.0000 C   0  0  0  0  0  0  0  0  0  0  0  0
   18.0634   -7.9556    0.0000 O   0  0  0  0  0  0  0  0  0  0  0  0
   19.2163   -7.3022    0.0000 C   0  0  0  0  0  0  0  0  0  0  0  0
  1  2  1  0  0  0  0
  1  3  1  0  0  0  0
  1  4  1  0  0  0  0
  2  5  1  0  0  0  0
  2  6  2  0  0  0  0
  3  7  2  0  0  0  0
  3  8  1  0  0  0  0
  4  9  1  0  0  0  0
  5 10  2  0  0  0  0
  5  7  1  0  0  0  0
  6 11  1  0  0  0  0
  8 12  1  0  0  0  0
  9 13  1  0  0  0  0
  9 14  2  0  0  0  0
 10 15  1  0  0  0  0
 11 15  2  0  0  0  0
 12 16  1  0  0  0  0
 12 17  1  0  0  0  0
 13 18  2  0  0  0  0
 14 19  1  0  0  0  0
 16 20  1  0  0  0  0
 17 21  1  0  0  0  0
 18 22  1  0  0  0  0
 19 22  2  0  0  0  0
 20 23  1  0  0  0  0
 21 23  1  0  0  0  0
 22 24  1  0  0  0  0
 23 25  1  0  0  0  0
 25 26  1  0  0  0  0
 26 27  1  0  0  0  0
 27 28  1  0  0  0  0
 27 29  2  0  0  0  0
 28 30  2  0  0  0  0
 29 31  1  0  0  0  0
 30 32  1  0  0  0  0
 31 32  2  0  0  0  0
 32 33  1  0  0  0  0
 33 34  1  0  0  0  0
M  END
> <ID>
107

> <Formula>
C28H31FN4O

> <FW>
458.5703

> <DSSTox_CID>
110

> <DSSTox_RID>
75373

> <DSSTox_GSID>
20110

> <DSSTox_FileID_Sort>
57

> <TS_ChemName>
Astemizole

> <TS_ChemName_Synonyms>


> <TS_CASRN>
68844-77-9

> <CASRN_ChemName_Relationship>
primary

> <TS_Description>
single chemical compound

> <ChemNote>


> <STRUCTURE_Shown>
tested chemical

> <STRUCTURE_Formula>
C28H31FN4O

> <STRUCTURE_MW>
458.5703

> <STRUCTURE_ChemType>
defined organic

> <STRUCTURE_DefinedOrganicForm>
parent

> <STRUCTURE_IUPAC>
1-(4-fluorobenzyl)-N-{1-[2-(4-methoxyphenyl)ethyl]piperidin-4-yl}-1H-benzimidazol-2-amine

> <STRUCTURE_SMILES>
Fc1ccc(cc1)Cn4c5ccccc5nc4NC3CCN(CCc2ccc(OC)cc2)CC3

> <STRUCTURE_SMILES_Desalt>
Fc1ccc(cc1)Cn4c5ccccc5nc4NC3CCN(CCc2ccc(OC)cc2)CC3

> <Substance_modify_yyyymmdd>
20080429

$$$$
