68890-66-4
ChemmineR-0915142007XD

 22 21  0  0  0  0  0  0  0  0  1 V2000
    3.4492   -1.9867    0.0000 C   0  0  0  0  0  0  0  0  0  0  0  0
    3.4492   -3.3204    0.0000 C   0  0  0  0  0  0  0  0  0  0  0  0
    4.6081   -3.9826    0.0000 C   0  0  0  0  0  0  0  0  0  0  0  0
    5.7486   -3.3204    0.0000 C   0  0  0  0  0  0  0  0  0  0  0  0
    5.7486   -1.9867    0.0000 C   0  0  0  0  0  0  0  0  0  0  0  0
    6.8983   -1.3337    0.0000 C   0  0  0  0  0  0  0  0  0  0  0  0
    8.0572   -1.9867    0.0000 C   0  0  0  0  0  0  0  0  0  0  0  0
    8.0572   -3.3204    0.0000 C   0  0  0  0  0  0  0  0  0  0  0  0
    9.1978   -3.9826    0.0000 O   0  0  0  0  0  0  0  0  0  0  0  0
    6.8983   -3.9826    0.0000 N   0  0  0  0  0  0  0  0  0  0  0  0
    6.8983   -5.3163    0.0000 O   0  0  0  0  0  0  0  0  0  0  0  0
    6.8983    0.0000    0.0000 C   0  0  0  0  0  0  0  0  0  0  0  0
    2.2994   -3.9826    0.0000 C   0  0  0  0  0  0  0  0  0  0  0  0
    1.1589   -3.3204    0.0000 C   0  0  0  0  0  0  0  0  0  0  0  0
    0.4783   -4.4609    0.0000 C   0  0  0  0  0  0  0  0  0  0  0  0
    0.0000   -2.6490    0.0000 C   0  0  0  0  0  0  0  0  0  0  0  0
    1.8120   -2.1707    0.0000 C   0  0  0  0  0  0  0  0  0  0  0  0
    2.3454   -6.0337    0.0000 C   0  0  0  0  0  0  0  0  0  0  0  0
    3.5135   -6.6592    0.0000 C   0  0  0  0  0  0  0  0  0  0  0  0
    4.6357   -5.9509    0.0000 C   0  0  0  0  0  0  0  0  0  0  0  0
    5.8314   -6.5672    0.0000 O   0  0  0  0  0  0  0  0  0  0  0  0
    1.2049   -6.7420    0.0000 N   0  0  0  0  0  0  0  0  0  0  0  0
  1  2  1  0  0  0  0
  2  3  1  0  0  0  0
  2 13  1  0  0  0  0
  3  4  1  0  0  0  0
  4  5  2  0  0  0  0
  4 10  1  0  0  0  0
  5  6  1  0  0  0  0
  6  7  2  0  0  0  0
  6 12  1  0  0  0  0
  7  8  1  0  0  0  0
  8  9  2  0  0  0  0
  8 10  1  0  0  0  0
 10 11  1  0  0  0  0
 13 14  1  0  0  0  0
 14 15  1  0  0  0  0
 14 16  1  0  0  0  0
 14 17  1  0  0  0  0
 18 19  1  0  0  0  0
 18 22  1  0  0  0  0
 19 20  1  0  0  0  0
 20 21  1  0  0  0  0
M  END
> <ID>
11928

> <Formula>
C17H32N2O3

> <FW>
312.4476 (237.3379+75.1097)

> <DSSTox_CID>
26735

> <DSSTox_RID>
81864

> <DSSTox_GSID>
46735

> <DSSTox_FileID_Sort>
6545

> <TS_ChemName>
Piroctone olamine

> <TS_ChemName_Synonyms>


> <TS_CASRN>
68890-66-4

> <CASRN_ChemName_Relationship>
primary

> <TS_Description>
single chemical compound

> <ChemNote>
parent [50650-76-5]

> <STRUCTURE_Shown>
tested chemical

> <STRUCTURE_Formula>
C17H32N2O3

> <STRUCTURE_MW>
312.4476

> <STRUCTURE_ChemType>
defined organic

> <STRUCTURE_DefinedOrganicForm>
complex

> <STRUCTURE_IUPAC>
1-hydroxy-4-methyl-6-(2,4,4-trimethylpentyl)pyridin-2(1H)-one - 3-aminopropan-1-ol (1:1)

> <STRUCTURE_SMILES>
CC=1C=C(CC(C)CC(C)(C)C)N(O)C(=O)C=1.NCCCO

> <STRUCTURE_SMILES_Desalt>
CC=1C=C(CC(C)CC(C)(C)C)N(O)C(=O)C=1

> <Substance_modify_yyyymmdd>
20110804

$$$$
