689-11-2
ChemmineR-0915142007XD

  8  7  0  0  0  0  0  0  0  0  1 V2000
    1.1359   -1.3337    0.0000 C   0  0  0  0  0  0  0  0  0  0  0  0
    1.1359    0.0000    0.0000 O   0  0  0  0  0  0  0  0  0  0  0  0
    2.2902   -1.9867    0.0000 N   0  0  0  0  0  0  0  0  0  0  0  0
    0.0000   -1.9867    0.0000 N   0  0  0  0  0  0  0  0  0  0  0  0
    2.2902   -3.3204    0.0000 C   0  0  0  0  0  0  0  0  0  0  0  0
    3.4445   -3.9918    0.0000 C   0  0  0  0  0  0  0  0  0  0  0  0
    4.5989   -3.3204    0.0000 C   0  0  0  0  0  0  0  0  0  0  0  0
    1.1359   -3.9918    0.0000 C   0  0  0  0  0  0  0  0  0  0  0  0
  1  2  2  0  0  0  0
  1  3  1  0  0  0  0
  1  4  1  0  0  0  0
  3  5  1  0  0  0  0
  5  6  1  0  0  0  0
  5  8  1  0  0  0  0
  6  7  1  0  0  0  0
M  END
> <ID>
5057

> <Formula>
C5H12N2O

> <FW>
116.1616

> <DSSTox_CID>
7294

> <DSSTox_RID>
78392

> <DSSTox_GSID>
27294

> <DSSTox_FileID_Sort>
3075

> <TS_ChemName>
sec-Butylurea

> <TS_ChemName_Synonyms>
Urea, (1-methylpropyl)-

> <TS_CASRN>
689-11-2

> <CASRN_ChemName_Relationship>
primary

> <TS_Description>
single chemical compound

> <ChemNote>


> <STRUCTURE_Shown>
tested chemical

> <STRUCTURE_Formula>
C5H12N2O

> <STRUCTURE_MW>
116.1616

> <STRUCTURE_ChemType>
defined organic

> <STRUCTURE_DefinedOrganicForm>
parent

> <STRUCTURE_IUPAC>
1-butan-2-ylurea

> <STRUCTURE_SMILES>
CC(CC)NC(N)=O

> <STRUCTURE_SMILES_Desalt>
CC(CC)NC(N)=O

> <Substance_modify_yyyymmdd>
20080429

$$$$
