68937-41-7
ChemmineR-0915142007XD

 32 34  0  0  0  0  0  0  0  0  1 V2000
    6.9249   -6.6669    0.0000 P   0  0  0  0  0  0  0  0  0  0  0  0
    7.5766   -7.8074    0.0000 O   0  0  0  0  0  0  0  0  0  0  0  0
    8.0654   -6.0015    0.0000 O   0  0  0  0  0  0  0  0  0  0  0  0
    6.2459   -5.5127    0.0000 O   0  0  0  0  0  0  0  0  0  0  0  0
    5.7571   -7.3186    0.0000 O   0  0  0  0  0  0  0  0  0  0  0  0
    8.0654   -0.6653    0.0000 C   0  0  0  0  0  0  0  0  0  0  0  0
    9.2196    0.0000    0.0000 C   0  0  0  0  0  0  0  0  0  0  0  0
    9.2196   -2.6749    0.0000 C   0  0  0  0  0  0  0  0  0  0  0  0
    9.2196   -3.9920    0.0000 C   0  0  0  0  0  0  0  0  0  0  0  0
    8.0654   -1.9960    0.0000 C   0  0  0  0  0  0  0  0  0  0  0  0
    8.0654   -4.6709    0.0000 C   0  0  0  0  0  0  0  0  0  0  0  0
    6.9249   -2.6749    0.0000 C   0  0  0  0  0  0  0  0  0  0  0  0
    6.9249   -3.9920    0.0000 C   0  0  0  0  0  0  0  0  0  0  0  0
   12.8992   -7.8074    0.0000 C   0  0  0  0  0  0  0  0  0  0  0  0
   13.5781   -8.9752    0.0000 C   0  0  0  0  0  0  0  0  0  0  0  0
   10.9033   -8.9752    0.0000 C   0  0  0  0  0  0  0  0  0  0  0  0
    9.5726   -8.9752    0.0000 C   0  0  0  0  0  0  0  0  0  0  0  0
   11.5822   -7.8074    0.0000 C   0  0  0  0  0  0  0  0  0  0  0  0
    8.9208   -7.8074    0.0000 C   0  0  0  0  0  0  0  0  0  0  0  0
   10.9033   -6.6669    0.0000 C   0  0  0  0  0  0  0  0  0  0  0  0
    9.5726   -6.6669    0.0000 C   0  0  0  0  0  0  0  0  0  0  0  0
    1.1406   -4.6709    0.0000 C   0  0  0  0  0  0  0  0  0  0  0  0
    1.1406   -3.3266    0.0000 C   0  0  0  0  0  0  0  0  0  0  0  0
    3.4624   -4.6709    0.0000 C   0  0  0  0  0  0  0  0  0  0  0  0
    4.6030   -5.3226    0.0000 C   0  0  0  0  0  0  0  0  0  0  0  0
    2.2947   -5.3226    0.0000 C   0  0  0  0  0  0  0  0  0  0  0  0
    4.6030   -6.6669    0.0000 C   0  0  0  0  0  0  0  0  0  0  0  0
    2.2947   -6.6669    0.0000 C   0  0  0  0  0  0  0  0  0  0  0  0
    3.4624   -7.3186    0.0000 C   0  0  0  0  0  0  0  0  0  0  0  0
    0.0000   -5.3226    0.0000 C   0  0  0  0  0  0  0  0  0  0  0  0
    6.9249    0.0000    0.0000 C   0  0  0  0  0  0  0  0  0  0  0  0
   13.5781   -6.6669    0.0000 C   0  0  0  0  0  0  0  0  0  0  0  0
  1  2  1  0  0  0  0
  1  3  1  0  0  0  0
  1  4  2  0  0  0  0
  1  5  1  0  0  0  0
  2 19  1  0  0  0  0
  3 11  1  0  0  0  0
  5 27  1  0  0  0  0
  6  7  1  0  0  0  0
  6 10  1  0  0  0  0
  6 31  1  0  0  0  0
  8  9  1  0  0  0  0
  8 10  2  0  0  0  0
  9 11  2  0  0  0  0
 10 12  1  0  0  0  0
 11 13  1  0  0  0  0
 12 13  2  0  0  0  0
 14 15  1  0  0  0  0
 14 18  1  0  0  0  0
 14 32  1  0  0  0  0
 16 17  1  0  0  0  0
 16 18  2  0  0  0  0
 17 19  2  0  0  0  0
 18 20  1  0  0  0  0
 19 21  1  0  0  0  0
 20 21  2  0  0  0  0
 22 23  1  0  0  0  0
 22 26  1  0  0  0  0
 22 30  1  0  0  0  0
 24 25  1  0  0  0  0
 24 26  2  0  0  0  0
 25 27  2  0  0  0  0
 26 28  1  0  0  0  0
 27 29  1  0  0  0  0
 28 29  2  0  0  0  0
M  END
> <ID>
5734

> <Formula>
C27H33O4P

> <FW>
452.5223

> <DSSTox_CID>
8880

> <DSSTox_RID>
78659

> <DSSTox_GSID>
28880

> <DSSTox_FileID_Sort>
3341

> <TS_ChemName>
Phenol, isopropylated, phosphate (3:1)

> <TS_ChemName_Synonyms>


> <TS_CASRN>
68937-41-7

> <CASRN_ChemName_Relationship>
primary

> <TS_Description>
single chemical compound

> <ChemNote>


> <STRUCTURE_Shown>
tested chemical

> <STRUCTURE_Formula>
C27H33O4P

> <STRUCTURE_MW>
452.5223

> <STRUCTURE_ChemType>
defined organic

> <STRUCTURE_DefinedOrganicForm>
parent

> <STRUCTURE_IUPAC>
tris[4-(propan-2-yl)phenyl] phosphate

> <STRUCTURE_SMILES>
CC(C)c1ccc(cc1)OP(=O)(Oc2ccc(cc2)C(C)C)Oc3ccc(cc3)C(C)C

> <STRUCTURE_SMILES_Desalt>
CC(C)c1ccc(cc1)OP(=O)(Oc2ccc(cc2)C(C)C)Oc3ccc(cc3)C(C)C

> <Substance_modify_yyyymmdd>
20080429

$$$$
