6893-26-1
ChemmineR-0915142007XD

 11 10  0  0  1  0  0  0  0  0  1 V2000
    3.9791   -0.9993    0.0000 H   0  0  0  0  0  0  0  0  0  0  0  0
    5.3074   -2.3276    0.0000 C   0  0  0  0  0  0  0  0  0  0  0  0
    0.6761   -1.1548    0.0000 C   0  0  0  0  0  0  0  0  0  0  0  0
    5.9836   -1.1728    0.0000 O   0  0  0  0  0  0  0  0  0  0  0  0
    0.0000   -2.3097    0.0000 O   0  0  0  0  0  0  0  0  0  0  0  0
    3.9791   -2.3097    0.0000 C   0  0  0  0  0  0  0  0  0  0  0  0
    5.9836   -3.4824    0.0000 O   0  0  0  0  0  0  0  0  0  0  0  0
    3.9791   -3.6440    0.0000 N   0  0  0  0  0  0  0  0  0  0  0  0
    0.0000    0.0000    0.0000 O   0  0  0  0  0  0  0  0  0  0  0  0
    2.0045   -1.1548    0.0000 C   0  0  0  0  0  0  0  0  0  0  0  0
    2.6627   -2.3097    0.0000 C   0  0  0  0  0  0  0  0  0  0  0  0
  6  1  1  1  0  0  0
  2  4  2  0  0  0  0
  6  2  1  6  0  0  0
  2  7  1  0  0  0  0
  3 10  1  0  0  0  0
  3  5  2  0  0  0  0
  3  9  1  0  0  0  0
  6  8  1  1  0  0  0
  6 11  1  6  0  0  0
 10 11  1  0  0  0  0
M  END
> <ID>
13669

> <Formula>
C5H9NO4

> <FW>
147.1293

> <DSSTox_CID>
28601

> <DSSTox_RID>
82871

> <DSSTox_GSID>
48675

> <DSSTox_FileID_Sort>
7548

> <TS_ChemName>
D-Glutamic acid

> <TS_ChemName_Synonyms>


> <TS_CASRN>
6893-26-1

> <CASRN_ChemName_Relationship>
primary

> <TS_Description>
single chemical compound

> <ChemNote>


> <STRUCTURE_Shown>
tested chemical

> <STRUCTURE_Formula>
C5H9NO4

> <STRUCTURE_MW>
147.1293

> <STRUCTURE_ChemType>
defined organic

> <STRUCTURE_DefinedOrganicForm>
parent

> <STRUCTURE_IUPAC>
D-glutamic acid

> <STRUCTURE_SMILES>
OC(=O)CC[C@@H](N)C(=O)O

> <STRUCTURE_SMILES_Desalt>
OC(=O)CC[C@@H](N)C(=O)O

> <Substance_modify_yyyymmdd>
20111204

$$$$
