68959-20-6
ChemmineR-0915142007XD

 33 31  0  0  0  0  0  0  0  0  2 V2000
   15.7581   -3.8404    0.0000 Si   0  0  0  0  0  0  0  0  0  0  0  0
   14.4960   -4.2550    0.0000 C    0  0  0  0  0  0  0  0  0  0  0  0
   17.0202   -3.4437    0.0000 O    0  0  0  0  0  0  0  0  0  0  0  0
   16.1547   -5.1205    0.0000 O    0  0  0  0  0  0  0  0  0  0  0  0
   15.3614   -2.5783    0.0000 O    0  0  0  0  0  0  0  0  0  0  0  0
   13.5044   -3.3716    0.0000 C    0  0  0  0  0  0  0  0  0  0  0  0
   18.0298   -4.3091    0.0000 C    0  0  0  0  0  0  0  0  0  0  0  0
   15.2532   -6.1121    0.0000 C    0  0  0  0  0  0  0  0  0  0  0  0
   16.2449   -1.6047    0.0000 C    0  0  0  0  0  0  0  0  0  0  0  0
   12.2423   -3.7682    0.0000 C    0  0  0  0  0  0  0  0  0  0  0  0
   11.2506   -2.8667    0.0000 N    0  3  0  0  0  0  0  0  0  0  0  0
   10.3491   -3.8404    0.0000 C    0  0  0  0  0  0  0  0  0  0  0  0
   10.2770   -1.9653    0.0000 C    0  0  0  0  0  0  0  0  0  0  0  0
   12.1521   -1.8751    0.0000 C    0  0  0  0  0  0  0  0  0  0  0  0
    9.0510   -3.5519    0.0000 C    0  0  0  0  0  0  0  0  0  0  0  0
    9.0149   -2.3799    0.0000 C    0  0  0  0  0  0  0  0  0  0  0  0
    8.1495   -4.5435    0.0000 C    0  0  0  0  0  0  0  0  0  0  0  0
    8.0233   -1.4784    0.0000 C    0  0  0  0  0  0  0  0  0  0  0  0
    6.8513   -4.2550    0.0000 C    0  0  0  0  0  0  0  0  0  0  0  0
    6.7432   -1.8751    0.0000 C    0  0  0  0  0  0  0  0  0  0  0  0
    5.9679   -5.2467    0.0000 C    0  0  0  0  0  0  0  0  0  0  0  0
    5.7696   -0.9736    0.0000 C    0  0  0  0  0  0  0  0  0  0  0  0
    4.6697   -4.9762    0.0000 C    0  0  0  0  0  0  0  0  0  0  0  0
    4.5075   -1.3883    0.0000 C    0  0  0  0  0  0  0  0  0  0  0  0
    3.7682   -5.9498    0.0000 C    0  0  0  0  0  0  0  0  0  0  0  0
    3.5338   -0.5048    0.0000 C    0  0  0  0  0  0  0  0  0  0  0  0
    2.4701   -5.6614    0.0000 C    0  0  0  0  0  0  0  0  0  0  0  0
    2.2537   -0.9015    0.0000 C    0  0  0  0  0  0  0  0  0  0  0  0
    1.5686   -6.6350    0.0000 C    0  0  0  0  0  0  0  0  0  0  0  0
    1.2621    0.0000    0.0000 C    0  0  0  0  0  0  0  0  0  0  0  0
    0.2704   -6.3645    0.0000 C    0  0  0  0  0  0  0  0  0  0  0  0
    0.0000   -0.3967    0.0000 C    0  0  0  0  0  0  0  0  0  0  0  0
   10.8720   -0.2704    0.0000 Cl   0  5  0  0  0  0  0  0  0  0  0  0
  1  2  1  0  0  0  0
  1  3  1  0  0  0  0
  1  4  1  0  0  0  0
  1  5  1  0  0  0  0
  2  6  1  0  0  0  0
  3  7  1  0  0  0  0
  4  8  1  0  0  0  0
  5  9  1  0  0  0  0
  6 10  1  0  0  0  0
 10 11  1  0  0  0  0
 11 12  1  0  0  0  0
 11 13  1  0  0  0  0
 11 14  1  0  0  0  0
 12 15  1  0  0  0  0
 13 16  1  0  0  0  0
 15 17  1  0  0  0  0
 16 18  1  0  0  0  0
 17 19  1  0  0  0  0
 18 20  1  0  0  0  0
 19 21  1  0  0  0  0
 20 22  1  0  0  0  0
 21 23  1  0  0  0  0
 22 24  1  0  0  0  0
 23 25  1  0  0  0  0
 24 26  1  0  0  0  0
 25 27  1  0  0  0  0
 26 28  1  0  0  0  0
 27 29  1  0  0  0  0
 28 30  1  0  0  0  0
 29 31  1  0  0  0  0
 30 32  1  0  0  0  0
M  END
> <ID>
7044

> <Formula>
C27H60ClNO3Si

> <FW>
510.3087 (474.8552+35.4535)

> <DSSTox_CID>
15589

> <DSSTox_RID>
79262

> <DSSTox_GSID>
35589

> <DSSTox_FileID_Sort>
3944

> <TS_ChemName>
N,N-Didecyl-N-methyl-3-(trimethoxysilyl)propanaminium chloride

> <TS_ChemName_Synonyms>


> <TS_CASRN>
68959-20-6

> <CASRN_ChemName_Relationship>
primary

> <TS_Description>
single chemical compound

> <ChemNote>
ammonium

> <STRUCTURE_Shown>
tested chemical

> <STRUCTURE_Formula>
C27H60ClNO3Si

> <STRUCTURE_MW>
510.3087

> <STRUCTURE_ChemType>
organometallic

> <STRUCTURE_DefinedOrganicForm>


> <STRUCTURE_IUPAC>
N-decyl-N-methyl-N-[3-(trimethoxysilyl)propyl]decan-1-aminium chloride

> <STRUCTURE_SMILES>
[Cl-].CO[Si](CCC[N+](C)(CCCCCCCCCC)CCCCCCCCCC)(OC)OC

> <STRUCTURE_SMILES_Desalt>
CO[Si](CCC[N+](C)(CCCCCCCCCC)CCCCCCCCCC)(OC)OC

> <Substance_modify_yyyymmdd>
20080429

$$$$
