69-25-0
ChemmineR-0915142007XD

 83 85  0  0  1  0  0  0  0  0  1 V2000
    5.7736  -11.5726    0.0000 C   0  0  0  0  0  0  0  0  0  0  0  0
    5.7736  -10.2305    0.0000 O   0  0  0  0  0  0  0  0  0  0  0  0
    4.6088  -12.2310    0.0000 C   0  0  0  0  0  0  0  0  0  0  0  0
    4.6088  -13.5731    0.0000 N   0  0  0  0  0  0  0  0  0  0  0  0
    1.1649  -11.5726    0.0000 S   0  0  0  0  0  0  0  0  0  0  0  0
    3.4692  -11.5726    0.0000 C   0  0  0  0  0  0  0  0  0  0  0  0
    2.3044  -12.2310    0.0000 C   0  0  0  0  0  0  0  0  0  0  0  0
    0.0000  -12.2310    0.0000 C   0  0  0  0  0  0  0  0  0  0  0  0
    6.9132  -12.2310    0.0000 N   0  0  0  0  0  0  0  0  0  0  0  0
    3.4692  -14.2315    0.0000 C   0  0  0  0  0  0  0  0  0  0  0  0
    3.4692  -15.5483    0.0000 C   0  0  0  0  0  0  0  0  0  0  0  0
    2.3044  -13.5731    0.0000 O   0  0  0  0  0  0  0  0  0  0  0  0
    2.3044  -16.2320    0.0000 C   0  0  0  0  0  0  0  0  0  0  0  0
    4.6088  -16.2320    0.0000 N   0  0  0  0  0  0  0  0  0  0  0  0
    2.3044  -17.5488    0.0000 C   0  0  0  0  0  0  0  0  0  0  0  0
    1.1649  -18.2072    0.0000 C   0  0  0  0  0  0  0  0  0  0  0  0
    3.4692  -18.2072    0.0000 C   0  0  0  0  0  0  0  0  0  0  0  0
    5.7736  -15.5483    0.0000 C   0  0  0  0  0  0  0  0  0  0  0  0
    5.7736  -14.2315    0.0000 O   0  0  0  0  0  0  0  0  0  0  0  0
    8.0780  -15.5483    0.0000 N   0  0  0  0  0  0  0  0  0  0  0  0
    6.9132  -16.2320    0.0000 C   0  0  0  0  0  0  0  0  0  0  0  0
    9.1922  -16.2320    0.0000 C   0  0  0  0  0  0  0  0  0  0  0  0
   10.3571  -15.5483    0.0000 C   0  0  0  0  0  0  0  0  0  0  0  0
    9.1922  -17.5488    0.0000 O   0  0  0  0  0  0  0  0  0  0  0  0
   10.3571  -14.2315    0.0000 N   0  0  0  0  0  0  0  0  0  0  0  0
   11.4966  -16.2320    0.0000 C   0  0  0  0  0  0  0  0  0  0  0  0
   12.6615  -15.5483    0.0000 C   0  0  0  0  0  0  0  0  0  0  0  0
   11.4966  -17.5488    0.0000 C   0  0  0  0  0  0  0  0  0  0  0  0
   13.8264  -16.2320    0.0000 C   0  0  0  0  0  0  0  0  0  0  0  0
   11.4966  -13.5731    0.0000 C   0  0  0  0  0  0  0  0  0  0  0  0
   11.4966  -12.2310    0.0000 C   0  0  0  0  0  0  0  0  0  0  0  0
   12.6615  -14.2315    0.0000 O   0  0  0  0  0  0  0  0  0  0  0  0
   10.3571  -11.5726    0.0000 C   0  0  0  0  0  0  0  0  0  0  0  0
   12.6615  -11.5726    0.0000 N   0  0  0  0  0  0  0  0  0  0  0  0
   10.3571  -10.2305    0.0000 C   0  0  0  0  0  0  0  0  0  0  0  0
    9.1922   -9.5721    0.0000 C   0  0  0  0  0  0  0  0  0  0  0  0
   11.4966   -9.5721    0.0000 C   0  0  0  0  0  0  0  0  0  0  0  0
   11.4966   -8.2553    0.0000 C   0  0  0  0  0  0  0  0  0  0  0  0
    9.1922   -8.2553    0.0000 C   0  0  0  0  0  0  0  0  0  0  0  0
   10.3571   -7.5716    0.0000 C   0  0  0  0  0  0  0  0  0  0  0  0
   13.8264  -12.2310    0.0000 C   0  0  0  0  0  0  0  0  0  0  0  0
   13.8264  -13.5731    0.0000 O   0  0  0  0  0  0  0  0  0  0  0  0
   14.9659  -11.5726    0.0000 C   0  0  0  0  0  0  0  0  0  0  0  0
   14.9659  -10.2305    0.0000 N   0  0  0  0  0  0  0  0  0  0  0  0
   16.1307  -12.2310    0.0000 C   0  0  0  0  0  0  0  0  0  0  0  0
   13.8264   -5.5964    0.0000 O   0  0  0  0  0  0  0  0  0  0  0  0
   17.2703   -7.5716    0.0000 N   0  0  0  0  0  0  0  0  0  0  0  0
   16.1307   -5.5964    0.0000 O   0  0  0  0  0  0  0  0  0  0  0  0
   17.2703  -10.2305    0.0000 O   0  0  0  0  0  0  0  0  0  0  0  0
   16.1307   -8.2553    0.0000 C   0  0  0  0  0  0  0  0  0  0  0  0
   14.9659   -6.2548    0.0000 C   0  0  0  0  0  0  0  0  0  0  0  0
   16.1307   -9.5721    0.0000 C   0  0  0  0  0  0  0  0  0  0  0  0
   14.9659   -7.5716    0.0000 C   0  0  0  0  0  0  0  0  0  0  0  0
   18.4098   -8.2553    0.0000 C   0  0  0  0  0  0  0  0  0  0  0  0
   18.4098   -9.5721    0.0000 O   0  0  0  0  0  0  0  0  0  0  0  0
   19.5493   -7.5716    0.0000 C   0  0  0  0  0  0  0  0  0  0  0  0
   19.5493   -6.2548    0.0000 N   0  0  0  0  0  0  0  0  0  0  0  0
   25.3230   -8.2553    0.0000 N   0  0  0  0  0  0  0  0  0  0  0  0
   24.1581   -7.5716    0.0000 C   0  0  0  0  0  0  0  0  0  0  0  0
   20.7142   -8.2553    0.0000 C   0  0  0  0  0  0  0  0  0  0  0  0
   23.0186   -8.2553    0.0000 C   0  0  0  0  0  0  0  0  0  0  0  0
   21.8537   -7.5716    0.0000 C   0  0  0  0  0  0  0  0  0  0  0  0
   20.7142   -5.5964    0.0000 C   0  0  0  0  0  0  0  0  0  0  0  0
   20.7142   -4.2543    0.0000 C   0  0  0  0  0  0  0  0  0  0  0  0
   21.8537   -6.2548    0.0000 O   0  0  0  0  0  0  0  0  0  0  0  0
   19.5493   -3.5959    0.0000 N   0  0  0  0  0  0  0  0  0  0  0  0
   21.8537   -3.5959    0.0000 C   0  0  0  0  0  0  0  0  0  0  0  0
   21.8537   -2.2537    0.0000 O   0  0  0  0  0  0  0  0  0  0  0  0
   19.5493   -2.2537    0.0000 C   0  0  0  0  0  0  0  0  0  0  0  0
   20.7142   -1.6207    0.0000 O   0  0  0  0  0  0  0  0  0  0  0  0
   18.4351   -1.6207    0.0000 C   0  0  0  0  0  0  0  0  0  0  0  0
   17.2196   -2.1525    0.0000 N   0  0  0  0  0  0  0  0  0  0  0  0
   16.3080   -1.1649    0.0000 C   0  0  0  0  0  0  0  0  0  0  0  0
   16.9917    0.0000    0.0000 C   0  0  0  0  0  0  0  0  0  0  0  0
   18.2832   -0.2786    0.0000 C   0  0  0  0  0  0  0  0  0  0  0  0
   16.9158   -3.4439    0.0000 C   0  0  0  0  0  0  0  0  0  0  0  0
   17.9034   -4.3302    0.0000 O   0  0  0  0  0  0  0  0  0  0  0  0
   15.6496   -3.8491    0.0000 C   0  0  0  0  0  0  0  0  0  0  0  0
   14.5860   -3.0894    0.0000 N   0  0  0  0  0  0  0  0  0  0  0  0
   13.5225   -3.8491    0.0000 C   0  0  0  0  0  0  0  0  0  0  0  0
   13.9276   -5.1152    0.0000 C   0  0  0  0  0  0  0  0  0  0  0  0
   15.2444   -5.1152    0.0000 C   0  0  0  0  0  0  0  0  0  0  0  0
   12.2563   -3.4439    0.0000 O   0  0  0  0  0  0  0  0  0  0  0  0
  1  2  2  0  0  0  0
  1  3  1  0  0  0  0
  1  9  1  0  0  0  0
  3  4  1  1  0  0  0
  3  6  1  0  0  0  0
  4 10  1  0  0  0  0
  5  7  1  0  0  0  0
  5  8  1  0  0  0  0
  6  7  1  0  0  0  0
 10 11  1  0  0  0  0
 10 12  2  0  0  0  0
 11 13  1  0  0  0  0
 11 14  1  1  0  0  0
 13 15  1  0  0  0  0
 14 18  1  0  0  0  0
 15 16  1  0  0  0  0
 15 17  1  0  0  0  0
 18 19  2  0  0  0  0
 18 21  1  0  0  0  0
 20 21  1  0  0  0  0
 20 22  1  0  0  0  0
 22 23  1  0  0  0  0
 22 24  2  0  0  0  0
 23 25  1  1  0  0  0
 23 26  1  0  0  0  0
 25 30  1  0  0  0  0
 26 27  1  0  0  0  0
 26 28  1  6  0  0  0
 27 29  1  0  0  0  0
 30 31  1  0  0  0  0
 30 32  2  0  0  0  0
 31 33  1  0  0  0  0
 31 34  1  6  0  0  0
 33 35  1  0  0  0  0
 34 41  1  0  0  0  0
 35 36  2  0  0  0  0
 35 37  1  0  0  0  0
 36 39  1  0  0  0  0
 37 38  2  0  0  0  0
 38 40  1  0  0  0  0
 39 40  2  0  0  0  0
 41 42  2  0  0  0  0
 41 43  1  0  0  0  0
 43 44  1  1  0  0  0
 43 45  1  0  0  0  0
 44 52  1  0  0  0  0
 46 51  1  0  0  0  0
 50 47  1  6  0  0  0
 47 54  1  0  0  0  0
 48 51  2  0  0  0  0
 49 52  2  0  0  0  0
 50 52  1  0  0  0  0
 50 53  1  0  0  0  0
 51 53  1  0  0  0  0
 54 55  2  0  0  0  0
 54 56  1  0  0  0  0
 56 57  1  1  0  0  0
 56 60  1  0  0  0  0
 57 63  1  0  0  0  0
 58 59  1  0  0  0  0
 59 61  1  0  0  0  0
 60 62  1  0  0  0  0
 61 62  1  0  0  0  0
 63 64  1  0  0  0  0
 63 65  2  0  0  0  0
 64 66  1  1  0  0  0
 64 67  1  0  0  0  0
 66 69  1  0  0  0  0
 67 68  1  0  0  0  0
 69 70  2  0  0  0  0
 69 71  1  0  0  0  0
 71 72  1  1  0  0  0
 71 75  1  0  0  0  0
 72 73  1  0  0  0  0
 72 76  1  0  0  0  0
 73 74  1  0  0  0  0
 74 75  1  0  0  0  0
 76 77  2  0  0  0  0
 76 78  1  0  0  0  0
 78 79  1  6  0  0  0
 78 82  1  0  0  0  0
 79 80  1  0  0  0  0
 80 81  1  0  0  0  0
 80 83  2  0  0  0  0
 81 82  1  0  0  0  0
M  END
> <ID>
12085

> <Formula>
C54H85N13O15S

> <FW>
1188.3958

> <DSSTox_CID>
26926

> <DSSTox_RID>
82022

> <DSSTox_GSID>
46926

> <DSSTox_FileID_Sort>
6703

> <TS_ChemName>
Eledoisin

> <TS_ChemName_Synonyms>


> <TS_CASRN>
69-25-0

> <CASRN_ChemName_Relationship>
primary

> <TS_Description>
single chemical compound

> <ChemNote>
stereochem

> <STRUCTURE_Shown>
tested chemical

> <STRUCTURE_Formula>
C54H85N13O15S

> <STRUCTURE_MW>
1188.3958

> <STRUCTURE_ChemType>
defined organic

> <STRUCTURE_DefinedOrganicForm>
parent

> <STRUCTURE_IUPAC>
5-oxo-L-prolyl-L-prolyl-L-seryl-L-lysyl-L-alpha-aspartyl-L-alanyl-L-phenylalanyl-L-isoleucylglycyl-L-leucyl-L-methioninamide

> <STRUCTURE_SMILES>
O=C(N[C@@H](CO)C(=O)N[C@@H](CCCCN)C(=O)N[C@@H](CC(=O)O)C(=O)N[C@@H](C)C(=O)N[C@@H](Cc1ccccc1)C(=O)N[C@H](C(=O)NCC(=O)N[C@@H](CC(C)C)C(=O)N[C@@H](CCSC)C(N)=O)[C@@H](C)CC)[C@@H]3CCCN3C(=O)[C@@H]2CCC(=O)N2

> <STRUCTURE_SMILES_Desalt>
O=C(N[C@@H](CO)C(=O)N[C@@H](CCCCN)C(=O)N[C@@H](CC(=O)O)C(=O)N[C@@H](C)C(=O)N[C@@H](Cc1ccccc1)C(=O)N[C@H](C(=O)NCC(=O)N[C@@H](CC(C)C)C(=O)N[C@@H](CCSC)C(N)=O)[C@@H](C)CC)[C@@H]3CCCN3C(=O)[C@@H]2CCC(=O)N2

> <Substance_modify_yyyymmdd>
20110725

$$$$
