69-23-8
ChemmineR-0915142007XD

 30 33  0  0  0  0  0  0  0  0  1 V2000
    7.3181   -1.1491    0.0000 C   0  0  0  0  0  0  0  0  0  0  0  0
    7.9834    0.0000    0.0000 C   0  0  0  0  0  0  0  0  0  0  0  0
    9.3139    0.0000    0.0000 C   0  0  0  0  0  0  0  0  0  0  0  0
    9.9792   -1.1491    0.0000 C   0  0  0  0  0  0  0  0  0  0  0  0
    9.3139   -2.2982    0.0000 C   0  0  0  0  0  0  0  0  0  0  0  0
    7.9834   -2.2982    0.0000 C   0  0  0  0  0  0  0  0  0  0  0  0
    9.9792   -3.4474    0.0000 N   0  0  0  0  0  0  0  0  0  0  0  0
    9.3139   -4.6116    0.0000 C   0  0  0  0  0  0  0  0  0  0  0  0
    7.9834   -4.6116    0.0000 C   0  0  0  0  0  0  0  0  0  0  0  0
    7.3181   -5.7607    0.0000 C   0  0  0  0  0  0  0  0  0  0  0  0
    5.9875   -5.7607    0.0000 N   0  0  0  0  0  0  0  0  0  0  0  0
    5.3222   -6.9098    0.0000 C   0  0  0  0  0  0  0  0  0  0  0  0
    3.9917   -6.9098    0.0000 C   0  0  0  0  0  0  0  0  0  0  0  0
    3.3264   -5.7607    0.0000 N   0  0  0  0  0  0  0  0  0  0  0  0
    1.9958   -5.7607    0.0000 C   0  0  0  0  0  0  0  0  0  0  0  0
    1.3306   -6.9098    0.0000 C   0  0  0  0  0  0  0  0  0  0  0  0
    0.0000   -6.9098    0.0000 O   0  0  0  0  0  0  0  0  0  0  0  0
    3.9917   -4.6116    0.0000 C   0  0  0  0  0  0  0  0  0  0  0  0
    5.3222   -4.6116    0.0000 C   0  0  0  0  0  0  0  0  0  0  0  0
   11.3098   -3.4474    0.0000 C   0  0  0  0  0  0  0  0  0  0  0  0
   11.9750   -2.2982    0.0000 C   0  0  0  0  0  0  0  0  0  0  0  0
   11.3098   -1.1491    0.0000 S   0  0  0  0  0  0  0  0  0  0  0  0
   13.3056   -2.2982    0.0000 C   0  0  0  0  0  0  0  0  0  0  0  0
   13.9709   -3.4474    0.0000 C   0  0  0  0  0  0  0  0  0  0  0  0
   13.3056   -4.6116    0.0000 C   0  0  0  0  0  0  0  0  0  0  0  0
   13.9709   -5.7607    0.0000 C   0  0  0  0  0  0  0  0  0  0  0  0
   12.8218   -6.4260    0.0000 F   0  0  0  0  0  0  0  0  0  0  0  0
   15.1200   -5.0954    0.0000 F   0  0  0  0  0  0  0  0  0  0  0  0
   14.6362   -6.9098    0.0000 F   0  0  0  0  0  0  0  0  0  0  0  0
   11.9750   -4.6116    0.0000 C   0  0  0  0  0  0  0  0  0  0  0  0
  1  2  2  0  0  0  0
  1  6  1  0  0  0  0
  2  3  1  0  0  0  0
  3  4  2  0  0  0  0
  4  5  1  0  0  0  0
  4 22  1  0  0  0  0
  5  6  2  0  0  0  0
  5  7  1  0  0  0  0
  7  8  1  0  0  0  0
  7 20  1  0  0  0  0
  8  9  1  0  0  0  0
  9 10  1  0  0  0  0
 10 11  1  0  0  0  0
 11 12  1  0  0  0  0
 11 19  1  0  0  0  0
 12 13  1  0  0  0  0
 13 14  1  0  0  0  0
 14 15  1  0  0  0  0
 14 18  1  0  0  0  0
 15 16  1  0  0  0  0
 16 17  1  0  0  0  0
 18 19  1  0  0  0  0
 20 21  2  0  0  0  0
 20 30  1  0  0  0  0
 21 22  1  0  0  0  0
 21 23  1  0  0  0  0
 23 24  2  0  0  0  0
 24 25  1  0  0  0  0
 25 26  1  0  0  0  0
 25 30  2  0  0  0  0
 26 27  1  0  0  0  0
 26 28  1  0  0  0  0
 26 29  1  0  0  0  0
M  END
> <ID>
2759

> <Formula>
C22H26F3N3OS

> <FW>
437.5215

> <DSSTox_CID>
3068

> <DSSTox_RID>
76862

> <DSSTox_GSID>
23068

> <DSSTox_FileID_Sort>
1546

> <TS_ChemName>
Fluphenazine

> <TS_ChemName_Synonyms>


> <TS_CASRN>
69-23-8

> <CASRN_ChemName_Relationship>
primary

> <TS_Description>
single chemical compound

> <ChemNote>


> <STRUCTURE_Shown>
tested chemical

> <STRUCTURE_Formula>
C22H26F3N3OS

> <STRUCTURE_MW>
437.5215

> <STRUCTURE_ChemType>
defined organic

> <STRUCTURE_DefinedOrganicForm>
parent

> <STRUCTURE_IUPAC>
2-(4-{3-[2-(trifluoromethyl)-10H-phenothiazin-10-yl]propyl}piperazin-1-yl)ethanol

> <STRUCTURE_SMILES>
FC(F)(F)c2cc3N(CCCN1CCN(CCO)CC1)c4ccccc4Sc3cc2

> <STRUCTURE_SMILES_Desalt>
FC(F)(F)c2cc3N(CCCN1CCN(CCO)CC1)c4ccccc4Sc3cc2

> <Substance_modify_yyyymmdd>
20080429

$$$$
