69-22-7
ChemmineR-0915142007XD

 27 27  0  0  0  0  0  0  0  0  1 V2000
   11.3893   -3.5904    0.0000 C   0  0  0  0  0  0  0  0  0  0  0  0
   12.7136   -3.5904    0.0000 C   0  0  0  0  0  0  0  0  0  0  0  0
   10.0355   -3.5904    0.0000 C   0  0  0  0  0  0  0  0  0  0  0  0
   11.3893   -4.9295    0.0000 C   0  0  0  0  0  0  0  0  0  0  0  0
   10.2268   -5.5916    0.0000 O   0  0  0  0  0  0  0  0  0  0  0  0
    9.3734   -2.4574    0.0000 C   0  0  0  0  0  0  0  0  0  0  0  0
    8.0343   -2.4574    0.0000 O   0  0  0  0  0  0  0  0  0  0  0  0
   10.0355   -1.2802    0.0000 O   0  0  0  0  0  0  0  0  0  0  0  0
   13.3758   -2.4427    0.0000 C   0  0  0  0  0  0  0  0  0  0  0  0
   12.6989   -1.2802    0.0000 O   0  0  0  0  0  0  0  0  0  0  0  0
   14.7148   -2.4427    0.0000 O   0  0  0  0  0  0  0  0  0  0  0  0
   11.3893   -2.2661    0.0000 O   0  0  0  0  0  0  0  0  0  0  0  0
   12.5370   -5.5916    0.0000 O   0  0  0  0  0  0  0  0  0  0  0  0
    3.4433   -3.3403    0.0000 C   0  0  0  0  0  0  0  0  0  0  0  0
    3.4433   -2.0012    0.0000 C   0  0  0  0  0  0  0  0  0  0  0  0
    2.2955   -4.0024    0.0000 N   0  0  0  0  0  0  0  0  0  0  0  0
    1.1478   -1.9865    0.0000 N   0  0  0  0  0  0  0  0  0  0  0  0
    1.1478   -3.3550    0.0000 C   0  0  0  0  0  0  0  0  0  0  0  0
    2.2955   -1.3243    0.0000 C   0  0  0  0  0  0  0  0  0  0  0  0
    4.7087   -3.7229    0.0000 N   0  0  0  0  0  0  0  0  0  0  0  0
    4.7087   -1.6039    0.0000 N   0  0  0  0  0  0  0  0  0  0  0  0
    5.4298   -2.6487    0.0000 C   0  0  0  0  0  0  0  0  0  0  0  0
    0.0000   -4.0466    0.0000 O   0  0  0  0  0  0  0  0  0  0  0  0
    2.2955    0.0000    0.0000 O   0  0  0  0  0  0  0  0  0  0  0  0
    2.2955   -5.3415    0.0000 C   0  0  0  0  0  0  0  0  0  0  0  0
    0.0000   -1.2949    0.0000 C   0  0  0  0  0  0  0  0  0  0  0  0
    5.1649   -0.3532    0.0000 C   0  0  0  0  0  0  0  0  0  0  0  0
  1  4  1  0  0  0  0
  1  3  1  0  0  0  0
  1 12  1  0  0  0  0
  1  2  1  0  0  0  0
  2  9  1  0  0  0  0
  3  6  1  0  0  0  0
  4  5  1  0  0  0  0
  4 13  2  0  0  0  0
  6  7  1  0  0  0  0
  6  8  2  0  0  0  0
  9 10  2  0  0  0  0
  9 11  1  0  0  0  0
 14 15  2  0  0  0  0
 14 16  1  0  0  0  0
 14 20  1  0  0  0  0
 15 19  1  0  0  0  0
 15 21  1  0  0  0  0
 16 18  1  0  0  0  0
 16 25  1  0  0  0  0
 17 18  1  0  0  0  0
 17 26  1  0  0  0  0
 17 19  1  0  0  0  0
 18 23  2  0  0  0  0
 19 24  2  0  0  0  0
 20 22  2  0  0  0  0
 21 27  1  0  0  0  0
 21 22  1  0  0  0  0
M  END
> <ID>
12097

> <Formula>
C14H18N4O9

> <FW>
386.3141 (192.1235+194.1906)

> <DSSTox_CID>
26938

> <DSSTox_RID>
82023

> <DSSTox_GSID>
46938

> <DSSTox_FileID_Sort>
6704

> <TS_ChemName>
Caffeine, citrated

> <TS_ChemName_Synonyms>


> <TS_CASRN>
69-22-7

> <CASRN_ChemName_Relationship>
primary

> <TS_Description>
single chemical compound

> <ChemNote>
parent [58-08-2]

> <STRUCTURE_Shown>
tested chemical

> <STRUCTURE_Formula>
C14H18N4O9

> <STRUCTURE_MW>
386.3141

> <STRUCTURE_ChemType>
defined organic

> <STRUCTURE_DefinedOrganicForm>
salt

> <STRUCTURE_IUPAC>
1,3,7-trimethyl-3,7-dihydro-1H-purine-2,6-dione 2-hydroxypropane-1,2,3-tricarboxylate (1:1)

> <STRUCTURE_SMILES>
O=C(O)C(O)(CC(=O)O)CC(=O)O.O=C2c1n(C)cnc1N(C)C(=O)N2C

> <STRUCTURE_SMILES_Desalt>
O=C2c1n(C)cnc1N(C)C(=O)N2C

> <Substance_modify_yyyymmdd>
20100107

$$$$
