69-43-2
ChemmineR-0915142007XD

 31 32  0  0  1  0  0  0  0  0  1 V2000
    7.9845   -9.3994    0.0000 C   0  0  0  0  0  0  0  0  0  0  0  0
    6.6453   -9.3994    0.0000 C   0  0  0  0  0  0  0  0  0  0  0  0
    5.9883   -8.2498    0.0000 O   0  0  0  0  0  0  0  0  0  0  0  0
    5.9883  -10.5491    0.0000 C   0  0  0  0  0  0  0  0  0  0  0  0
    6.6453  -11.6987    0.0000 O   0  0  0  0  0  0  0  0  0  0  0  0
    4.6492  -10.5491    0.0000 O   0  0  0  0  0  0  0  0  0  0  0  0
    8.6414   -6.9106    0.0000 C   0  0  0  0  0  0  0  0  0  0  0  0
    7.9845   -5.7609    0.0000 C   0  0  0  0  0  0  0  0  0  0  0  0
    8.6414   -4.6113    0.0000 C   0  0  0  0  0  0  0  0  0  0  0  0
    9.9679   -4.6113    0.0000 C   0  0  0  0  0  0  0  0  0  0  0  0
   10.6375   -3.4616    0.0000 C   0  0  0  0  0  0  0  0  0  0  0  0
   11.9641   -3.4616    0.0000 C   0  0  0  0  0  0  0  0  0  0  0  0
   12.6336   -4.6113    0.0000 C   0  0  0  0  0  0  0  0  0  0  0  0
   11.9641   -5.7609    0.0000 C   0  0  0  0  0  0  0  0  0  0  0  0
   10.6375   -5.7609    0.0000 C   0  0  0  0  0  0  0  0  0  0  0  0
    6.6453   -5.7609    0.0000 N   0  0  0  0  0  0  0  0  0  0  0  0
    5.9883   -4.6113    0.0000 C   0  0  0  0  0  0  0  0  0  0  0  0
    4.6492   -4.6113    0.0000 C   0  0  0  0  0  0  0  0  0  0  0  0
    3.9922   -3.4616    0.0000 C   0  0  0  0  0  0  0  0  0  0  0  0
    2.6657   -3.4616    0.0000 C   0  0  0  0  0  0  0  0  0  0  0  0
    1.9961   -4.6113    0.0000 C   0  0  0  0  0  0  0  0  0  0  0  0
    0.6696   -4.6113    0.0000 C   0  0  0  0  0  0  0  0  0  0  0  0
    0.0000   -3.4616    0.0000 C   0  0  0  0  0  0  0  0  0  0  0  0
    0.6696   -2.2993    0.0000 C   0  0  0  0  0  0  0  0  0  0  0  0
    1.9961   -2.2993    0.0000 C   0  0  0  0  0  0  0  0  0  0  0  0
    4.6492   -2.2993    0.0000 C   0  0  0  0  0  0  0  0  0  0  0  0
    3.9922   -1.1497    0.0000 C   0  0  0  0  0  0  0  0  0  0  0  0
    4.6492    0.0000    0.0000 C   0  0  0  0  0  0  0  0  0  0  0  0
    5.9883    0.0000    0.0000 C   0  0  0  0  0  0  0  0  0  0  0  0
    6.6453   -1.1497    0.0000 C   0  0  0  0  0  0  0  0  0  0  0  0
    5.9883   -2.2993    0.0000 C   0  0  0  0  0  0  0  0  0  0  0  0
  1  2  1  0  0  0  0
  2  3  1  1  0  0  0
  2  4  1  0  0  0  0
  4  5  1  0  0  0  0
  4  6  2  0  0  0  0
  8  7  1  6  0  0  0
  8  9  1  0  0  0  0
  8 16  1  0  0  0  0
  9 10  1  0  0  0  0
 10 11  2  0  0  0  0
 10 15  1  0  0  0  0
 11 12  1  0  0  0  0
 12 13  2  0  0  0  0
 13 14  1  0  0  0  0
 14 15  2  0  0  0  0
 16 17  1  0  0  0  0
 17 18  1  0  0  0  0
 18 19  1  0  0  0  0
 19 20  1  0  0  0  0
 19 26  1  0  0  0  0
 20 21  2  0  0  0  0
 20 25  1  0  0  0  0
 21 22  1  0  0  0  0
 22 23  2  0  0  0  0
 23 24  1  0  0  0  0
 24 25  2  0  0  0  0
 26 27  2  0  0  0  0
 26 31  1  0  0  0  0
 27 28  1  0  0  0  0
 28 29  2  0  0  0  0
 29 30  1  0  0  0  0
 30 31  2  0  0  0  0
M  END
> <ID>
11013

> <Formula>
C27H33NO3

> <FW>
419.5558 (90.0779+329.4779)

> <DSSTox_CID>
25544

> <DSSTox_RID>
80945

> <DSSTox_GSID>
45544

> <DSSTox_FileID_Sort>
5626

> <TS_ChemName>
Prenylamine lactate

> <TS_ChemName_Synonyms>


> <TS_CASRN>
69-43-2

> <CASRN_ChemName_Relationship>
primary

> <TS_Description>
single chemical compound

> <ChemNote>
stereochem; parent [390-64-7]

> <STRUCTURE_Shown>
tested chemical

> <STRUCTURE_Formula>
C27H33NO3

> <STRUCTURE_MW>
419.5558

> <STRUCTURE_ChemType>
defined organic

> <STRUCTURE_DefinedOrganicForm>
complex

> <STRUCTURE_IUPAC>
(2S)-2-hydroxypropanoic acid - 3,3-diphenyl-N-[(2S)-1-phenylpropan-2-yl]propan-1-amine (1:1)

> <STRUCTURE_SMILES>
O=C(O)[C@H](C)O.C[C@@H](Cc1ccccc1)NCCC(c2ccccc2)c3ccccc3

> <STRUCTURE_SMILES_Desalt>
C[C@@H](Cc1ccccc1)NCCC(c2ccccc2)c3ccccc3

> <Substance_modify_yyyymmdd>
20100107

$$$$
