69-53-4
ChemmineR-0915142007XD

 26 28  0  0  1  0  0  0  0  0  1 V2000
    7.0790   -2.6808    0.0000 C   0  0  0  0  0  0  0  0  0  0  0  0
    8.4020   -3.9921    0.0000 N   0  0  0  0  0  0  0  0  0  0  0  0
    8.4020   -2.6808    0.0000 C   0  0  0  0  0  0  0  0  0  0  0  0
    7.0790   -3.9921    0.0000 C   0  0  0  0  0  0  0  0  0  0  0  0
    9.6786   -4.4099    0.0000 C   0  0  0  0  0  0  0  0  0  0  0  0
   10.4677   -3.3422    0.0000 C   0  0  0  0  0  0  0  0  0  0  0  0
    9.6786   -2.2862    0.0000 S   0  0  0  0  0  0  0  0  0  0  0  0
    8.4368   -1.3346    0.0000 H   0  0  0  0  0  0  0  0  0  0  0  0
    7.0790   -1.3346    0.0000 H   0  0  0  0  0  0  0  0  0  0  0  0
    5.7329   -2.6691    0.0000 N   0  0  0  0  0  0  0  0  0  0  0  0
   11.6050   -2.6691    0.0000 C   0  0  0  0  0  0  0  0  0  0  0  0
   11.6050   -4.0153    0.0000 C   0  0  0  0  0  0  0  0  0  0  0  0
   10.0847   -5.6981    0.0000 C   0  0  0  0  0  0  0  0  0  0  0  0
   11.3845   -5.9650    0.0000 O   0  0  0  0  0  0  0  0  0  0  0  0
    9.2028   -6.6729    0.0000 O   0  0  0  0  0  0  0  0  0  0  0  0
    6.1390   -4.9553    0.0000 O   0  0  0  0  0  0  0  0  0  0  0  0
    2.2978   -0.6615    0.0000 C   0  0  0  0  0  0  0  0  0  0  0  0
    2.2978   -1.9961    0.0000 C   0  0  0  0  0  0  0  0  0  0  0  0
    1.1373    0.0000    0.0000 C   0  0  0  0  0  0  0  0  0  0  0  0
    1.1373   -2.6691    0.0000 C   0  0  0  0  0  0  0  0  0  0  0  0
    0.0000   -0.6615    0.0000 C   0  0  0  0  0  0  0  0  0  0  0  0
    0.0000   -1.9961    0.0000 C   0  0  0  0  0  0  0  0  0  0  0  0
    3.4467   -2.6691    0.0000 C   0  0  0  0  0  0  0  0  0  0  0  0
    3.4467   -3.9921    0.0000 N   0  0  0  0  0  0  0  0  0  0  0  0
    4.5956   -1.9961    0.0000 C   0  0  0  0  0  0  0  0  0  0  0  0
    4.5956   -0.6615    0.0000 O   0  0  0  0  0  0  0  0  0  0  0  0
  1  3  1  0  0  0  0
  1  4  1  0  0  0  0
  1  9  1  6  0  0  0
  1 10  1  1  0  0  0
  2  4  1  0  0  0  0
  2  5  1  0  0  0  0
  2  3  1  0  0  0  0
  3  7  1  1  0  0  0
  3  8  1  6  0  0  0
  4 16  2  0  0  0  0
  5  6  1  0  0  0  0
  5 13  1  6  0  0  0
  6  7  1  0  0  0  0
  6 11  1  0  0  0  0
  6 12  1  0  0  0  0
 10 25  1  0  0  0  0
 13 14  2  0  0  0  0
 13 15  1  0  0  0  0
 17 18  1  0  0  0  0
 17 19  2  0  0  0  0
 18 20  2  0  0  0  0
 18 23  1  0  0  0  0
 19 21  1  0  0  0  0
 20 22  1  0  0  0  0
 21 22  2  0  0  0  0
 23 24  1  6  0  0  0
 23 25  1  0  0  0  0
 25 26  2  0  0  0  0
M  END
> <ID>
2358

> <Formula>
C16H19N3O4S

> <FW>
349.4048

> <DSSTox_CID>
2602

> <DSSTox_RID>
76654

> <DSSTox_GSID>
22602

> <DSSTox_FileID_Sort>
1338

> <TS_ChemName>
Ampicillin

> <TS_ChemName_Synonyms>
Ampicillin (Amp)

> <TS_CASRN>
69-53-4

> <CASRN_ChemName_Relationship>
primary

> <TS_Description>
single chemical compound

> <ChemNote>
stereochem

> <STRUCTURE_Shown>
tested chemical

> <STRUCTURE_Formula>
C16H19N3O4S

> <STRUCTURE_MW>
349.4048

> <STRUCTURE_ChemType>
defined organic

> <STRUCTURE_DefinedOrganicForm>
parent

> <STRUCTURE_IUPAC>
(2S,5R,6R)-6-{[(2R)-2-amino-2-phenylacetyl]amino}-3,3-dimethyl-7-oxo-4-thia-1-azabicyclo[3.2.0]heptane-2-carboxylic acid

> <STRUCTURE_SMILES>
OC(=O)[C@@H]2N3C(=O)[C@@H](NC(=O)[C@H](N)c1ccccc1)[C@H]3SC2(C)C

> <STRUCTURE_SMILES_Desalt>
OC(=O)[C@@H]2N3C(=O)[C@@H](NC(=O)[C@H](N)c1ccccc1)[C@H]3SC2(C)C

> <Substance_modify_yyyymmdd>
20080429

$$$$
