69-65-8
ChemmineR-0915142007XD

 12 11  0  0  1  0  0  0  0  0  1 V2000
    1.3263   -2.2989    0.0000 C   0  0  0  0  0  0  0  0  0  0  0  0
    2.0015   -3.4403    0.0000 C   0  0  0  0  0  0  0  0  0  0  0  0
    1.3263   -4.5978    0.0000 C   0  0  0  0  0  0  0  0  0  0  0  0
    2.0015   -5.7392    0.0000 C   0  0  0  0  0  0  0  0  0  0  0  0
    1.3263   -6.8967    0.0000 C   0  0  0  0  0  0  0  0  0  0  0  0
    2.0015   -1.1414    0.0000 C   0  0  0  0  0  0  0  0  0  0  0  0
    3.3278   -3.4403    0.0000 O   0  0  0  0  0  0  0  0  0  0  0  0
    0.0000   -4.5978    0.0000 O   0  0  0  0  0  0  0  0  0  0  0  0
    3.3278   -5.7392    0.0000 O   0  0  0  0  0  0  0  0  0  0  0  0
    2.0015   -8.0382    0.0000 O   0  0  0  0  0  0  0  0  0  0  0  0
    1.3263    0.0000    0.0000 O   0  0  0  0  0  0  0  0  0  0  0  0
    0.0000   -2.2989    0.0000 O   0  0  0  0  0  0  0  0  0  0  0  0
  1  2  1  0  0  0  0
  1  6  1  0  0  0  0
  1 12  1  6  0  0  0
  2  3  1  0  0  0  0
  2  7  1  1  0  0  0
  3  4  1  0  0  0  0
  3  8  1  1  0  0  0
  4  5  1  0  0  0  0
  4  9  1  6  0  0  0
  5 10  1  0  0  0  0
  6 11  1  0  0  0  0
M  END
> <ID>
2910

> <Formula>
C6H14O6

> <FW>
182.1718

> <DSSTox_CID>
3235

> <DSSTox_RID>
76936

> <DSSTox_GSID>
23235

> <DSSTox_FileID_Sort>
1620

> <TS_ChemName>
D-Mannitol

> <TS_ChemName_Synonyms>


> <TS_CASRN>
69-65-8

> <CASRN_ChemName_Relationship>
primary

> <TS_Description>
single chemical compound

> <ChemNote>
stereochem

> <STRUCTURE_Shown>
tested chemical

> <STRUCTURE_Formula>
C6H14O6

> <STRUCTURE_MW>
182.1718

> <STRUCTURE_ChemType>
defined organic

> <STRUCTURE_DefinedOrganicForm>
parent

> <STRUCTURE_IUPAC>
D-mannitol

> <STRUCTURE_SMILES>
O[C@H]([C@H](O)CO)[C@H](O)[C@H](O)CO

> <STRUCTURE_SMILES_Desalt>
O[C@H]([C@H](O)CO)[C@H](O)[C@H](O)CO

> <Substance_modify_yyyymmdd>
20080429

$$$$
