69-72-7
ChemmineR-0915142007XD

 10 10  0  0  0  0  0  0  0  0  1 V2000
    2.2984   -2.0134    0.0000 C   0  0  0  0  0  0  0  0  0  0  0  0
    3.4568   -1.3468    0.0000 C   0  0  0  0  0  0  0  0  0  0  0  0
    2.2984   -3.3281    0.0000 C   0  0  0  0  0  0  0  0  0  0  0  0
    3.4568    0.0000    0.0000 O   0  0  0  0  0  0  0  0  0  0  0  0
    4.5968   -2.0134    0.0000 O   0  0  0  0  0  0  0  0  0  0  0  0
    3.4568   -4.0268    0.0000 O   0  0  0  0  0  0  0  0  0  0  0  0
    1.1584   -1.3468    0.0000 C   0  0  0  0  0  0  0  0  0  0  0  0
    1.1584   -3.9946    0.0000 C   0  0  0  0  0  0  0  0  0  0  0  0
    0.0000   -2.0134    0.0000 C   0  0  0  0  0  0  0  0  0  0  0  0
    0.0000   -3.3281    0.0000 C   0  0  0  0  0  0  0  0  0  0  0  0
  1  2  1  0  0  0  0
  1  3  2  0  0  0  0
  1  7  1  0  0  0  0
  2  4  2  0  0  0  0
  2  5  1  0  0  0  0
  3  6  1  0  0  0  0
  3  8  1  0  0  0  0
  7  9  2  0  0  0  0
  8 10  2  0  0  0  0
  9 10  1  0  0  0  0
M  END
> <ID>
4661

> <Formula>
C7H6O3

> <FW>
138.1207

> <DSSTox_CID>
6368

> <DSSTox_RID>
78106

> <DSSTox_GSID>
26368

> <DSSTox_FileID_Sort>
2789

> <TS_ChemName>
Salicylic acid

> <TS_ChemName_Synonyms>
Salicyclic acid (SA) (Benzoic acid, 2-hydroxy-)

> <TS_CASRN>
69-72-7

> <CASRN_ChemName_Relationship>
primary

> <TS_Description>
single chemical compound

> <ChemNote>


> <STRUCTURE_Shown>
tested chemical

> <STRUCTURE_Formula>
C7H6O3

> <STRUCTURE_MW>
138.1207

> <STRUCTURE_ChemType>
defined organic

> <STRUCTURE_DefinedOrganicForm>
parent

> <STRUCTURE_IUPAC>
2-hydroxybenzoic acid

> <STRUCTURE_SMILES>
OC(=O)c1ccccc1O

> <STRUCTURE_SMILES_Desalt>
OC(=O)c1ccccc1O

> <Substance_modify_yyyymmdd>
20080429

$$$$
