69-81-8
ChemmineR-0915142007XD

 17 18  0  0  0  0  0  0  0  0  1 V2000
    6.9158   -3.0061    0.0000 C   0  0  0  0  0  0  0  0  0  0  0  0
    6.9158   -1.6820    0.0000 C   0  0  0  0  0  0  0  0  0  0  0  0
    5.7527   -3.6771    0.0000 C   0  0  0  0  0  0  0  0  0  0  0  0
    8.1594   -3.4176    0.0000 C   0  0  0  0  0  0  0  0  0  0  0  0
    5.7527   -1.0289    0.0000 C   0  0  0  0  0  0  0  0  0  0  0  0
    8.1594   -1.2615    0.0000 N   0  0  0  0  0  0  0  0  0  0  0  0
    4.5986   -3.0061    0.0000 C   0  0  0  0  0  0  0  0  0  0  0  0
    8.9467   -2.3530    0.0000 C   0  0  0  0  0  0  0  0  0  0  0  0
    8.5799   -4.6970    0.0000 O   0  0  0  0  0  0  0  0  0  0  0  0
    4.5986   -1.6820    0.0000 C   0  0  0  0  0  0  0  0  0  0  0  0
    8.5799    0.0000    0.0000 C   0  0  0  0  0  0  0  0  0  0  0  0
    3.4534   -3.6771    0.0000 N   0  0  0  0  0  0  0  0  0  0  0  0
    3.4534   -1.0289    0.0000 O   0  0  0  0  0  0  0  0  0  0  0  0
    2.2993   -3.0061    0.0000 N   0  0  0  0  0  0  0  0  0  0  0  0
    1.1362   -3.6771    0.0000 C   0  0  0  0  0  0  0  0  0  0  0  0
    1.1362   -5.0191    0.0000 N   0  0  0  0  0  0  0  0  0  0  0  0
    0.0000   -3.0061    0.0000 O   0  0  0  0  0  0  0  0  0  0  0  0
  1  2  1  0  0  0  0
  1  3  2  0  0  0  0
  1  4  1  0  0  0  0
  2  5  2  0  0  0  0
  2  6  1  0  0  0  0
  3  7  1  0  0  0  0
  4  8  1  0  0  0  0
  4  9  1  0  0  0  0
  5 10  1  0  0  0  0
  6 11  1  0  0  0  0
  6  8  1  0  0  0  0
  7 12  2  0  0  0  0
  7 10  1  0  0  0  0
 10 13  2  0  0  0  0
 12 14  1  0  0  0  0
 14 15  1  0  0  0  0
 15 16  1  0  0  0  0
 15 17  2  0  0  0  0
M  END
> <ID>
13368

> <Formula>
C10H12N4O3

> <FW>
236.2273

> <DSSTox_CID>
28285

> <DSSTox_RID>
82750

> <DSSTox_GSID>
48310

> <DSSTox_FileID_Sort>
7427

> <TS_ChemName>
Carbazochrome

> <TS_ChemName_Synonyms>


> <TS_CASRN>
69-81-8

> <CASRN_ChemName_Relationship>
primary

> <TS_Description>
single chemical compound

> <ChemNote>
tautomers

> <STRUCTURE_Shown>
tested chemical

> <STRUCTURE_Formula>
C10H12N4O3

> <STRUCTURE_MW>
236.2273

> <STRUCTURE_ChemType>
defined organic

> <STRUCTURE_DefinedOrganicForm>
parent

> <STRUCTURE_IUPAC>
(2Z)-2-(3-hydroxy-1-methyl-6-oxo-1,2,3,6-tetrahydro-5H-indol-5-ylidene)hydrazinecarboxamide

> <STRUCTURE_SMILES>
NC(=O)N\N=C1\C=C2C(=CC1=O)N(C)CC2O

> <STRUCTURE_SMILES_Desalt>
NC(=O)N\N=C1\C=C2C(=CC1=O)N(C)CC2O

> <Substance_modify_yyyymmdd>
20122020

$$$$
