69-93-2
ChemmineR-0915142007XD

 12 13  0  0  0  0  0  0  0  0  1 V2000
    3.4707   -3.3406    0.0000 C   0  0  0  0  0  0  0  0  0  0  0  0
    3.4707   -2.0126    0.0000 C   0  0  0  0  0  0  0  0  0  0  0  0
    2.3001   -3.9978    0.0000 N   0  0  0  0  0  0  0  0  0  0  0  0
    4.7166   -3.7582    0.0000 N   0  0  0  0  0  0  0  0  0  0  0  0
    1.1706   -2.0126    0.0000 N   0  0  0  0  0  0  0  0  0  0  0  0
    2.3001   -1.3417    0.0000 C   0  0  0  0  0  0  0  0  0  0  0  0
    1.1706   -3.3406    0.0000 C   0  0  0  0  0  0  0  0  0  0  0  0
    5.5038   -2.6698    0.0000 C   0  0  0  0  0  0  0  0  0  0  0  0
    4.7166   -1.6019    0.0000 N   0  0  0  0  0  0  0  0  0  0  0  0
    2.3001    0.0000    0.0000 O   0  0  0  0  0  0  0  0  0  0  0  0
    0.0000   -3.9978    0.0000 O   0  0  0  0  0  0  0  0  0  0  0  0
    6.8456   -2.6698    0.0000 O   0  0  0  0  0  0  0  0  0  0  0  0
  1  2  2  0  0  0  0
  1  3  1  0  0  0  0
  1  4  1  0  0  0  0
  2  6  1  0  0  0  0
  2  9  1  0  0  0  0
  3  7  1  0  0  0  0
  4  8  1  0  0  0  0
  5  7  1  0  0  0  0
  5  6  1  0  0  0  0
  6 10  2  0  0  0  0
  7 11  2  0  0  0  0
  8 12  2  0  0  0  0
  8  9  1  0  0  0  0
M  END
> <ID>
9414

> <Formula>
C5H4N4O3

> <FW>
168.1103

> <DSSTox_CID>
22508

> <DSSTox_RID>
80044

> <DSSTox_GSID>
42508

> <DSSTox_FileID_Sort>
4726

> <TS_ChemName>
Uric acid

> <TS_ChemName_Synonyms>


> <TS_CASRN>
69-93-2

> <CASRN_ChemName_Relationship>
primary

> <TS_Description>
single chemical compound

> <ChemNote>


> <STRUCTURE_Shown>
tested chemical

> <STRUCTURE_Formula>
C5H4N4O3

> <STRUCTURE_MW>
168.1103

> <STRUCTURE_ChemType>
defined organic

> <STRUCTURE_DefinedOrganicForm>
parent

> <STRUCTURE_IUPAC>
7,9-dihydro-1H-purine-2,6,8(3H)-trione

> <STRUCTURE_SMILES>
O=C1NC(=O)NC=2NC(=O)NC1=2

> <STRUCTURE_SMILES_Desalt>
O=C1NC(=O)NC=2NC(=O)NC1=2

> <Substance_modify_yyyymmdd>
20080825

$$$$
