69004-04-2
ChemmineR-0915142007XD

 31 33  0  0  0  0  0  0  0  0  1 V2000
    2.2893   -3.2769    0.0000 C   0  0  0  0  0  0  0  0  0  0  0  0
    3.4265   -3.9951    0.0000 N   0  0  0  0  0  0  0  0  0  0  0  0
    3.4265   -5.2819    0.0000 C   0  0  0  0  0  0  0  0  0  0  0  0
    2.2893   -5.9852    0.0000 N   0  0  0  0  0  0  0  0  0  0  0  0
    1.1521   -5.2819    0.0000 C   0  0  0  0  0  0  0  0  0  0  0  0
    1.1521   -3.9951    0.0000 N   0  0  0  0  0  0  0  0  0  0  0  0
    2.2893   -1.9901    0.0000 O   0  0  0  0  0  0  0  0  0  0  0  0
    4.6385   -5.9852    0.0000 O   0  0  0  0  0  0  0  0  0  0  0  0
    0.0000   -5.9852    0.0000 O   0  0  0  0  0  0  0  0  0  0  0  0
    4.6385   -3.2769    0.0000 C   0  0  0  0  0  0  0  0  0  0  0  0
    4.6385   -1.9901    0.0000 C   0  0  0  0  0  0  0  0  0  0  0  0
    6.9278   -1.9901    0.0000 C   0  0  0  0  0  0  0  0  0  0  0  0
    5.7757   -3.9951    0.0000 C   0  0  0  0  0  0  0  0  0  0  0  0
    5.7757   -1.3317    0.0000 C   0  0  0  0  0  0  0  0  0  0  0  0
    6.9278   -3.2769    0.0000 C   0  0  0  0  0  0  0  0  0  0  0  0
    5.7757    0.0000    0.0000 C   0  0  0  0  0  0  0  0  0  0  0  0
    8.0800   -1.3317    0.0000 O   0  0  0  0  0  0  0  0  0  0  0  0
    9.2321   -1.9901    0.0000 C   0  0  0  0  0  0  0  0  0  0  0  0
   10.3842   -1.3317    0.0000 C   0  0  0  0  0  0  0  0  0  0  0  0
   11.5364   -1.9901    0.0000 C   0  0  0  0  0  0  0  0  0  0  0  0
   11.5364   -3.2769    0.0000 C   0  0  0  0  0  0  0  0  0  0  0  0
   10.3842   -3.9951    0.0000 C   0  0  0  0  0  0  0  0  0  0  0  0
    9.2321   -3.2769    0.0000 C   0  0  0  0  0  0  0  0  0  0  0  0
   12.6736   -3.9951    0.0000 S   0  0  0  0  0  0  0  0  0  0  0  0
   12.0302   -5.1472    0.0000 O   0  0  0  0  0  0  0  0  0  0  0  0
   13.3319   -2.8429    0.0000 O   0  0  0  0  0  0  0  0  0  0  0  0
   13.8107   -4.6385    0.0000 C   0  0  0  0  0  0  0  0  0  0  0  0
   13.1673   -5.7906    0.0000 F   0  0  0  0  0  0  0  0  0  0  0  0
   14.4841   -3.4864    0.0000 F   0  0  0  0  0  0  0  0  0  0  0  0
   14.9629   -5.3417    0.0000 F   0  0  0  0  0  0  0  0  0  0  0  0
    0.0000   -3.2769    0.0000 C   0  0  0  0  0  0  0  0  0  0  0  0
  1  2  1  0  0  0  0
  1  6  1  0  0  0  0
  1  7  2  0  0  0  0
  2  3  1  0  0  0  0
  2 10  1  0  0  0  0
  3  4  1  0  0  0  0
  3  8  2  0  0  0  0
  4  5  1  0  0  0  0
  5  6  1  0  0  0  0
  5  9  2  0  0  0  0
  6 31  1  0  0  0  0
 10 11  1  0  0  0  0
 10 13  2  0  0  0  0
 11 14  2  0  0  0  0
 12 14  1  0  0  0  0
 12 15  2  0  0  0  0
 12 17  1  0  0  0  0
 13 15  1  0  0  0  0
 14 16  1  0  0  0  0
 17 18  1  0  0  0  0
 18 19  1  0  0  0  0
 18 23  2  0  0  0  0
 19 20  2  0  0  0  0
 20 21  1  0  0  0  0
 21 22  2  0  0  0  0
 21 24  1  0  0  0  0
 22 23  1  0  0  0  0
 24 25  2  0  0  0  0
 24 26  2  0  0  0  0
 24 27  1  0  0  0  0
 27 28  1  0  0  0  0
 27 29  1  0  0  0  0
 27 30  1  0  0  0  0
M  END
> <ID>
13946

> <Formula>
C18H14F3N3O6S

> <FW>
457.3805

> <DSSTox_CID>
28884

> <DSSTox_RID>
83152

> <DSSTox_GSID>
48958

> <DSSTox_FileID_Sort>
7829

> <TS_ChemName>
Toltrazuril sulfone

> <TS_ChemName_Synonyms>


> <TS_CASRN>
69004-04-2

> <CASRN_ChemName_Relationship>
primary

> <TS_Description>
single chemical compound

> <ChemNote>


> <STRUCTURE_Shown>
tested chemical

> <STRUCTURE_Formula>
C18H14F3N3O6S

> <STRUCTURE_MW>
457.3805

> <STRUCTURE_ChemType>
defined organic

> <STRUCTURE_DefinedOrganicForm>
parent

> <STRUCTURE_IUPAC>
1-methyl-3-(3-methyl-4-{4-[(trifluoromethyl)sulfonyl]phenoxy}phenyl)-1,3,5-triazinane-2,4,6-trione

> <STRUCTURE_SMILES>
O=C3N(c2cc(C)c(Oc1ccc(cc1)S(=O)(=O)C(F)(F)F)cc2)C(=O)NC(=O)N3C

> <STRUCTURE_SMILES_Desalt>
O=C3N(c2cc(C)c(Oc1ccc(cc1)S(=O)(=O)C(F)(F)F)cc2)C(=O)NC(=O)N3C

> <Substance_modify_yyyymmdd>
20111204

$$$$
