69014-14-8
ChemmineR-0915142007XD

 20 20  0  0  0  0  0  0  0  0  1 V2000
   10.3540   -0.6670    0.0000 C   0  0  0  0  0  0  0  0  0  0  0  0
   11.5767   -0.1112    0.0000 N   0  0  0  0  0  0  0  0  0  0  0  0
   10.4969   -1.9850    0.0000 C   0  0  0  0  0  0  0  0  0  0  0  0
    9.2106    0.0000    0.0000 C   0  0  0  0  0  0  0  0  0  0  0  0
   12.4502   -1.1116    0.0000 C   0  0  0  0  0  0  0  0  0  0  0  0
   11.7991   -2.2709    0.0000 S   0  0  0  0  0  0  0  0  0  0  0  0
    8.0513   -0.6670    0.0000 S   0  0  0  0  0  0  0  0  0  0  0  0
   13.7682   -0.9687    0.0000 N   0  0  0  0  0  0  0  0  0  0  0  0
    6.8921    0.0000    0.0000 C   0  0  0  0  0  0  0  0  0  0  0  0
   14.5622   -2.0486    0.0000 C   0  0  0  0  0  0  0  0  0  0  0  0
    5.7487   -0.6670    0.0000 C   0  0  0  0  0  0  0  0  0  0  0  0
   15.8803   -1.9056    0.0000 N   0  0  0  0  0  0  0  0  0  0  0  0
   14.0223   -3.2555    0.0000 N   0  0  0  0  0  0  0  0  0  0  0  0
    4.6053    0.0000    0.0000 N   0  0  0  0  0  0  0  0  0  0  0  0
    3.4619   -0.6670    0.0000 C   0  0  0  0  0  0  0  0  0  0  0  0
    2.3185    0.0000    0.0000 N   0  0  0  0  0  0  0  0  0  0  0  0
    3.4619   -1.9850    0.0000 N   0  0  0  0  0  0  0  0  0  0  0  0
    1.1593   -0.6670    0.0000 C   0  0  0  0  0  0  0  0  0  0  0  0
    2.3185   -2.6679    0.0000 C   0  0  0  0  0  0  0  0  0  0  0  0
    0.0000   -1.3498    0.0000 N   0  0  0  0  0  0  0  0  0  0  0  0
  1  2  1  0  0  0  0
  1  3  2  0  0  0  0
  1  4  1  0  0  0  0
  2  5  2  0  0  0  0
  3  6  1  0  0  0  0
  4  7  1  0  0  0  0
  5  8  1  0  0  0  0
  5  6  1  0  0  0  0
  7  9  1  0  0  0  0
  8 10  2  0  0  0  0
  9 11  1  0  0  0  0
 10 12  1  0  0  0  0
 10 13  1  0  0  0  0
 11 14  1  0  0  0  0
 14 15  1  0  0  0  0
 15 16  2  0  0  0  0
 15 17  1  0  0  0  0
 16 18  1  0  0  0  0
 17 19  1  0  0  0  0
 18 20  3  0  0  0  0
M  END
> <ID>
11612

> <Formula>
C10H16N8S2

> <FW>
312.4176

> <DSSTox_CID>
26341

> <DSSTox_RID>
81545

> <DSSTox_GSID>
46341

> <DSSTox_FileID_Sort>
6226

> <TS_ChemName>
Tiotidine

> <TS_ChemName_Synonyms>


> <TS_CASRN>
69014-14-8

> <CASRN_ChemName_Relationship>
primary

> <TS_Description>
single chemical compound

> <ChemNote>
tautomers

> <STRUCTURE_Shown>
tested chemical

> <STRUCTURE_Formula>
C10H16N8S2

> <STRUCTURE_MW>
312.4176

> <STRUCTURE_ChemType>
defined organic

> <STRUCTURE_DefinedOrganicForm>
parent

> <STRUCTURE_IUPAC>
2-cyano-1-{2-[({2-[(diaminomethylidene)amino]-1,3-thiazol-4-yl}methyl)sulfanyl]ethyl}-3-methylguanidine

> <STRUCTURE_SMILES>
N/C(N)=N/c1nc(CSCCNC(=N\C#N)\NC)cs1

> <STRUCTURE_SMILES_Desalt>
N/C(N)=N/c1nc(CSCCNC(=N\C#N)\NC)cs1

> <Substance_modify_yyyymmdd>
20110814

$$$$
