69045-83-6
ChemmineR-0915142007XD

 12 12  0  0  0  0  0  0  0  0  1 V2000
    4.6553   -3.4582    0.0000 N    0  0  0  0  0  0  0  0  0  0  0  0
    3.3252   -3.4582    0.0000 C    0  0  0  0  0  0  0  0  0  0  0  0
    5.3203   -2.3010    0.0000 C    0  0  0  0  0  0  0  0  0  0  0  0
    4.6553   -1.1505    0.0000 C    0  0  0  0  0  0  0  0  0  0  0  0
    2.6668   -2.3010    0.0000 C    0  0  0  0  0  0  0  0  0  0  0  0
    3.3252   -1.1505    0.0000 C    0  0  0  0  0  0  0  0  0  0  0  0
    6.6504   -2.3010    0.0000 Cl   0  0  0  0  0  0  0  0  0  0  0  0
    5.3203    0.0000    0.0000 Cl   0  0  0  0  0  0  0  0  0  0  0  0
    1.3434   -2.3010    0.0000 C    0  0  0  0  0  0  0  0  0  0  0  0
    1.3434   -0.9776    0.0000 Cl   0  0  0  0  0  0  0  0  0  0  0  0
    1.3434   -3.6311    0.0000 Cl   0  0  0  0  0  0  0  0  0  0  0  0
    0.0000   -2.3010    0.0000 Cl   0  0  0  0  0  0  0  0  0  0  0  0
  1  2  2  0  0  0  0
  1  3  1  0  0  0  0
  2  5  1  0  0  0  0
  3  4  2  0  0  0  0
  3  7  1  0  0  0  0
  4  6  1  0  0  0  0
  4  8  1  0  0  0  0
  5  6  2  0  0  0  0
  5  9  1  0  0  0  0
  9 10  1  0  0  0  0
  9 11  1  0  0  0  0
  9 12  1  0  0  0  0
M  END
> <ID>
6040

> <Formula>
C6H2Cl5N

> <FW>
265.3518

> <DSSTox_CID>
9534

> <DSSTox_RID>
78775

> <DSSTox_GSID>
29534

> <DSSTox_FileID_Sort>
3457

> <TS_ChemName>
Pyridine, 2,3-dichloro-5-(trichloromethyl)-

> <TS_ChemName_Synonyms>


> <TS_CASRN>
69045-83-6

> <CASRN_ChemName_Relationship>
primary

> <TS_Description>
single chemical compound

> <ChemNote>


> <STRUCTURE_Shown>
tested chemical

> <STRUCTURE_Formula>
C6H2Cl5N

> <STRUCTURE_MW>
265.3518

> <STRUCTURE_ChemType>
defined organic

> <STRUCTURE_DefinedOrganicForm>
parent

> <STRUCTURE_IUPAC>
2,3-dichloro-5-(trichloromethyl)pyridine

> <STRUCTURE_SMILES>
Clc1cc(cnc1Cl)C(Cl)(Cl)Cl

> <STRUCTURE_SMILES_Desalt>
Clc1cc(cnc1Cl)C(Cl)(Cl)Cl

> <Substance_modify_yyyymmdd>
20080429

$$$$
