69049-06-5
ChemmineR-0915142007XD

 31 32  0  0  0  0  0  0  0  0  1 V2000
    8.1596   -1.2579    0.0000 C    0  0  0  0  0  0  0  0  0  0  0  0
    6.9018   -1.6735    0.0000 N    0  0  0  0  0  0  0  0  0  0  0  0
    6.9018   -2.9970    0.0000 N    0  0  0  0  0  0  0  0  0  0  0  0
    8.1596   -3.4126    0.0000 N    0  0  0  0  0  0  0  0  0  0  0  0
    8.9253   -2.3298    0.0000 N    0  0  0  0  0  0  0  0  0  0  0  0
    3.4564   -6.3768    0.0000 N    0  0  0  0  0  0  0  0  0  0  0  0
    4.5720   -5.7095    0.0000 C    0  0  0  0  0  0  0  0  0  0  0  0
    3.4564   -7.7221    0.0000 C    0  0  0  0  0  0  0  0  0  0  0  0
    5.7424   -1.0828    0.0000 C    0  0  0  0  0  0  0  0  0  0  0  0
    4.5720   -3.0626    0.0000 N    0  0  0  0  0  0  0  0  0  0  0  0
    8.5753    0.0000    0.0000 O    0  0  0  0  0  0  0  0  0  0  0  0
    3.4235   -5.0533    0.0000 C    0  0  0  0  0  0  0  0  0  0  0  0
    5.7424   -5.0533    0.0000 C    0  0  0  0  0  0  0  0  0  0  0  0
    2.3079   -8.3674    0.0000 O    0  0  0  0  0  0  0  0  0  0  0  0
    2.3079   -5.7205    0.0000 C    0  0  0  0  0  0  0  0  0  0  0  0
    4.5720   -1.7391    0.0000 C    0  0  0  0  0  0  0  0  0  0  0  0
    5.7424   -3.7298    0.0000 C    0  0  0  0  0  0  0  0  0  0  0  0
    3.4235   -3.7298    0.0000 C    0  0  0  0  0  0  0  0  0  0  0  0
   10.2487   -2.3298    0.0000 C    0  0  0  0  0  0  0  0  0  0  0  0
    5.2502   -6.8690    0.0000 C    0  0  0  0  0  0  0  0  0  0  0  0
    4.5720   -8.3674    0.0000 C    0  0  0  0  0  0  0  0  0  0  0  0
    6.5736   -6.8690    0.0000 O    0  0  0  0  0  0  0  0  0  0  0  0
    1.1485   -6.3768    0.0000 C    0  0  0  0  0  0  0  0  0  0  0  0
    2.3079   -4.3861    0.0000 C    0  0  0  0  0  0  0  0  0  0  0  0
    7.2408   -8.0065    0.0000 C    0  0  0  0  0  0  0  0  0  0  0  0
   10.9378   -3.4892    0.0000 C    0  0  0  0  0  0  0  0  0  0  0  0
    4.5720   -9.8222    0.0000 C    0  0  0  0  0  0  0  0  0  0  0  0
    0.0000   -5.7205    0.0000 C    0  0  0  0  0  0  0  0  0  0  0  0
    1.1485   -3.7298    0.0000 C    0  0  0  0  0  0  0  0  0  0  0  0
    0.0000   -4.3861    0.0000 C    0  0  0  0  0  0  0  0  0  0  0  0
    8.5096   -5.1298    0.0000 Cl   0  0  0  0  0  0  0  0  0  0  0  0
  1  2  1  0  0  0  0
  1  5  1  0  0  0  0
  1 11  2  0  0  0  0
  2  3  1  0  0  0  0
  2  9  1  0  0  0  0
  3  4  2  0  0  0  0
  4  5  1  0  0  0  0
  5 19  1  0  0  0  0
  6  7  1  0  0  0  0
  6  8  1  0  0  0  0
  6 15  1  0  0  0  0
  7 12  1  0  0  0  0
  7 20  1  0  0  0  0
  7 13  1  0  0  0  0
  8 14  2  0  0  0  0
  8 21  1  0  0  0  0
  9 16  1  0  0  0  0
 10 16  1  0  0  0  0
 10 17  1  0  0  0  0
 10 18  1  0  0  0  0
 12 18  1  0  0  0  0
 13 17  1  0  0  0  0
 15 23  1  0  0  0  0
 15 24  2  0  0  0  0
 19 26  1  0  0  0  0
 20 22  1  0  0  0  0
 21 27  1  0  0  0  0
 22 25  1  0  0  0  0
 23 28  2  0  0  0  0
 24 29  1  0  0  0  0
 28 30  1  0  0  0  0
 29 30  2  0  0  0  0
M  END
> <ID>
13916

> <Formula>
C21H33ClN6O3

> <FW>
452.9781 (416.5172+36.4609)

> <DSSTox_CID>
28853

> <DSSTox_RID>
83122

> <DSSTox_GSID>
48927

> <DSSTox_FileID_Sort>
7799

> <TS_ChemName>
Alfentanil hydrochloride

> <TS_ChemName_Synonyms>


> <TS_CASRN>
69049-06-5

> <CASRN_ChemName_Relationship>
primary

> <TS_Description>
single chemical compound

> <ChemNote>


> <STRUCTURE_Shown>
tested chemical

> <STRUCTURE_Formula>
C21H33ClN6O3

> <STRUCTURE_MW>
452.9781

> <STRUCTURE_ChemType>
defined organic

> <STRUCTURE_DefinedOrganicForm>
complex

> <STRUCTURE_IUPAC>
N-{1-[2-(4-ethyl-5-oxo-4,5-dihydro-1H-tetrazol-1-yl)ethyl]-4-(methoxymethyl)piperidin-4-yl}-N-phenylpropanamide hydrochloride (1:1)

> <STRUCTURE_SMILES>
Cl.CCC(=O)N(c1ccccc1)C2(COC)CCN(CC2)CCN3N=NN(CC)C3=O

> <STRUCTURE_SMILES_Desalt>
CCC(=O)N(c1ccccc1)C2(COC)CCN(CC2)CCN3N=NN(CC)C3=O

> <Substance_modify_yyyymmdd>
20111204

$$$$
