69045-78-9
ChemmineR-0915142007XD

 11 11  0  0  0  0  0  0  0  0  1 V2000
    4.6549   -2.4804    0.0000 N    0  0  0  0  0  0  0  0  0  0  0  0
    3.3250   -2.4804    0.0000 C    0  0  0  0  0  0  0  0  0  0  0  0
    5.3199   -1.3233    0.0000 C    0  0  0  0  0  0  0  0  0  0  0  0
    4.6549   -0.1729    0.0000 C    0  0  0  0  0  0  0  0  0  0  0  0
    2.6666   -1.3233    0.0000 C    0  0  0  0  0  0  0  0  0  0  0  0
    3.3250   -0.1729    0.0000 C    0  0  0  0  0  0  0  0  0  0  0  0
    6.6499   -1.3233    0.0000 Cl   0  0  0  0  0  0  0  0  0  0  0  0
    1.3433   -1.3233    0.0000 C    0  0  0  0  0  0  0  0  0  0  0  0
    1.3433    0.0000    0.0000 Cl   0  0  0  0  0  0  0  0  0  0  0  0
    1.3433   -2.6533    0.0000 Cl   0  0  0  0  0  0  0  0  0  0  0  0
    0.0000   -1.3233    0.0000 Cl   0  0  0  0  0  0  0  0  0  0  0  0
  1  2  2  0  0  0  0
  1  3  1  0  0  0  0
  2  5  1  0  0  0  0
  3  4  2  0  0  0  0
  3  7  1  0  0  0  0
  4  6  1  0  0  0  0
  5  6  2  0  0  0  0
  5  8  1  0  0  0  0
  8  9  1  0  0  0  0
  8 10  1  0  0  0  0
  8 11  1  0  0  0  0
M  END
> <ID>
5752

> <Formula>
C6H3Cl4N

> <FW>
230.9067

> <DSSTox_CID>
8967

> <DSSTox_RID>
78660

> <DSSTox_GSID>
28967

> <DSSTox_FileID_Sort>
3342

> <TS_ChemName>
Pyridine, 2-chloro-5-(trichloromethyl)-

> <TS_ChemName_Synonyms>


> <TS_CASRN>
69045-78-9

> <CASRN_ChemName_Relationship>
primary

> <TS_Description>
single chemical compound

> <ChemNote>


> <STRUCTURE_Shown>
tested chemical

> <STRUCTURE_Formula>
C6H3Cl4N

> <STRUCTURE_MW>
230.9067

> <STRUCTURE_ChemType>
defined organic

> <STRUCTURE_DefinedOrganicForm>
parent

> <STRUCTURE_IUPAC>
2-chloro-5-(trichloromethyl)pyridine

> <STRUCTURE_SMILES>
ClC(Cl)(Cl)c1cnc(Cl)cc1

> <STRUCTURE_SMILES_Desalt>
ClC(Cl)(Cl)c1cnc(Cl)cc1

> <Substance_modify_yyyymmdd>
20080429

$$$$
