69056-38-8
ChemmineR-0915142007XD

 20 19  0  0  1  0  0  0  0  0  1 V2000
    3.4560   -4.8421    0.0000 C    0  0  0  0  0  0  0  0  0  0  0  0
    3.4560   -3.5299    0.0000 C    0  0  0  0  0  0  0  0  0  0  0  0
    4.6018   -5.4982    0.0000 N    0  0  0  0  0  0  0  0  0  0  0  0
    2.2732   -5.4982    0.0000 N    0  0  0  0  0  0  0  0  0  0  0  0
    4.6018   -2.8461    0.0000 N    0  0  0  0  0  0  0  0  0  0  0  0
    2.2732   -2.8461    0.0000 C    0  0  0  0  0  0  0  0  0  0  0  0
    5.7846   -4.8421    0.0000 C    0  0  0  0  0  0  0  0  0  0  0  0
    1.1366   -4.8421    0.0000 C    0  0  0  0  0  0  0  0  0  0  0  0
    5.7846   -3.5299    0.0000 C    0  0  0  0  0  0  0  0  0  0  0  0
    1.1366   -3.5299    0.0000 N    0  0  0  0  0  0  0  0  0  0  0  0
    2.2732   -1.5247    0.0000 O    0  0  0  0  0  0  0  0  0  0  0  0
    0.0000   -5.4982    0.0000 N    0  0  0  0  0  0  0  0  0  0  0  0
    6.9212   -2.8461    0.0000 C    0  0  0  0  0  0  0  0  0  0  0  0
    8.1040   -3.5299    0.0000 C    0  0  0  0  0  0  0  0  0  0  0  0
    6.9212   -1.5247    0.0000 O    0  0  0  0  0  0  0  0  0  0  0  0
    9.2406   -2.8461    0.0000 C    0  0  0  0  0  0  0  0  0  0  0  0
    8.1040   -4.8421    0.0000 O    0  0  0  0  0  0  0  0  0  0  0  0
    6.9305   -4.1768    0.0000 H    0  0  0  0  0  0  0  0  0  0  0  0
    8.6677    0.0000    0.0000 Cl   0  0  0  0  0  0  0  0  0  0  0  0
    5.3041    0.0000    0.0000 Cl   0  0  0  0  0  0  0  0  0  0  0  0
  1  2  2  0  0  0  0
  1  3  1  0  0  0  0
  1  4  1  0  0  0  0
  2  5  1  0  0  0  0
  2  6  1  0  0  0  0
  3  7  1  0  0  0  0
  4  8  1  0  0  0  0
  5  9  1  0  0  0  0
  6 10  1  0  0  0  0
  6 11  2  0  0  0  0
  7  9  1  0  0  0  0
  8 12  1  0  0  0  0
  8 10  2  0  0  0  0
  9 13  1  0  0  0  0
  9 18  1  6  0  0  0
 13 14  1  0  0  0  0
 13 15  1  1  0  0  0
 14 16  1  0  0  0  0
 14 17  1  6  0  0  0
M  END
> <ID>
7834

> <Formula>
C9H17Cl2N5O3

> <FW>
314.1690 (241.2471+36.4609+36.4609)

> <DSSTox_CID>
20620

> <DSSTox_RID>
79515

> <DSSTox_GSID>
40620

> <DSSTox_FileID_Sort>
4197

> <TS_ChemName>
(6R)-Tetrahydrobiopterin dihydrochloride

> <TS_ChemName_Synonyms>
Tetrahydrobiopterin dihydrochloride

> <TS_CASRN>
69056-38-8

> <CASRN_ChemName_Relationship>
primary

> <TS_Description>
single chemical compound

> <ChemNote>
stereochem; parent [62989-33-7]

> <STRUCTURE_Shown>
tested chemical

> <STRUCTURE_Formula>
C9H17Cl2N5O3

> <STRUCTURE_MW>
314.169

> <STRUCTURE_ChemType>
defined organic

> <STRUCTURE_DefinedOrganicForm>
complex

> <STRUCTURE_IUPAC>
(6R)-2-amino-6-[(1R,2S)-1,2-dihydroxypropyl]-5,6,7,8-tetrahydropteridin-4(1H)-one dihydrochloride

> <STRUCTURE_SMILES>
Cl.Cl.C[C@H](O)[C@H](O)[C@@H]1NC=2C(=O)N=C(N)NC=2NC1

> <STRUCTURE_SMILES_Desalt>
C[C@H](O)[C@H](O)[C@@H]1NC=2C(=O)N=C(N)NC=2NC1

> <Substance_modify_yyyymmdd>
20080429

$$$$
