69056-62-8
ChemmineR-0915142007XD

 20 18  0  0  0  0  0  0  0  0  2 V2000
    3.4512   -3.5541    0.0000 C   0  0  0  0  0  0  0  0  0  0  0  0
    4.4226   -4.4683    0.0000 P   0  3  0  0  0  0  0  0  0  0  0  0
    3.5084   -5.4283    0.0000 C   0  0  0  0  0  0  0  0  0  0  0  0
    2.2170   -5.1312    0.0000 C   0  0  0  0  0  0  0  0  0  0  0  0
    1.2914   -6.0911    0.0000 C   0  0  0  0  0  0  0  0  0  0  0  0
    0.0000   -5.7711    0.0000 C   0  0  0  0  0  0  0  0  0  0  0  0
    5.3826   -5.3826    0.0000 C   0  0  0  0  0  0  0  0  0  0  0  0
    6.6511   -4.9940    0.0000 C   0  0  0  0  0  0  0  0  0  0  0  0
    7.6225   -5.9311    0.0000 C   0  0  0  0  0  0  0  0  0  0  0  0
    8.9024   -5.5426    0.0000 C   0  0  0  0  0  0  0  0  0  0  0  0
    5.3369   -3.5084    0.0000 C   0  0  0  0  0  0  0  0  0  0  0  0
    4.9712   -2.2285    0.0000 C   0  0  0  0  0  0  0  0  0  0  0  0
    5.8626   -1.2685    0.0000 C   0  0  0  0  0  0  0  0  0  0  0  0
    5.5083    0.0000    0.0000 C   0  0  0  0  0  0  0  0  0  0  0  0
    8.1024   -2.5370    0.0000 O   0  5  0  0  0  0  0  0  0  0  0  0
    9.4395   -2.5370    0.0000 S   0  0  0  0  0  0  0  0  0  0  0  0
    9.4395   -3.8741    0.0000 O   0  0  0  0  0  0  0  0  0  0  0  0
    9.4395   -1.1999    0.0000 O   0  0  0  0  0  0  0  0  0  0  0  0
   10.7652   -2.5370    0.0000 O   0  0  0  0  0  0  0  0  0  0  0  0
   11.4280   -1.3828    0.0000 C   0  0  0  0  0  0  0  0  0  0  0  0
  1  2  1  0  0  0  0
  2  3  1  0  0  0  0
  2  7  1  0  0  0  0
  2 11  1  0  0  0  0
  3  4  1  0  0  0  0
  4  5  1  0  0  0  0
  5  6  1  0  0  0  0
  7  8  1  0  0  0  0
  8  9  1  0  0  0  0
  9 10  1  0  0  0  0
 11 12  1  0  0  0  0
 12 13  1  0  0  0  0
 13 14  1  0  0  0  0
 15 16  1  0  0  0  0
 16 17  2  0  0  0  0
 16 18  2  0  0  0  0
 16 19  1  0  0  0  0
 19 20  1  0  0  0  0
M  END
> <ID>
12945

> <Formula>
C14H33O4PS

> <FW>
328.4482 (217.3505+111.0977)

> <DSSTox_CID>
27846

> <DSSTox_RID>
82599

> <DSSTox_GSID>
47870

> <DSSTox_FileID_Sort>
7276

> <TS_ChemName>
Tributylmethylphosphonium methyl sulfate

> <TS_ChemName_Synonyms>


> <TS_CASRN>
69056-62-8

> <CASRN_ChemName_Relationship>
primary

> <TS_Description>
single chemical compound

> <ChemNote>
phosphonium; parent [34217-64-6]

> <STRUCTURE_Shown>
tested chemical

> <STRUCTURE_Formula>
C14H33O4PS

> <STRUCTURE_MW>
328.4482

> <STRUCTURE_ChemType>
defined organic

> <STRUCTURE_DefinedOrganicForm>
complex

> <STRUCTURE_IUPAC>
tributyl(methyl)phosphonium methyl sulfate

> <STRUCTURE_SMILES>
C[P+](CCCC)(CCCC)CCCC.[O-]S(=O)(=O)OC

> <STRUCTURE_SMILES_Desalt>
CCCC[P+](C)(CCCC)CCCC

> <Substance_modify_yyyymmdd>
20110323

$$$$
