69123-90-6
ChemmineR-0915142007XD

 22 23  0  0  1  0  0  0  0  0  1 V2000
    5.5528   -8.0475    0.0000 N   0  0  0  0  0  0  0  0  0  0  0  0
    4.9009   -6.8967    0.0000 C   0  0  0  0  0  0  0  0  0  0  0  0
    5.5528   -5.7459    0.0000 N   0  0  0  0  0  0  0  0  0  0  0  0
    4.9009   -4.5951    0.0000 C   0  0  0  0  0  0  0  0  0  0  0  0
    5.5528   -3.4524    0.0000 O   0  0  0  0  0  0  0  0  0  0  0  0
    3.5731   -4.5951    0.0000 N   0  0  0  0  0  0  0  0  0  0  0  0
    2.9051   -5.7459    0.0000 C   0  0  0  0  0  0  0  0  0  0  0  0
    3.5731   -6.8967    0.0000 C   0  0  0  0  0  0  0  0  0  0  0  0
    2.9051   -8.0475    0.0000 I   0  0  0  0  0  0  0  0  0  0  0  0
    2.9051   -3.4524    0.0000 C   0  0  0  0  0  0  0  0  0  0  0  0
    2.2533   -4.7239    0.0000 H   0  0  0  0  0  0  0  0  0  0  0  0
    3.4524   -2.2372    0.0000 O   0  0  0  0  0  0  0  0  0  0  0  0
    2.4786   -1.3600    0.0000 C   0  0  0  0  0  0  0  0  0  0  0  0
    3.2431   -0.2897    0.0000 H   0  0  0  0  0  0  0  0  0  0  0  0
    1.9314   -0.1449    0.0000 C   0  0  0  0  0  0  0  0  0  0  0  0
    0.6036    0.0000    0.0000 O   0  0  0  0  0  0  0  0  0  0  0  0
    1.3278   -2.0119    0.0000 C   0  0  0  0  0  0  0  0  0  0  0  0
    0.5392   -0.9416    0.0000 H   0  0  0  0  0  0  0  0  0  0  0  0
    0.0000   -2.1567    0.0000 O   0  0  0  0  0  0  0  0  0  0  0  0
    1.5934   -3.3236    0.0000 C   0  0  0  0  0  0  0  0  0  0  0  0
    0.3380   -3.7340    0.0000 H   0  0  0  0  0  0  0  0  0  0  0  0
    1.3278   -4.6112    0.0000 F   0  0  0  0  0  0  0  0  0  0  0  0
  1  2  1  0  0  0  0
  2  3  2  0  0  0  0
  2  8  1  0  0  0  0
  3  4  1  0  0  0  0
  4  5  2  0  0  0  0
  4  6  1  0  0  0  0
  6  7  1  0  0  0  0
  6 10  1  0  0  0  0
  7  8  2  0  0  0  0
  8  9  1  0  0  0  0
 10 11  1  6  0  0  0
 10 12  1  0  0  0  0
 10 20  1  0  0  0  0
 12 13  1  0  0  0  0
 13 14  1  0  0  0  0
 13 15  1  1  0  0  0
 13 17  1  0  0  0  0
 15 16  1  0  0  0  0
 17 18  1  0  0  0  0
 17 19  1  6  0  0  0
 17 20  1  0  0  0  0
 20 21  1  0  0  0  0
 20 22  1  1  0  0  0
M  END
> <ID>
16205

> <Formula>
C9H11FIN3O4

> <FW>
371.1042

> <DSSTox_CID>
31596

> <DSSTox_RID>
97480

> <DSSTox_GSID>
57807

> <DSSTox_FileID_Sort>
8547

> <TS_ChemName>
Fiacitabine

> <TS_ChemName_Synonyms>


> <TS_CASRN>
69123-90-6

> <CASRN_ChemName_Relationship>
primary

> <TS_Description>
single chemical compound

> <ChemNote>


> <STRUCTURE_Shown>
tested chemical

> <STRUCTURE_Formula>
C9H11FIN3O4

> <STRUCTURE_MW>
371.1042

> <STRUCTURE_ChemType>
defined organic

> <STRUCTURE_DefinedOrganicForm>
parent

> <STRUCTURE_IUPAC>
4-amino-1-(2-deoxy-2-fluoro-beta-D-arabinofuranosyl)-5-iodopyrimidin-2(1H)-one

> <STRUCTURE_SMILES>
IC1=CN(C(=O)N=C1N)[C@@H]2O[C@H](CO)[C@@H](O)[C@@H]2F

> <STRUCTURE_SMILES_Desalt>
IC1=CN(C(=O)N=C1N)[C@@H]2O[C@H](CO)[C@@H](O)[C@@H]2F

> <Substance_modify_yyyymmdd>
20131018

$$$$
