692-13-7
ChemmineR-0915142007XD

 11 10  0  0  0  0  0  0  0  0  1 V2000
    0.0000   -1.9986    0.0000 C   0  0  0  0  0  0  0  0  0  0  0  0
    1.1513   -1.3355    0.0000 C   0  0  0  0  0  0  0  0  0  0  0  0
    2.3026   -1.9986    0.0000 C   0  0  0  0  0  0  0  0  0  0  0  0
    3.4539   -1.3355    0.0000 C   0  0  0  0  0  0  0  0  0  0  0  0
    4.6052   -1.9986    0.0000 N   0  0  0  0  0  0  0  0  0  0  0  0
    5.7565   -1.3355    0.0000 C   0  0  0  0  0  0  0  0  0  0  0  0
    5.7565    0.0000    0.0000 N   0  0  0  0  0  0  0  0  0  0  0  0
    6.9078   -1.9986    0.0000 N   0  0  0  0  0  0  0  0  0  0  0  0
    8.0591   -1.3355    0.0000 C   0  0  0  0  0  0  0  0  0  0  0  0
    9.2104   -1.9986    0.0000 N   0  0  0  0  0  0  0  0  0  0  0  0
    8.0591    0.0000    0.0000 N   0  0  0  0  0  0  0  0  0  0  0  0
  1  2  1  0  0  0  0
  2  3  1  0  0  0  0
  3  4  1  0  0  0  0
  4  5  1  0  0  0  0
  5  6  1  0  0  0  0
  6  7  2  0  0  0  0
  6  8  1  0  0  0  0
  8  9  1  0  0  0  0
  9 10  1  0  0  0  0
  9 11  2  0  0  0  0
M  END
> <ID>
11664

> <Formula>
C6H15N5

> <FW>
157.2168

> <DSSTox_CID>
26420

> <DSSTox_RID>
81598

> <DSSTox_GSID>
46420

> <DSSTox_FileID_Sort>
6279

> <TS_ChemName>
Buformin

> <TS_ChemName_Synonyms>


> <TS_CASRN>
692-13-7

> <CASRN_ChemName_Relationship>
primary

> <TS_Description>
single chemical compound

> <ChemNote>


> <STRUCTURE_Shown>
tested chemical

> <STRUCTURE_Formula>
C6H15N5

> <STRUCTURE_MW>
157.2168

> <STRUCTURE_ChemType>
defined organic

> <STRUCTURE_DefinedOrganicForm>
parent

> <STRUCTURE_IUPAC>
N-butylimidodicarbonimidic diamide

> <STRUCTURE_SMILES>
NC(=N)NC(=N)NCCCC

> <STRUCTURE_SMILES_Desalt>
NC(=N)NC(=N)NCCCC

> <Substance_modify_yyyymmdd>
20110813

$$$$
