69227-51-6
ChemmineR-0915142007XD

  9  8  0  0  0  0  0  0  0  0  2 V2000
    4.2355   -4.0301    0.0000 C    0  0  0  0  0  0  0  0  0  0  0  0
    2.6706   -1.8791    0.0000 C    0  0  0  0  0  0  0  0  0  0  0  0
    3.4561   -2.9546    0.0000 C    0  0  0  0  0  0  0  0  0  0  0  0
    6.0421   -1.0755    0.0000 C    0  0  0  0  0  0  0  0  0  0  0  0
    5.2626    0.0000    0.0000 C    0  0  0  0  0  0  0  0  0  0  0  0
    5.2626   -2.1510    0.0000 C    0  0  0  0  0  0  0  0  0  0  0  0
    3.9938   -0.4109    0.0000 C    0  0  0  0  0  0  0  0  0  0  0  0
    3.9938   -1.7401    0.0000 N    0  3  0  0  0  0  0  0  0  0  0  0
    0.0000   -1.0755    0.0000 Br   0  5  0  0  0  0  0  0  0  0  0  0
  1  3  1  0  0  0  0
  2  8  1  0  0  0  0
  3  8  1  0  0  0  0
  4  5  1  0  0  0  0
  4  6  1  0  0  0  0
  5  7  1  0  0  0  0
  6  8  1  0  0  0  0
  7  8  1  0  0  0  0
M  END
> <ID>
14211

> <Formula>
C7H16BrN

> <FW>
194.1126 (114.2081+79.9045)

> <DSSTox_CID>
29306

> <DSSTox_RID>
83422

> <DSSTox_GSID>
49347

> <DSSTox_FileID_Sort>
8097

> <TS_ChemName>
1-Ethyl-1-methylpyrrolidinium bromide

> <TS_ChemName_Synonyms>


> <TS_CASRN>
69227-51-6

> <CASRN_ChemName_Relationship>
primary

> <TS_Description>
single chemical compound

> <ChemNote>
stereochem

> <STRUCTURE_Shown>
tested chemical

> <STRUCTURE_Formula>
C7H16BrN

> <STRUCTURE_MW>
194.1126

> <STRUCTURE_ChemType>
defined organic

> <STRUCTURE_DefinedOrganicForm>
salt

> <STRUCTURE_IUPAC>
1-ethyl-1-methylpyrrolidinium bromide

> <STRUCTURE_SMILES>
[Br-].C[N+]1(CC)CCCC1

> <STRUCTURE_SMILES_Desalt>
C[N+]1(CC)CCCC1

> <Substance_modify_yyyymmdd>
20111204

$$$$
