6923-52-0
ChemmineR-0915142007XD

 13  9  0  0  0  0  0  0  0  0  2 V2000
    6.8186   -1.3313    0.0000 C    0  0  0  0  0  0  0  0  0  0  0  0
    6.8186    0.0000    0.0000 O    0  0  0  0  0  0  0  0  0  0  0  0
    5.6660   -1.9888    0.0000 O    0  5  0  0  0  0  0  0  0  0  0  0
    7.9713   -1.9888    0.0000 C    0  0  0  0  0  0  0  0  0  0  0  0
    6.9648   -4.1399    0.0000 C    0  0  0  0  0  0  0  0  0  0  0  0
    6.9648   -2.8086    0.0000 O    0  0  0  0  0  0  0  0  0  0  0  0
    5.8040   -4.7974    0.0000 O    0  5  0  0  0  0  0  0  0  0  0  0
    8.1174   -4.7974    0.0000 C    0  0  0  0  0  0  0  0  0  0  0  0
    1.1527   -2.6300    0.0000 C    0  0  0  0  0  0  0  0  0  0  0  0
    1.1527   -1.2988    0.0000 O    0  0  0  0  0  0  0  0  0  0  0  0
    0.0000   -3.2876    0.0000 O    0  5  0  0  0  0  0  0  0  0  0  0
    2.3135   -3.2876    0.0000 C    0  0  0  0  0  0  0  0  0  0  0  0
    3.5635   -4.7487    0.0000 Sb   0  1  0  0  0  0  0  0  0  0  0  0
  1  2  2  0  0  0  0
  1  3  1  0  0  0  0
  1  4  1  0  0  0  0
  5  6  2  0  0  0  0
  5  7  1  0  0  0  0
  5  8  1  0  0  0  0
  9 10  2  0  0  0  0
  9 11  1  0  0  0  0
  9 12  1  0  0  0  0
M  END
> <ID>
5920

> <Formula>
C6H9O6Sb

> <FW>
298.8921 (59.0446+59.0446+59.0446+121.7584)

> <DSSTox_CID>
9283

> <DSSTox_RID>
78748

> <DSSTox_GSID>
29283

> <DSSTox_FileID_Sort>
3430

> <TS_ChemName>
Acetic acid, antimony(3+) salt

> <TS_ChemName_Synonyms>


> <TS_CASRN>
6923-52-0

> <CASRN_ChemName_Relationship>
primary

> <TS_Description>
single chemical compound

> <ChemNote>


> <STRUCTURE_Shown>
tested chemical

> <STRUCTURE_Formula>
C6H9O6Sb

> <STRUCTURE_MW>
298.8921

> <STRUCTURE_ChemType>
organometallic

> <STRUCTURE_DefinedOrganicForm>


> <STRUCTURE_IUPAC>
antimony(3+) triacetate

> <STRUCTURE_SMILES>
[SbH3+3].O=C([O-])C.[O-]C(C)=O.[O-]C(C)=O

> <STRUCTURE_SMILES_Desalt>
CC(=O)O

> <Substance_modify_yyyymmdd>
20080429

$$$$
