6928-85-4
ChemmineR-0915142007XD

  8  8  0  0  0  0  0  0  0  0  1 V2000
    2.6588   -4.6080    0.0000 C   0  0  0  0  0  0  0  0  0  0  0  0
    1.9953   -3.4560    0.0000 N   0  0  0  0  0  0  0  0  0  0  0  0
    2.6588   -2.3040    0.0000 C   0  0  0  0  0  0  0  0  0  0  0  0
    1.9953   -1.1520    0.0000 C   0  0  0  0  0  0  0  0  0  0  0  0
    0.6635   -1.1520    0.0000 N   0  0  0  0  0  0  0  0  0  0  0  0
    0.0000    0.0000    0.0000 N   0  0  0  0  0  0  0  0  0  0  0  0
    0.0000   -2.3040    0.0000 C   0  0  0  0  0  0  0  0  0  0  0  0
    0.6635   -3.4560    0.0000 C   0  0  0  0  0  0  0  0  0  0  0  0
  1  2  1  0  0  0  0
  2  3  1  0  0  0  0
  2  8  1  0  0  0  0
  3  4  1  0  0  0  0
  4  5  1  0  0  0  0
  5  6  1  0  0  0  0
  5  7  1  0  0  0  0
  7  8  1  0  0  0  0
M  END
> <ID>
16206

> <Formula>
C5H13N3

> <FW>
115.1768

> <DSSTox_CID>
31597

> <DSSTox_RID>
97481

> <DSSTox_GSID>
57808

> <DSSTox_FileID_Sort>
8548

> <TS_ChemName>
4-Methyl-1-piperazinamine

> <TS_ChemName_Synonyms>


> <TS_CASRN>
6928-85-4

> <CASRN_ChemName_Relationship>
primary

> <TS_Description>
single chemical compound

> <ChemNote>


> <STRUCTURE_Shown>
tested chemical

> <STRUCTURE_Formula>
C5H13N3

> <STRUCTURE_MW>
115.1768

> <STRUCTURE_ChemType>
defined organic

> <STRUCTURE_DefinedOrganicForm>
parent

> <STRUCTURE_IUPAC>
4-methylpiperazin-1-amine

> <STRUCTURE_SMILES>
CN1CCN(N)CC1

> <STRUCTURE_SMILES_Desalt>
CN1CCN(N)CC1

> <Substance_modify_yyyymmdd>
20131018

$$$$
