693-07-2
ChemmineR-0915142007XD

  6  5  0  0  0  0  0  0  0  0  1 V2000
    1.1480    0.0000    0.0000 C    0  0  0  0  0  0  0  0  0  0  0  0
    2.2960   -0.6716    0.0000 C    0  0  0  0  0  0  0  0  0  0  0  0
    0.0000   -0.6716    0.0000 Cl   0  0  0  0  0  0  0  0  0  0  0  0
    3.4440    0.0000    0.0000 S    0  0  0  0  0  0  0  0  0  0  0  0
    4.5920   -0.6716    0.0000 C    0  0  0  0  0  0  0  0  0  0  0  0
    5.7400    0.0000    0.0000 C    0  0  0  0  0  0  0  0  0  0  0  0
  1  2  1  0  0  0  0
  1  3  1  0  0  0  0
  2  4  1  0  0  0  0
  4  5  1  0  0  0  0
  5  6  1  0  0  0  0
M  END
> <ID>
5058

> <Formula>
C4H9ClS

> <FW>
124.6323

> <DSSTox_CID>
7295

> <DSSTox_RID>
78393

> <DSSTox_GSID>
27295

> <DSSTox_FileID_Sort>
3076

> <TS_ChemName>
1-Chloro-2-(ethylthio)ethane

> <TS_ChemName_Synonyms>
Ethane, 1-chloro-2-(ethylthio)-

> <TS_CASRN>
693-07-2

> <CASRN_ChemName_Relationship>
primary

> <TS_Description>
single chemical compound

> <ChemNote>


> <STRUCTURE_Shown>
tested chemical

> <STRUCTURE_Formula>
C4H9ClS

> <STRUCTURE_MW>
124.6323

> <STRUCTURE_ChemType>
defined organic

> <STRUCTURE_DefinedOrganicForm>
parent

> <STRUCTURE_IUPAC>
2-chloroethyl ethyl sulfide

> <STRUCTURE_SMILES>
CCSCCCl

> <STRUCTURE_SMILES_Desalt>
CCSCCCl

> <Substance_modify_yyyymmdd>
20080429

$$$$
