693-95-8
ChemmineR-0915142007XD

  6  6  0  0  0  0  0  0  0  0  1 V2000
    0.0000   -2.1113    0.0000 N   0  0  0  0  0  0  0  0  0  0  0  0
    1.7437   -3.3726    0.0000 S   0  0  0  0  0  0  0  0  0  0  0  0
    0.4148   -3.3726    0.0000 C   0  0  0  0  0  0  0  0  0  0  0  0
    1.0860   -1.3254    0.0000 C   0  0  0  0  0  0  0  0  0  0  0  0
    2.1585   -2.1113    0.0000 C   0  0  0  0  0  0  0  0  0  0  0  0
    1.0860    0.0000    0.0000 C   0  0  0  0  0  0  0  0  0  0  0  0
  1  3  2  0  0  0  0
  1  4  1  0  0  0  0
  2  3  1  0  0  0  0
  2  5  1  0  0  0  0
  4  5  2  0  0  0  0
  4  6  1  0  0  0  0
M  END
> <ID>
5062

> <Formula>
C4H5NS

> <FW>
99.1542

> <DSSTox_CID>
7300

> <DSSTox_RID>
78395

> <DSSTox_GSID>
27300

> <DSSTox_FileID_Sort>
3078

> <TS_ChemName>
4-Methylthiazole

> <TS_ChemName_Synonyms>


> <TS_CASRN>
693-95-8

> <CASRN_ChemName_Relationship>
primary

> <TS_Description>
single chemical compound

> <ChemNote>


> <STRUCTURE_Shown>
tested chemical

> <STRUCTURE_Formula>
C4H5NS

> <STRUCTURE_MW>
99.1542

> <STRUCTURE_ChemType>
defined organic

> <STRUCTURE_DefinedOrganicForm>
parent

> <STRUCTURE_IUPAC>
4-methyl-1,3-thiazole

> <STRUCTURE_SMILES>
Cc1cscn1

> <STRUCTURE_SMILES_Desalt>
Cc1cscn1

> <Substance_modify_yyyymmdd>
20080429

$$$$
