693-13-0
ChemmineR-0915142007XD

  9  8  0  0  0  0  0  0  0  0  1 V2000
    3.4534   -1.3330    0.0000 C   0  0  0  0  0  0  0  0  0  0  0  0
    4.6068   -1.9960    0.0000 N   0  0  0  0  0  0  0  0  0  0  0  0
    5.7533   -1.3330    0.0000 C   0  0  0  0  0  0  0  0  0  0  0  0
    5.7533    0.0000    0.0000 C   0  0  0  0  0  0  0  0  0  0  0  0
    6.9067   -1.9960    0.0000 C   0  0  0  0  0  0  0  0  0  0  0  0
    2.2999   -0.6630    0.0000 N   0  0  0  0  0  0  0  0  0  0  0  0
    1.1534   -1.3330    0.0000 C   0  0  0  0  0  0  0  0  0  0  0  0
    1.1534   -2.6591    0.0000 C   0  0  0  0  0  0  0  0  0  0  0  0
    0.0000   -0.6630    0.0000 C   0  0  0  0  0  0  0  0  0  0  0  0
  1  2  2  0  0  0  0
  1  6  2  0  0  0  0
  2  3  1  0  0  0  0
  3  4  1  0  0  0  0
  3  5  1  0  0  0  0
  6  7  1  0  0  0  0
  7  8  1  0  0  0  0
  7  9  1  0  0  0  0
M  END
> <ID>
4010

> <Formula>
C7H14N2

> <FW>
126.1995

> <DSSTox_CID>
5086

> <DSSTox_RID>
77659

> <DSSTox_GSID>
25086

> <DSSTox_FileID_Sort>
2342

> <TS_ChemName>
Diisopropylcarbodiimide

> <TS_ChemName_Synonyms>


> <TS_CASRN>
693-13-0

> <CASRN_ChemName_Relationship>
primary

> <TS_Description>
single chemical compound

> <ChemNote>


> <STRUCTURE_Shown>
tested chemical

> <STRUCTURE_Formula>
C7H14N2

> <STRUCTURE_MW>
126.1995

> <STRUCTURE_ChemType>
defined organic

> <STRUCTURE_DefinedOrganicForm>
parent

> <STRUCTURE_IUPAC>
N,N'-dipropan-2-ylcarbodiimide

> <STRUCTURE_SMILES>
CC(C)/N=C=N/C(C)C

> <STRUCTURE_SMILES_Desalt>
CC(C)/N=C=N/C(C)C

> <Substance_modify_yyyymmdd>
20080429

$$$$
