693-98-1
ChemmineR-0915142007XD

  6  6  0  0  0  0  0  0  0  0  1 V2000
    0.0000   -1.0738    0.0000 C   0  0  0  0  0  0  0  0  0  0  0  0
    1.3304   -1.0738    0.0000 C   0  0  0  0  0  0  0  0  0  0  0  0
    2.1104    0.0000    0.0000 N   0  0  0  0  0  0  0  0  0  0  0  0
    3.3767   -0.4086    0.0000 C   0  0  0  0  0  0  0  0  0  0  0  0
    3.3767   -1.7390    0.0000 C   0  0  0  0  0  0  0  0  0  0  0  0
    2.1104   -2.1509    0.0000 N   0  0  0  0  0  0  0  0  0  0  0  0
  1  2  1  0  0  0  0
  2  3  2  0  0  0  0
  2  6  1  0  0  0  0
  3  4  1  0  0  0  0
  4  5  2  0  0  0  0
  5  6  1  0  0  0  0
M  END
> <ID>
1949

> <Formula>
C4H6N2

> <FW>
82.1038

> <DSSTox_CID>
2107

> <DSSTox_RID>
76489

> <DSSTox_GSID>
22107

> <DSSTox_FileID_Sort>
1173

> <TS_ChemName>
2-Methylimidazole

> <TS_ChemName_Synonyms>
2-Methylimidazole (2-Methyl-1H-imidazole)

> <TS_CASRN>
693-98-1

> <CASRN_ChemName_Relationship>
primary

> <TS_Description>
single chemical compound

> <ChemNote>


> <STRUCTURE_Shown>
tested chemical

> <STRUCTURE_Formula>
C4H6N2

> <STRUCTURE_MW>
82.1038

> <STRUCTURE_ChemType>
defined organic

> <STRUCTURE_DefinedOrganicForm>
parent

> <STRUCTURE_IUPAC>
2-methyl-1H-imidazole

> <STRUCTURE_SMILES>
Cc1nccn1

> <STRUCTURE_SMILES_Desalt>
Cc1nccn1

> <Substance_modify_yyyymmdd>
20080429

$$$$
