69327-76-0
ChemmineR-0915142007XD

 21 22  0  0  0  0  0  0  0  0  1 V2000
    4.7075   -4.6427    0.0000 S   0  0  0  0  0  0  0  0  0  0  0  0
    4.0138   -5.7988    0.0000 C   0  0  0  0  0  0  0  0  0  0  0  0
    2.6728   -5.7988    0.0000 N   0  0  0  0  0  0  0  0  0  0  0  0
    2.0162   -4.6427    0.0000 C   0  0  0  0  0  0  0  0  0  0  0  0
    2.6728   -3.4774    0.0000 N   0  0  0  0  0  0  0  0  0  0  0  0
    4.0138   -3.4774    0.0000 C   0  0  0  0  0  0  0  0  0  0  0  0
    0.6751   -4.6427    0.0000 O   0  0  0  0  0  0  0  0  0  0  0  0
    4.7075   -6.9733    0.0000 N   0  0  0  0  0  0  0  0  0  0  0  0
    5.4104   -8.1017    0.0000 C   0  0  0  0  0  0  0  0  0  0  0  0
    6.5572   -7.3988    0.0000 C   0  0  0  0  0  0  0  0  0  0  0  0
    4.2728   -8.8138    0.0000 C   0  0  0  0  0  0  0  0  0  0  0  0
    6.1225   -9.2485    0.0000 C   0  0  0  0  0  0  0  0  0  0  0  0
    2.0162   -6.9733    0.0000 C   0  0  0  0  0  0  0  0  0  0  0  0
    2.5341   -7.9074    0.0000 C   0  0  0  0  0  0  0  0  0  0  0  0
    0.6751   -6.9733    0.0000 C   0  0  0  0  0  0  0  0  0  0  0  0
    2.0162   -2.3399    0.0000 C   0  0  0  0  0  0  0  0  0  0  0  0
    0.6751   -2.3399    0.0000 C   0  0  0  0  0  0  0  0  0  0  0  0
    2.6728   -1.1746    0.0000 C   0  0  0  0  0  0  0  0  0  0  0  0
    0.0000   -1.1746    0.0000 C   0  0  0  0  0  0  0  0  0  0  0  0
    2.0162    0.0000    0.0000 C   0  0  0  0  0  0  0  0  0  0  0  0
    0.6751    0.0000    0.0000 C   0  0  0  0  0  0  0  0  0  0  0  0
  1  2  1  0  0  0  0
  1  6  1  0  0  0  0
  2  3  1  0  0  0  0
  2  8  2  0  0  0  0
  3  4  1  0  0  0  0
  3 13  1  0  0  0  0
  4  5  1  0  0  0  0
  4  7  2  0  0  0  0
  5  6  1  0  0  0  0
  5 16  1  0  0  0  0
  8  9  1  0  0  0  0
  9 10  1  0  0  0  0
  9 11  1  0  0  0  0
  9 12  1  0  0  0  0
 13 14  1  0  0  0  0
 13 15  1  0  0  0  0
 16 17  2  0  0  0  0
 16 18  1  0  0  0  0
 17 19  1  0  0  0  0
 18 20  2  0  0  0  0
 19 21  2  0  0  0  0
 20 21  1  0  0  0  0
M  END
> <ID>
6776

> <Formula>
C16H23N3OS

> <FW>
305.4383

> <DSSTox_CID>
14401

> <DSSTox_RID>
79153

> <DSSTox_GSID>
34401

> <DSSTox_FileID_Sort>
3835

> <TS_ChemName>
Buprofezin

> <TS_ChemName_Synonyms>
Buprofezin (4H-1,3,5-Thiadiazin-4-one, 2-{(1,1-dimethylethyl)imino}tetrahydro-3-(1-methylethyl)-5-phenyl-)

> <TS_CASRN>
69327-76-0

> <CASRN_ChemName_Relationship>
primary

> <TS_Description>
single chemical compound

> <ChemNote>


> <STRUCTURE_Shown>
tested chemical

> <STRUCTURE_Formula>
C16H23N3OS

> <STRUCTURE_MW>
305.4383

> <STRUCTURE_ChemType>
defined organic

> <STRUCTURE_DefinedOrganicForm>
parent

> <STRUCTURE_IUPAC>
2-(tert-butylimino)-5-phenyl-3-(propan-2-yl)-1,3,5-thiadiazinan-4-one

> <STRUCTURE_SMILES>
CC(C)(C)/N=C2\SCN(c1ccccc1)C(=O)N2C(C)C

> <STRUCTURE_SMILES_Desalt>
CC(C)(C)/N=C2\SCN(c1ccccc1)C(=O)N2C(C)C

> <Substance_modify_yyyymmdd>
20080429

$$$$
