6933-90-0
ChemmineR-0915142007XD

 15 14  0  0  0  0  0  0  0  0  1 V2000
    2.3097   -1.9948    0.0000 C    0  0  0  0  0  0  0  0  0  0  0  0
    2.3097   -3.3111    0.0000 C    0  0  0  0  0  0  0  0  0  0  0  0
    3.4646   -1.3164    0.0000 C    0  0  0  0  0  0  0  0  0  0  0  0
    5.7501   -1.3164    0.0000 N    0  0  0  0  0  0  0  0  0  0  0  0
    4.6114   -1.9948    0.0000 C    0  0  0  0  0  0  0  0  0  0  0  0
    3.4646   -3.9895    0.0000 Cl   0  0  0  0  0  0  0  0  0  0  0  0
    3.4646    0.0000    0.0000 O    0  0  0  0  0  0  0  0  0  0  0  0
    1.1710   -1.3325    0.0000 C    0  0  0  0  0  0  0  0  0  0  0  0
    6.9050   -1.9948    0.0000 C    0  0  0  0  0  0  0  0  0  0  0  0
    1.1710   -3.9734    0.0000 C    0  0  0  0  0  0  0  0  0  0  0  0
    8.0760   -1.3164    0.0000 C    0  0  0  0  0  0  0  0  0  0  0  0
    6.9050   -3.3111    0.0000 C    0  0  0  0  0  0  0  0  0  0  0  0
    0.0000   -1.9948    0.0000 C    0  0  0  0  0  0  0  0  0  0  0  0
    0.0000   -3.3111    0.0000 C    0  0  0  0  0  0  0  0  0  0  0  0
    4.6437   -2.8831    0.0000 Cl   0  0  0  0  0  0  0  0  0  0  0  0
  1  2  2  0  0  0  0
  1  3  1  0  0  0  0
  1  8  1  0  0  0  0
  2  6  1  0  0  0  0
  2 10  1  0  0  0  0
  3  5  1  0  0  0  0
  3  7  1  0  0  0  0
  4  5  1  0  0  0  0
  4  9  1  0  0  0  0
  8 13  2  0  0  0  0
  9 11  1  0  0  0  0
  9 12  1  0  0  0  0
 10 14  2  0  0  0  0
 13 14  1  0  0  0  0
M  END
> <ID>
11897

> <Formula>
C11H17Cl2NO

> <FW>
250.1648 (213.7038+36.4609)

> <DSSTox_CID>
26699

> <DSSTox_RID>
81833

> <DSSTox_GSID>
46699

> <DSSTox_FileID_Sort>
6514

> <TS_ChemName>
Clorprenaline hydrochloride

> <TS_ChemName_Synonyms>


> <TS_CASRN>
6933-90-0

> <CASRN_ChemName_Relationship>
primary

> <TS_Description>
single chemical compound

> <ChemNote>


> <STRUCTURE_Shown>
tested chemical

> <STRUCTURE_Formula>
C11H17Cl2NO

> <STRUCTURE_MW>
250.1648

> <STRUCTURE_ChemType>
defined organic

> <STRUCTURE_DefinedOrganicForm>
complex

> <STRUCTURE_IUPAC>
1-(2-chlorophenyl)-2-(propan-2-ylamino)ethanol hydrochloride (1:1)

> <STRUCTURE_SMILES>
Cl.OC(CNC(C)C)c1ccccc1Cl

> <STRUCTURE_SMILES_Desalt>
OC(CNC(C)C)c1ccccc1Cl

> <Substance_modify_yyyymmdd>
20110805

$$$$
