6938-94-9
ChemmineR-0915142007XD

 16 15  0  0  0  0  0  0  0  0  1 V2000
    3.4700   -1.3092    0.0000 C   0  0  0  0  0  0  0  0  0  0  0  0
    4.6266   -1.9828    0.0000 C   0  0  0  0  0  0  0  0  0  0  0  0
    5.7578   -1.3092    0.0000 C   0  0  0  0  0  0  0  0  0  0  0  0
    6.9526   -1.9828    0.0000 C   0  0  0  0  0  0  0  0  0  0  0  0
    8.0838   -1.3092    0.0000 C   0  0  0  0  0  0  0  0  0  0  0  0
    9.2405   -1.9828    0.0000 C   0  0  0  0  0  0  0  0  0  0  0  0
    3.4700    0.0000    0.0000 O   0  0  0  0  0  0  0  0  0  0  0  0
    2.3387   -1.9828    0.0000 O   0  0  0  0  0  0  0  0  0  0  0  0
    9.2405   -3.2920    0.0000 O   0  0  0  0  0  0  0  0  0  0  0  0
   10.4226   -1.3092    0.0000 O   0  0  0  0  0  0  0  0  0  0  0  0
    1.1567   -1.3092    0.0000 C   0  0  0  0  0  0  0  0  0  0  0  0
    0.0000   -1.9828    0.0000 C   0  0  0  0  0  0  0  0  0  0  0  0
    1.1567    0.0000    0.0000 C   0  0  0  0  0  0  0  0  0  0  0  0
   11.5538   -1.9828    0.0000 C   0  0  0  0  0  0  0  0  0  0  0  0
   12.7104   -1.3092    0.0000 C   0  0  0  0  0  0  0  0  0  0  0  0
   11.5538   -3.2920    0.0000 C   0  0  0  0  0  0  0  0  0  0  0  0
  1  2  1  0  0  0  0
  1  8  1  0  0  0  0
  1  7  2  0  0  0  0
  2  3  1  0  0  0  0
  3  4  1  0  0  0  0
  4  5  1  0  0  0  0
  5  6  1  0  0  0  0
  6 10  1  0  0  0  0
  6  9  2  0  0  0  0
  8 11  1  0  0  0  0
 10 14  1  0  0  0  0
 11 12  1  0  0  0  0
 11 13  1  0  0  0  0
 14 15  1  0  0  0  0
 14 16  1  0  0  0  0
M  END
> <ID>
5318

> <Formula>
C12H22O4

> <FW>
230.3007

> <DSSTox_CID>
7641

> <DSSTox_RID>
78539

> <DSSTox_GSID>
27641

> <DSSTox_FileID_Sort>
3222

> <TS_ChemName>
Diisopropyl adipate

> <TS_ChemName_Synonyms>
Diisopropyl adipate (Hexanedioic acid, bis(1-methylethyl) ester)

> <TS_CASRN>
6938-94-9

> <CASRN_ChemName_Relationship>
primary

> <TS_Description>
single chemical compound

> <ChemNote>


> <STRUCTURE_Shown>
tested chemical

> <STRUCTURE_Formula>
C12H22O4

> <STRUCTURE_MW>
230.3007

> <STRUCTURE_ChemType>
defined organic

> <STRUCTURE_DefinedOrganicForm>
parent

> <STRUCTURE_IUPAC>
dipropan-2-yl hexanedioate

> <STRUCTURE_SMILES>
CC(C)OC(=O)CCCCC(=O)OC(C)C

> <STRUCTURE_SMILES_Desalt>
CC(C)OC(=O)CCCCC(=O)OC(C)C

> <Substance_modify_yyyymmdd>
20080429

$$$$
