69388-79-0
ChemmineR-0915142007XD

 23 24  0  0  0  0  0  0  0  0  1 V2000
    3.4349   -0.9578    0.0000 S   0  0  0  0  0  0  0  0  0  0  0  0
    2.1248   -2.7523    0.0000 N   0  0  0  0  0  0  0  0  0  0  0  0
    4.2055   -2.0147    0.0000 C   0  0  0  0  0  0  0  0  0  0  0  0
    2.1248   -1.3982    0.0000 C   0  0  0  0  0  0  0  0  0  0  0  0
    3.4128   -3.1486    0.0000 C   0  0  0  0  0  0  0  0  0  0  0  0
    0.7706   -2.7523    0.0000 C   0  0  0  0  0  0  0  0  0  0  0  0
    0.7706   -1.3982    0.0000 C   0  0  0  0  0  0  0  0  0  0  0  0
    3.8532   -4.4477    0.0000 C   0  0  0  0  0  0  0  0  0  0  0  0
    2.7523    0.0000    0.0000 O   0  0  0  0  0  0  0  0  0  0  0  0
    4.2936    0.0000    0.0000 O   0  0  0  0  0  0  0  0  0  0  0  0
    0.0000   -3.5890    0.0000 O   0  0  0  0  0  0  0  0  0  0  0  0
    2.9615   -5.4715    0.0000 O   0  0  0  0  0  0  0  0  0  0  0  0
    5.0312   -3.1156    0.0000 C   0  0  0  0  0  0  0  0  0  0  0  0
    4.9981   -0.9578    0.0000 C   0  0  0  0  0  0  0  0  0  0  0  0
    5.2073   -4.7339    0.0000 O   0  0  0  0  0  0  0  0  0  0  0  0
    6.3853   -4.0844    0.0000 C   0  0  0  0  0  0  0  0  0  0  0  0
    7.5192   -4.7339    0.0000 O   0  0  0  0  0  0  0  0  0  0  0  0
    8.6642   -4.0844    0.0000 C   0  0  0  0  0  0  0  0  0  0  0  0
    9.8422   -4.7339    0.0000 C   0  0  0  0  0  0  0  0  0  0  0  0
    8.6642   -2.7523    0.0000 O   0  0  0  0  0  0  0  0  0  0  0  0
   11.0091   -5.3945    0.0000 C   0  0  0  0  0  0  0  0  0  0  0  0
    9.1706   -5.8679    0.0000 C   0  0  0  0  0  0  0  0  0  0  0  0
   10.5357   -3.5560    0.0000 C   0  0  0  0  0  0  0  0  0  0  0  0
  1  3  1  0  0  0  0
  1  4  1  0  0  0  0
  1  9  2  0  0  0  0
  1 10  2  0  0  0  0
  2  4  1  0  0  0  0
  2  5  1  0  0  0  0
  2  6  1  0  0  0  0
  3  5  1  0  0  0  0
  3 13  1  0  0  0  0
  3 14  1  0  0  0  0
  4  7  1  0  0  0  0
  5  8  1  0  0  0  0
  6  7  1  0  0  0  0
  6 11  2  0  0  0  0
  8 12  2  0  0  0  0
  8 15  1  0  0  0  0
 15 16  1  0  0  0  0
 16 17  1  0  0  0  0
 17 18  1  0  0  0  0
 18 19  1  0  0  0  0
 18 20  2  0  0  0  0
 19 21  1  0  0  0  0
 19 22  1  0  0  0  0
 19 23  1  0  0  0  0
M  END
> <ID>
13685

> <Formula>
C14H21NO7S

> <FW>
347.384

> <DSSTox_CID>
28618

> <DSSTox_RID>
82888

> <DSSTox_GSID>
48692

> <DSSTox_FileID_Sort>
7565

> <TS_ChemName>
Pivoxil Sulbactam

> <TS_ChemName_Synonyms>


> <TS_CASRN>
69388-79-0

> <CASRN_ChemName_Relationship>
primary

> <TS_Description>
single chemical compound

> <ChemNote>


> <STRUCTURE_Shown>
tested chemical

> <STRUCTURE_Formula>
C14H21NO7S

> <STRUCTURE_MW>
347.384

> <STRUCTURE_ChemType>
defined organic

> <STRUCTURE_DefinedOrganicForm>
parent

> <STRUCTURE_IUPAC>
[(2,2-dimethylpropanoyl)oxy]methyl 3,3-dimethyl-7-oxo-4-thia-1-azabicyclo[3.2.0]heptane-2-carboxylate 4,4-dioxide

> <STRUCTURE_SMILES>
O=S1(=O)C2CC(=O)N2C(C(=O)OCOC(=O)C(C)(C)C)C1(C)C

> <STRUCTURE_SMILES_Desalt>
O=S1(=O)C2CC(=O)N2C(C(=O)OCOC(=O)C(C)(C)C)C1(C)C

> <Substance_modify_yyyymmdd>
20111204

$$$$
