694-83-7
ChemmineR-0915142007XD

  8  8  0  0  0  0  0  0  0  0  1 V2000
    1.1521   -1.3275    0.0000 C   0  0  0  0  0  0  0  0  0  0  0  0
    2.3043   -2.0013    0.0000 C   0  0  0  0  0  0  0  0  0  0  0  0
    2.3043   -3.3288    0.0000 C   0  0  0  0  0  0  0  0  0  0  0  0
    1.1521   -3.9866    0.0000 C   0  0  0  0  0  0  0  0  0  0  0  0
    0.0000   -3.3288    0.0000 C   0  0  0  0  0  0  0  0  0  0  0  0
    0.0000   -2.0013    0.0000 C   0  0  0  0  0  0  0  0  0  0  0  0
    1.1521    0.0000    0.0000 N   0  0  0  0  0  0  0  0  0  0  0  0
    3.4564   -1.3275    0.0000 N   0  0  0  0  0  0  0  0  0  0  0  0
  1  2  1  0  0  0  0
  1  6  1  0  0  0  0
  1  7  1  0  0  0  0
  2  3  1  0  0  0  0
  2  8  1  0  0  0  0
  3  4  1  0  0  0  0
  4  5  1  0  0  0  0
  5  6  1  0  0  0  0
M  END
> <ID>
5063

> <Formula>
C6H14N2

> <FW>
114.1888

> <DSSTox_CID>
7301

> <DSSTox_RID>
78396

> <DSSTox_GSID>
27301

> <DSSTox_FileID_Sort>
3079

> <TS_ChemName>
1,2-Cyclohexanediamine

> <TS_ChemName_Synonyms>


> <TS_CASRN>
694-83-7

> <CASRN_ChemName_Relationship>
primary

> <TS_Description>
single chemical compound

> <ChemNote>


> <STRUCTURE_Shown>
tested chemical

> <STRUCTURE_Formula>
C6H14N2

> <STRUCTURE_MW>
114.1888

> <STRUCTURE_ChemType>
defined organic

> <STRUCTURE_DefinedOrganicForm>
parent

> <STRUCTURE_IUPAC>
cyclohexane-1,2-diamine

> <STRUCTURE_SMILES>
NC1CCCCC1N

> <STRUCTURE_SMILES_Desalt>
NC1CCCCC1N

> <Substance_modify_yyyymmdd>
20080429

$$$$
