69409-94-5
ChemmineR-0915142007XD

 35 37  0  0  0  0  0  0  0  0  1 V2000
   11.4321   -3.3635    0.0000 C    0  0  0  0  0  0  0  0  0  0  0  0
   10.3110   -2.7018    0.0000 C    0  0  0  0  0  0  0  0  0  0  0  0
   12.6084   -2.7018    0.0000 C    0  0  0  0  0  0  0  0  0  0  0  0
   11.4321   -4.6500    0.0000 C    0  0  0  0  0  0  0  0  0  0  0  0
    9.1898   -3.3635    0.0000 O    0  0  0  0  0  0  0  0  0  0  0  0
   10.3110   -1.3417    0.0000 C    0  0  0  0  0  0  0  0  0  0  0  0
   13.7663   -3.3635    0.0000 C    0  0  0  0  0  0  0  0  0  0  0  0
   12.6084   -5.3668    0.0000 C    0  0  0  0  0  0  0  0  0  0  0  0
    8.0135   -2.7018    0.0000 C    0  0  0  0  0  0  0  0  0  0  0  0
   10.3110    0.0000    0.0000 N    0  0  0  0  0  0  0  0  0  0  0  0
   14.9242   -2.7018    0.0000 O    0  0  0  0  0  0  0  0  0  0  0  0
   13.7663   -4.6500    0.0000 C    0  0  0  0  0  0  0  0  0  0  0  0
    6.8188   -3.3635    0.0000 C    0  0  0  0  0  0  0  0  0  0  0  0
    8.0135   -1.3417    0.0000 O    0  0  0  0  0  0  0  0  0  0  0  0
   16.0638   -3.3635    0.0000 C    0  0  0  0  0  0  0  0  0  0  0  0
    5.6977   -2.7018    0.0000 N    0  0  0  0  0  0  0  0  0  0  0  0
    6.8188   -4.6500    0.0000 C    0  0  0  0  0  0  0  0  0  0  0  0
   16.0638   -4.6500    0.0000 C    0  0  0  0  0  0  0  0  0  0  0  0
   17.1849   -2.7018    0.0000 C    0  0  0  0  0  0  0  0  0  0  0  0
    4.5581   -3.3635    0.0000 C    0  0  0  0  0  0  0  0  0  0  0  0
    5.6977   -5.3668    0.0000 C    0  0  0  0  0  0  0  0  0  0  0  0
    8.0135   -5.3668    0.0000 C    0  0  0  0  0  0  0  0  0  0  0  0
   17.1849   -5.3668    0.0000 C    0  0  0  0  0  0  0  0  0  0  0  0
   18.3796   -3.3635    0.0000 C    0  0  0  0  0  0  0  0  0  0  0  0
    3.4554   -2.7018    0.0000 C    0  0  0  0  0  0  0  0  0  0  0  0
    4.5581   -4.6500    0.0000 C    0  0  0  0  0  0  0  0  0  0  0  0
   18.3796   -4.6500    0.0000 C    0  0  0  0  0  0  0  0  0  0  0  0
    2.2791   -3.3635    0.0000 C    0  0  0  0  0  0  0  0  0  0  0  0
    3.4554   -1.3417    0.0000 Cl   0  0  0  0  0  0  0  0  0  0  0  0
    3.4554   -5.3668    0.0000 C    0  0  0  0  0  0  0  0  0  0  0  0
    2.2791   -4.6500    0.0000 C    0  0  0  0  0  0  0  0  0  0  0  0
    1.1763   -5.3668    0.0000 C    0  0  0  0  0  0  0  0  0  0  0  0
    1.8380   -6.4880    0.0000 F    0  0  0  0  0  0  0  0  0  0  0  0
    0.0000   -6.0101    0.0000 F    0  0  0  0  0  0  0  0  0  0  0  0
    0.4779   -4.1905    0.0000 F    0  0  0  0  0  0  0  0  0  0  0  0
  1  2  1  0  0  0  0
  1  3  1  0  0  0  0
  1  4  2  0  0  0  0
  2  5  1  0  0  0  0
  2  6  1  0  0  0  0
  3  7  2  0  0  0  0
  4  8  1  0  0  0  0
  5  9  1  0  0  0  0
  6 10  3  0  0  0  0
  7 11  1  0  0  0  0
  7 12  1  0  0  0  0
  8 12  2  0  0  0  0
  9 13  1  0  0  0  0
  9 14  2  0  0  0  0
 11 15  1  0  0  0  0
 13 16  1  0  0  0  0
 13 17  1  0  0  0  0
 15 18  2  0  0  0  0
 15 19  1  0  0  0  0
 16 20  1  0  0  0  0
 17 21  1  0  0  0  0
 17 22  1  0  0  0  0
 18 23  1  0  0  0  0
 19 24  2  0  0  0  0
 20 25  2  0  0  0  0
 20 26  1  0  0  0  0
 23 27  2  0  0  0  0
 24 27  1  0  0  0  0
 25 28  1  0  0  0  0
 25 29  1  0  0  0  0
 26 30  2  0  0  0  0
 28 31  2  0  0  0  0
 30 31  1  0  0  0  0
 31 32  1  0  0  0  0
 32 33  1  0  0  0  0
 32 34  1  0  0  0  0
 32 35  1  0  0  0  0
M  END
> <ID>
3509

> <Formula>
C26H22ClF3N2O3

> <FW>
502.9127

> <DSSTox_CID>
4110

> <DSSTox_RID>
77295

> <DSSTox_GSID>
24110

> <DSSTox_FileID_Sort>
1978

> <TS_ChemName>
Fluvalinate

> <TS_ChemName_Synonyms>


> <TS_CASRN>
69409-94-5

> <CASRN_ChemName_Relationship>
primary

> <TS_Description>
single chemical compound

> <ChemNote>
mixture of (R,S) isomers; structure shown without stereochem

> <STRUCTURE_Shown>
tested chemical

> <STRUCTURE_Formula>
C26H22ClF3N2O3

> <STRUCTURE_MW>
502.9127

> <STRUCTURE_ChemType>
defined organic

> <STRUCTURE_DefinedOrganicForm>
parent

> <STRUCTURE_IUPAC>
cyano(3-phenoxyphenyl)methyl N-[2-chloro-4-(trifluoromethyl)phenyl]valinate

> <STRUCTURE_SMILES>
Clc3cc(ccc3NC(C(=O)OC(C#N)c2cccc(Oc1ccccc1)c2)C(C)C)C(F)(F)F

> <STRUCTURE_SMILES_Desalt>
Clc3cc(ccc3NC(C(=O)OC(C#N)c2cccc(Oc1ccccc1)c2)C(C)C)C(F)(F)F

> <Substance_modify_yyyymmdd>
20080429

$$$$
