695-53-4
ChemmineR-0915142007XD

  9  9  0  0  0  0  0  0  0  0  1 V2000
    3.4264    0.0000    0.0000 C   0  0  0  0  0  0  0  0  0  0  0  0
    3.2878   -1.3253    0.0000 C   0  0  0  0  0  0  0  0  0  0  0  0
    3.4264   -2.6460    0.0000 C   0  0  0  0  0  0  0  0  0  0  0  0
    4.5808   -3.3109    0.0000 O   0  0  0  0  0  0  0  0  0  0  0  0
    2.2119   -3.1862    0.0000 N   0  0  0  0  0  0  0  0  0  0  0  0
    1.3207   -2.1980    0.0000 C   0  0  0  0  0  0  0  0  0  0  0  0
    0.0000   -2.3366    0.0000 O   0  0  0  0  0  0  0  0  0  0  0  0
    1.9856   -1.0482    0.0000 O   0  0  0  0  0  0  0  0  0  0  0  0
    4.6177   -1.3253    0.0000 C   0  0  0  0  0  0  0  0  0  0  0  0
  1  2  1  0  0  0  0
  2  3  1  0  0  0  0
  2  8  1  0  0  0  0
  2  9  1  0  0  0  0
  3  4  2  0  0  0  0
  3  5  1  0  0  0  0
  5  6  1  0  0  0  0
  6  7  2  0  0  0  0
  6  8  1  0  0  0  0
M  END
> <ID>
462

> <Formula>
C5H7NO3

> <FW>
129.114

> <DSSTox_CID>
478

> <DSSTox_RID>
75614

> <DSSTox_GSID>
20478

> <DSSTox_FileID_Sort>
298

> <TS_ChemName>
Dimethadione

> <TS_ChemName_Synonyms>


> <TS_CASRN>
695-53-4

> <CASRN_ChemName_Relationship>
primary

> <TS_Description>
single chemical compound

> <ChemNote>


> <STRUCTURE_Shown>
tested chemical

> <STRUCTURE_Formula>
C5H7NO3

> <STRUCTURE_MW>
129.114

> <STRUCTURE_ChemType>
defined organic

> <STRUCTURE_DefinedOrganicForm>
parent

> <STRUCTURE_IUPAC>
5,5-dimethyl-1,3-oxazolidine-2,4-dione

> <STRUCTURE_SMILES>
O=C1NC(=O)C(C)(C)O1

> <STRUCTURE_SMILES_Desalt>
O=C1NC(=O)C(C)(C)O1

> <Substance_modify_yyyymmdd>
20080429

$$$$
