695-06-7
ChemmineR-0915142007XD

  8  8  0  0  0  0  0  0  0  0  1 V2000
    4.4033   -0.7892    0.0000 C   0  0  0  0  0  0  0  0  0  0  0  0
    3.3397    0.0000    0.0000 O   0  0  0  0  0  0  0  0  0  0  0  0
    5.7186   -0.4346    0.0000 O   0  0  0  0  0  0  0  0  0  0  0  0
    3.9859   -2.0244    0.0000 C   0  0  0  0  0  0  0  0  0  0  0  0
    2.2474   -0.7720    0.0000 C   0  0  0  0  0  0  0  0  0  0  0  0
    2.6649   -2.0244    0.0000 C   0  0  0  0  0  0  0  0  0  0  0  0
    0.9779   -0.3831    0.0000 C   0  0  0  0  0  0  0  0  0  0  0  0
    0.0000   -1.3038    0.0000 C   0  0  0  0  0  0  0  0  0  0  0  0
  1  2  1  0  0  0  0
  1  3  2  0  0  0  0
  1  4  1  0  0  0  0
  2  5  1  0  0  0  0
  4  6  1  0  0  0  0
  5  7  1  0  0  0  0
  5  6  1  0  0  0  0
  7  8  1  0  0  0  0
M  END
> <ID>
8266

> <Formula>
C6H10O2

> <FW>
114.1424

> <DSSTox_CID>
21298

> <DSSTox_RID>
79681

> <DSSTox_GSID>
41298

> <DSSTox_FileID_Sort>
4363

> <TS_ChemName>
gamma-Caprolactone

> <TS_ChemName_Synonyms>
2(3H)-Furanone, 5-ethyldihydro-; 5-Ethyldihydrofuran-2(3H)-one

> <TS_CASRN>
695-06-7

> <CASRN_ChemName_Relationship>
primary

> <TS_Description>
single chemical compound

> <ChemNote>


> <STRUCTURE_Shown>
tested chemical

> <STRUCTURE_Formula>
C6H10O2

> <STRUCTURE_MW>
114.1424

> <STRUCTURE_ChemType>
defined organic

> <STRUCTURE_DefinedOrganicForm>
parent

> <STRUCTURE_IUPAC>
5-ethyldihydrofuran-2(3H)-one

> <STRUCTURE_SMILES>
O=C1CCC(CC)O1

> <STRUCTURE_SMILES_Desalt>
O=C1CCC(CC)O1

> <Substance_modify_yyyymmdd>
20080825

$$$$
