69558-55-0
ChemmineR-0915142007XD

 48 48  0  0  1  0  0  0  0  0  1 V2000
   13.8227   -4.0000    0.0000 C   0  0  0  0  0  0  0  0  0  0  0  0
   14.9619   -4.6582    0.0000 C   0  0  0  0  0  0  0  0  0  0  0  0
   12.6581   -4.6582    0.0000 N   0  0  0  0  0  0  0  0  0  0  0  0
   13.8227   -2.6835    0.0000 C   0  0  0  0  0  0  0  0  0  0  0  0
   16.1011   -4.0000    0.0000 N   0  0  0  0  0  0  0  0  0  0  0  0
   14.9619   -5.9999    0.0000 O   0  0  0  0  0  0  0  0  0  0  0  0
   11.5189   -4.0000    0.0000 C   0  0  0  0  0  0  0  0  0  0  0  0
   14.9619   -2.0000    0.0000 C   0  0  0  0  0  0  0  0  0  0  0  0
   17.2657   -4.6582    0.0000 C   0  0  0  0  0  0  0  0  0  0  0  0
   10.3797   -4.6835    0.0000 C   0  0  0  0  0  0  0  0  0  0  0  0
   11.5189   -2.6835    0.0000 O   0  0  0  0  0  0  0  0  0  0  0  0
   16.1011   -2.6582    0.0000 O   0  0  0  0  0  0  0  0  0  0  0  0
   14.9619   -0.6835    0.0000 O   0  0  0  0  0  0  0  0  0  0  0  0
   18.4049   -4.0000    0.0000 C   0  0  0  0  0  0  0  0  0  0  0  0
   17.2657   -5.9746    0.0000 C   0  0  0  0  0  0  0  0  0  0  0  0
    9.2151   -4.0000    0.0000 N   0  0  0  0  0  0  0  0  0  0  0  0
   10.3543   -6.0253    0.0000 C   0  0  0  0  0  0  0  0  0  0  0  0
   19.5441   -4.6582    0.0000 N   0  0  0  0  0  0  0  0  0  0  0  0
   18.4049   -2.6582    0.0000 O   0  0  0  0  0  0  0  0  0  0  0  0
   16.1011   -6.6582    0.0000 C   0  0  0  0  0  0  0  0  0  0  0  0
   18.4049   -6.6582    0.0000 C   0  0  0  0  0  0  0  0  0  0  0  0
    8.0759   -4.6835    0.0000 C   0  0  0  0  0  0  0  0  0  0  0  0
   11.5189   -6.6582    0.0000 C   0  0  0  0  0  0  0  0  0  0  0  0
   20.7087   -3.9747    0.0000 C   0  0  0  0  0  0  0  0  0  0  0  0
    6.9113   -4.0253    0.0000 C   0  0  0  0  0  0  0  0  0  0  0  0
    8.0759   -6.0253    0.0000 O   0  0  0  0  0  0  0  0  0  0  0  0
   11.5189   -7.9999    0.0000 C   0  0  0  0  0  0  0  0  0  0  0  0
   20.7087   -2.6582    0.0000 C   0  0  0  0  0  0  0  0  0  0  0  0
   21.8479   -4.6582    0.0000 C   0  0  0  0  0  0  0  0  0  0  0  0
    5.7721   -4.7088    0.0000 C   0  0  0  0  0  0  0  0  0  0  0  0
    6.9113   -2.7088    0.0000 N   0  0  0  0  0  0  0  0  0  0  0  0
   12.6834   -8.6835    0.0000 C   0  0  0  0  0  0  0  0  0  0  0  0
   21.8479   -2.0000    0.0000 C   0  0  0  0  0  0  0  0  0  0  0  0
   23.0125   -3.9747    0.0000 O   0  0  0  0  0  0  0  0  0  0  0  0
   21.8479   -5.9746    0.0000 O   0  0  0  0  0  0  0  0  0  0  0  0
    4.6076   -4.0506    0.0000 C   0  0  0  0  0  0  0  0  0  0  0  0
   12.6834   -9.9999    0.0000 N   0  0  0  0  0  0  0  0  0  0  0  0
   23.0125   -2.6582    0.0000 C   0  0  0  0  0  0  0  0  0  0  0  0
   21.8479   -0.6582    0.0000 C   0  0  0  0  0  0  0  0  0  0  0  0
    3.4683   -4.7595    0.0000 C   0  0  0  0  0  0  0  0  0  0  0  0
   24.1517   -1.9747    0.0000 C   0  0  0  0  0  0  0  0  0  0  0  0
   23.0125    0.0000    0.0000 C   0  0  0  0  0  0  0  0  0  0  0  0
    2.3038   -4.1012    0.0000 N   0  0  0  0  0  0  0  0  0  0  0  0
   24.1517   -0.6582    0.0000 C   0  0  0  0  0  0  0  0  0  0  0  0
    1.1645   -4.7595    0.0000 C   0  0  0  0  0  0  0  0  0  0  0  0
   25.3162    0.0000    0.0000 O   0  0  0  0  0  0  0  0  0  0  0  0
    0.0000   -4.1012    0.0000 N   0  0  0  0  0  0  0  0  0  0  0  0
    1.1645   -6.1012    0.0000 N   0  0  0  0  0  0  0  0  0  0  0  0
  1  2  1  0  0  0  0
  1  3  1  1  0  0  0
  1  4  1  0  0  0  0
  2  5  1  0  0  0  0
  2  6  2  0  0  0  0
  3  7  1  0  0  0  0
  4  8  1  0  0  0  0
  9  5  1  6  0  0  0
  7 10  1  0  0  0  0
  7 11  2  0  0  0  0
  8 12  1  0  0  0  0
  8 13  2  0  0  0  0
  9 14  1  0  0  0  0
  9 15  1  0  0  0  0
 10 16  1  6  0  0  0
 10 17  1  0  0  0  0
 14 18  1  0  0  0  0
 14 19  2  0  0  0  0
 15 20  1  0  0  0  0
 15 21  1  0  0  0  0
 16 22  1  0  0  0  0
 17 23  1  0  0  0  0
 18 24  1  0  0  0  0
 22 25  1  0  0  0  0
 22 26  2  0  0  0  0
 23 27  1  0  0  0  0
 24 28  1  1  0  0  0
 24 29  1  0  0  0  0
 25 30  1  0  0  0  0
 25 31  1  6  0  0  0
 27 32  1  0  0  0  0
 28 33  1  0  0  0  0
 29 34  1  0  0  0  0
 29 35  2  0  0  0  0
 30 36  1  0  0  0  0
 32 37  1  0  0  0  0
 33 38  2  0  0  0  0
 33 39  1  0  0  0  0
 36 40  1  0  0  0  0
 38 41  1  0  0  0  0
 39 42  2  0  0  0  0
 40 43  1  0  0  0  0
 41 44  2  0  0  0  0
 42 44  1  0  0  0  0
 43 45  1  0  0  0  0
 44 46  1  0  0  0  0
 45 47  1  0  0  0  0
 45 48  2  0  0  0  0
M  END
> <ID>
11829

> <Formula>
C30H49N9O9

> <FW>
679.765

> <DSSTox_CID>
26609

> <DSSTox_RID>
81764

> <DSSTox_GSID>
46609

> <DSSTox_FileID_Sort>
6445

> <TS_ChemName>
Thymopentin

> <TS_ChemName_Synonyms>


> <TS_CASRN>
69558-55-0

> <CASRN_ChemName_Relationship>
primary

> <TS_Description>
single chemical compound

> <ChemNote>
stereochem; tautomers

> <STRUCTURE_Shown>
tested chemical

> <STRUCTURE_Formula>
C30H49N9O9

> <STRUCTURE_MW>
679.765

> <STRUCTURE_ChemType>
defined organic

> <STRUCTURE_DefinedOrganicForm>
parent

> <STRUCTURE_IUPAC>
L-arginyl-L-lysyl-L-alpha-aspartyl-L-valyl-L-tyrosine

> <STRUCTURE_SMILES>
Oc1ccc(C[C@H](NC(=O)[C@@H](NC(=O)[C@H](CC(=O)O)NC(=O)[C@H](CCCCN)NC(=O)[C@@H](N)CCCNC(=N)N)C(C)C)C(=O)O)cc1

> <STRUCTURE_SMILES_Desalt>
Oc1ccc(C[C@H](NC(=O)[C@@H](NC(=O)[C@H](CC(=O)O)NC(=O)[C@H](CCCCN)NC(=O)[C@@H](N)CCCNC(=N)N)C(C)C)C(=O)O)cc1

> <Substance_modify_yyyymmdd>
20110809

$$$$
