6961-46-2
ChemmineR-0915142007XD

 14 14  0  0  0  0  0  0  0  0  1 V2000
    5.8010   -2.6349    0.0000 C   0  0  0  0  0  0  0  0  0  0  0  0
    4.6658   -1.9788    0.0000 C   0  0  0  0  0  0  0  0  0  0  0  0
    3.4889   -2.6453    0.0000 C   0  0  0  0  0  0  0  0  0  0  0  0
    5.8010   -3.9784    0.0000 O   0  0  0  0  0  0  0  0  0  0  0  0
    6.9570   -1.9788    0.0000 N   0  0  0  0  0  0  0  0  0  0  0  0
    2.3121   -1.9892    0.0000 C   0  0  0  0  0  0  0  0  0  0  0  0
   10.4147   -2.6349    0.0000 O   0  0  0  0  0  0  0  0  0  0  0  0
    8.1026   -2.6349    0.0000 C   0  0  0  0  0  0  0  0  0  0  0  0
    9.2795   -1.9788    0.0000 C   0  0  0  0  0  0  0  0  0  0  0  0
    1.1352   -2.6453    0.0000 C   0  0  0  0  0  0  0  0  0  0  0  0
    2.3121   -0.6665    0.0000 C   0  0  0  0  0  0  0  0  0  0  0  0
    1.1560    0.0000    0.0000 C   0  0  0  0  0  0  0  0  0  0  0  0
    0.0000   -1.9892    0.0000 C   0  0  0  0  0  0  0  0  0  0  0  0
    0.0000   -0.6978    0.0000 C   0  0  0  0  0  0  0  0  0  0  0  0
  1  2  1  0  0  0  0
  1  4  2  0  0  0  0
  1  5  1  0  0  0  0
  2  3  2  0  0  0  0
  3  6  1  0  0  0  0
  5  8  1  0  0  0  0
  6 10  2  0  0  0  0
  6 11  1  0  0  0  0
  7  9  1  0  0  0  0
  8  9  1  0  0  0  0
 10 13  1  0  0  0  0
 11 12  2  0  0  0  0
 12 14  1  0  0  0  0
 13 14  2  0  0  0  0
M  END
> <ID>
11651

> <Formula>
C11H13NO2

> <FW>
191.2264

> <DSSTox_CID>
26404

> <DSSTox_RID>
81584

> <DSSTox_GSID>
46404

> <DSSTox_FileID_Sort>
6265

> <TS_ChemName>
Idrocilamide

> <TS_ChemName_Synonyms>


> <TS_CASRN>
6961-46-2

> <CASRN_ChemName_Relationship>
primary

> <TS_Description>
mixture of Z,E isomers

> <ChemNote>
mixture of Z,E isomers

> <STRUCTURE_Shown>
representative isomer in mixture

> <STRUCTURE_Formula>
C11H13NO2

> <STRUCTURE_MW>
191.2264

> <STRUCTURE_ChemType>
defined organic

> <STRUCTURE_DefinedOrganicForm>
parent

> <STRUCTURE_IUPAC>
(2E)-N-(2-hydroxyethyl)-3-phenylprop-2-enamide

> <STRUCTURE_SMILES>
OCCNC(=O)/C=C/c1ccccc1

> <STRUCTURE_SMILES_Desalt>
OCCNC(=O)/C=C/c1ccccc1

> <Substance_modify_yyyymmdd>
20110813

$$$$
