69648-38-0
ChemmineR-0915142007XD

 29 30  0  0  1  0  0  0  0  0  1 V2000
    0.0000   -4.7391    0.0000 C   0  0  0  0  0  0  0  0  0  0  0  0
    0.7992   -3.6697    0.0000 C   0  0  0  0  0  0  0  0  0  0  0  0
    0.7992   -5.8197    0.0000 C   0  0  0  0  0  0  0  0  0  0  0  0
    2.0375   -4.0862    0.0000 C   0  0  0  0  0  0  0  0  0  0  0  0
    2.0375   -5.4032    0.0000 C   0  0  0  0  0  0  0  0  0  0  0  0
    0.3827   -2.3977    0.0000 O   0  0  0  0  0  0  0  0  0  0  0  0
    0.3827   -7.0917    0.0000 O   0  0  0  0  0  0  0  0  0  0  0  0
    3.1631   -3.3095    0.0000 C   0  0  0  0  0  0  0  0  0  0  0  0
    3.2082   -6.0899    0.0000 C   0  0  0  0  0  0  0  0  0  0  0  0
    4.3451   -5.4032    0.0000 C   0  0  0  0  0  0  0  0  0  0  0  0
    5.5045   -6.0899    0.0000 C   0  0  0  0  0  0  0  0  0  0  0  0
    6.6414   -5.4032    0.0000 C   0  0  0  0  0  0  0  0  0  0  0  0
    7.8121   -6.0899    0.0000 C   0  0  0  0  0  0  0  0  0  0  0  0
    6.6414   -4.0862    0.0000 O   0  0  0  0  0  0  0  0  0  0  0  0
    8.9491   -5.4032    0.0000 C   0  0  0  0  0  0  0  0  0  0  0  0
   10.1085   -6.0899    0.0000 C   0  0  0  0  0  0  0  0  0  0  0  0
   11.2567   -5.4032    0.0000 C   0  0  0  0  0  0  0  0  0  0  0  0
    7.8121   -7.9472    0.0000 C   0  0  0  0  0  0  0  0  0  0  0  0
    8.7464   -7.0129    0.0000 C   0  0  0  0  0  0  0  0  0  0  0  0
    6.8666   -7.0129    0.0000 C   0  0  0  0  0  0  0  0  0  0  0  0
    3.1631   -1.9699    0.0000 C   0  0  0  0  0  0  0  0  0  0  0  0
    4.3113   -1.3170    0.0000 C   0  0  0  0  0  0  0  0  0  0  0  0
    5.4707   -1.9699    0.0000 C   0  0  0  0  0  0  0  0  0  0  0  0
    6.6189   -1.3170    0.0000 C   0  0  0  0  0  0  0  0  0  0  0  0
    7.7784   -1.9699    0.0000 C   0  0  0  0  0  0  0  0  0  0  0  0
    8.9040   -1.3170    0.0000 C   0  0  0  0  0  0  0  0  0  0  0  0
    8.9040    0.0000    0.0000 O   0  0  0  0  0  0  0  0  0  0  0  0
   10.0635   -1.9699    0.0000 O   0  0  0  0  0  0  0  0  0  0  0  0
   11.2117   -1.3170    0.0000 C   0  0  0  0  0  0  0  0  0  0  0  0
  1  2  1  0  0  0  0
  1  3  1  0  0  0  0
  2  4  1  0  0  0  0
  2  6  2  0  0  0  0
  3  5  1  0  0  0  0
  3  7  1  6  0  0  0
  4  5  1  0  0  0  0
  4  8  1  6  0  0  0
  5  9  1  1  0  0  0
  8 21  1  0  0  0  0
  9 10  2  0  0  0  0
 10 11  1  0  0  0  0
 11 12  1  0  0  0  0
 12 13  1  0  0  0  0
 12 14  1  1  0  0  0
 13 15  1  0  0  0  0
 13 19  1  0  0  0  0
 13 20  1  0  0  0  0
 15 16  1  0  0  0  0
 16 17  1  0  0  0  0
 18 20  1  0  0  0  0
 18 19  1  0  0  0  0
 21 22  1  0  0  0  0
 22 23  1  0  0  0  0
 23 24  1  0  0  0  0
 24 25  1  0  0  0  0
 25 26  1  0  0  0  0
 26 27  2  0  0  0  0
 26 28  1  0  0  0  0
 28 29  1  0  0  0  0
M  END
> <ID>
13979

> <Formula>
C24H40O5

> <FW>
408.5714

> <DSSTox_CID>
28919

> <DSSTox_RID>
83186

> <DSSTox_GSID>
48993

> <DSSTox_FileID_Sort>
7862

> <TS_ChemName>
Cyclopentaneheptanoic acid, 3-hydroxy-2-[(1E,4R)-4-hydroxy-4-(1-propylcyclobutyl)-1-buten-1-yl]-5-oxo-, methyl ester, (1R,2R,3R)-

> <TS_ChemName_Synonyms>
(R)-Butaprost

> <TS_CASRN>
69648-38-0

> <CASRN_ChemName_Relationship>
primary

> <TS_Description>
single chemical compound

> <ChemNote>
stereochem

> <STRUCTURE_Shown>
tested chemical

> <STRUCTURE_Formula>
C24H40O5

> <STRUCTURE_MW>
408.5714

> <STRUCTURE_ChemType>
defined organic

> <STRUCTURE_DefinedOrganicForm>
parent

> <STRUCTURE_IUPAC>
methyl 7-{(1R,2R,3R)-3-hydroxy-2-[(1E,4R)-4-hydroxy-4-(1-propylcyclobutyl)but-1-en-1-yl]-5-oxocyclopentyl}heptanoate

> <STRUCTURE_SMILES>
O[C@@H]2CC(=O)[C@H](CCCCCCC(=O)OC)[C@H]2\C=C\C[C@@H](O)C1(CCC)CCC1

> <STRUCTURE_SMILES_Desalt>
O[C@@H]2CC(=O)[C@H](CCCCCCC(=O)OC)[C@H]2\C=C\C[C@@H](O)C1(CCC)CCC1

> <Substance_modify_yyyymmdd>
20111204

$$$$
