69669-44-9
ChemmineR-0915142007XD

 23 22  0  0  0  0  0  0  0  0  2 V2000
    0.0000   -7.3173    0.0000 C    0  0  0  0  0  0  0  0  0  0  0  0
   12.6816   -6.6579    0.0000 C    0  0  0  0  0  0  0  0  0  0  0  0
    1.1540   -6.6579    0.0000 C    0  0  0  0  0  0  0  0  0  0  0  0
   11.5276   -7.3173    0.0000 C    0  0  0  0  0  0  0  0  0  0  0  0
    2.3081   -7.3173    0.0000 C    0  0  0  0  0  0  0  0  0  0  0  0
    3.4621   -6.6579    0.0000 C    0  0  0  0  0  0  0  0  0  0  0  0
    4.6161   -7.3173    0.0000 C    0  0  0  0  0  0  0  0  0  0  0  0
    5.7701   -6.6579    0.0000 C    0  0  0  0  0  0  0  0  0  0  0  0
    6.9115   -7.3173    0.0000 C    0  0  0  0  0  0  0  0  0  0  0  0
    8.0655   -6.6579    0.0000 C    0  0  0  0  0  0  0  0  0  0  0  0
    9.2196   -7.3173    0.0000 C    0  0  0  0  0  0  0  0  0  0  0  0
   11.5276   -4.6542    0.0000 C    0  0  0  0  0  0  0  0  0  0  0  0
    9.2196   -4.6542    0.0000 C    0  0  0  0  0  0  0  0  0  0  0  0
   11.5276   -3.3226    0.0000 C    0  0  0  0  0  0  0  0  0  0  0  0
    9.2196   -3.3226    0.0000 C    0  0  0  0  0  0  0  0  0  0  0  0
   10.3736   -6.6579    0.0000 C    0  0  0  0  0  0  0  0  0  0  0  0
   10.3736   -5.3263    0.0000 C    0  0  0  0  0  0  0  0  0  0  0  0
   10.3736   -2.6631    0.0000 C    0  0  0  0  0  0  0  0  0  0  0  0
    9.0420   -1.3316    0.0000 O    0  5  0  0  0  0  0  0  0  0  0  0
   11.7052   -1.3316    0.0000 O    0  0  0  0  0  0  0  0  0  0  0  0
   10.3736    0.0000    0.0000 O    0  0  0  0  0  0  0  0  0  0  0  0
   10.3736   -1.3316    0.0000 S    0  0  0  0  0  0  0  0  0  0  0  0
    5.3390   -1.2301    0.0000 Na   0  3  0  0  0  0  0  0  0  0  0  0
  1  3  1  0  0  0  0
  2  4  1  0  0  0  0
  3  5  1  0  0  0  0
  4 16  1  0  0  0  0
  5  6  1  0  0  0  0
  6  7  1  0  0  0  0
  7  8  1  0  0  0  0
  8  9  1  0  0  0  0
  9 10  1  0  0  0  0
 10 11  1  0  0  0  0
 11 16  1  0  0  0  0
 12 14  1  0  0  0  0
 12 17  2  0  0  0  0
 13 15  2  0  0  0  0
 13 17  1  0  0  0  0
 14 18  2  0  0  0  0
 15 18  1  0  0  0  0
 16 17  1  0  0  0  0
 18 22  1  0  0  0  0
 19 22  1  0  0  0  0
 20 22  2  0  0  0  0
 21 22  2  0  0  0  0
M  END
> <ID>
4088

> <Formula>
C18H29NaO3S

> <FW>
348.4758 (325.4866+22.9892)

> <DSSTox_CID>
5219

> <DSSTox_RID>
78822

> <DSSTox_GSID>
29806

> <DSSTox_FileID_Sort>
3504

> <TS_ChemName>
Benzenesulfonic acid, C10-14-alkyl derivs., sodium salts

> <TS_ChemName_Synonyms>


> <TS_CASRN>
69669-44-9

> <CASRN_ChemName_Relationship>
primary

> <TS_Description>
mixture or formulation

> <ChemNote>
mixture of benzenesulfonates; benzene sulfonated at C4 and alkyl chain attached at any position except terminal carbons; structure shown C12 attached at C3

> <STRUCTURE_Shown>
representative component

> <STRUCTURE_Formula>
C18H29NaO3S

> <STRUCTURE_MW>
348.4758

> <STRUCTURE_ChemType>
defined organic

> <STRUCTURE_DefinedOrganicForm>
salt

> <STRUCTURE_IUPAC>
sodium 4-(dodecan-3-yl)benzenesulfonate

> <STRUCTURE_SMILES>
[Na+].O=S([O-])(=O)c1ccc(cc1)C(CC)CCCCCCCCC

> <STRUCTURE_SMILES_Desalt>
OS(=O)(=O)c1ccc(cc1)C(CC)CCCCCCCCC

> <Substance_modify_yyyymmdd>
20080429

$$$$
