6968-72-5
ChemmineR-0915142007XD

  9  9  0  0  0  0  0  0  0  0  2 V2000
    2.2947   -2.0039    0.0000 C   0  0  0  0  0  0  0  0  0  0  0  0
    2.2947   -3.3382    0.0000 C   0  0  0  0  0  0  0  0  0  0  0  0
    1.1543   -1.3344    0.0000 N   0  3  0  0  0  0  0  0  0  0  0  0
    1.1543   -3.9939    0.0000 C   0  0  0  0  0  0  0  0  0  0  0  0
    0.0000   -2.0039    0.0000 C   0  0  0  0  0  0  0  0  0  0  0  0
    0.0000   -3.3382    0.0000 C   0  0  0  0  0  0  0  0  0  0  0  0
    3.4629   -3.9939    0.0000 C   0  0  0  0  0  0  0  0  0  0  0  0
    4.6172   -3.3382    0.0000 O   0  0  0  0  0  0  0  0  0  0  0  0
    1.1543    0.0000    0.0000 O   0  5  0  0  0  0  0  0  0  0  0  0
  1  2  1  0  0  0  0
  1  3  2  0  0  0  0
  2  4  2  0  0  0  0
  2  7  1  0  0  0  0
  3  5  1  0  0  0  0
  3  9  1  0  0  0  0
  4  6  1  0  0  0  0
  5  6  2  0  0  0  0
  7  8  1  0  0  0  0
M  END
> <ID>
11794

> <Formula>
C6H7NO2

> <FW>
125.1253

> <DSSTox_CID>
26569

> <DSSTox_RID>
81728

> <DSSTox_GSID>
46569

> <DSSTox_FileID_Sort>
6409

> <TS_ChemName>
Mepiroxol

> <TS_ChemName_Synonyms>


> <TS_CASRN>
6968-72-5

> <CASRN_ChemName_Relationship>
primary

> <TS_Description>
single chemical compound

> <ChemNote>
ammonium

> <STRUCTURE_Shown>
tested chemical

> <STRUCTURE_Formula>
C6H7NO2

> <STRUCTURE_MW>
125.1253

> <STRUCTURE_ChemType>
defined organic

> <STRUCTURE_DefinedOrganicForm>
parent

> <STRUCTURE_IUPAC>
(1-oxidopyridin-3-yl)methanol

> <STRUCTURE_SMILES>
[O-][n+]1cccc(CO)c1

> <STRUCTURE_SMILES_Desalt>
O[n+]1cccc(CO)c1

> <Substance_modify_yyyymmdd>
20110810

$$$$
