697-82-5
ChemmineR-0915142007XD

 10 10  0  0  0  0  0  0  0  0  1 V2000
    2.2879   -1.3146    0.0000 C   0  0  0  0  0  0  0  0  0  0  0  0
    2.2879    0.0000    0.0000 O   0  0  0  0  0  0  0  0  0  0  0  0
    3.4411   -1.9973    0.0000 C   0  0  0  0  0  0  0  0  0  0  0  0
    1.1716   -1.9973    0.0000 C   0  0  0  0  0  0  0  0  0  0  0  0
    1.1716   -3.3120    0.0000 C   0  0  0  0  0  0  0  0  0  0  0  0
    3.4411   -3.3120    0.0000 C   0  0  0  0  0  0  0  0  0  0  0  0
    2.2879   -3.9946    0.0000 C   0  0  0  0  0  0  0  0  0  0  0  0
    4.6128   -1.3331    0.0000 C   0  0  0  0  0  0  0  0  0  0  0  0
    4.6128   -3.9946    0.0000 C   0  0  0  0  0  0  0  0  0  0  0  0
    0.0000   -3.9946    0.0000 C   0  0  0  0  0  0  0  0  0  0  0  0
  1  2  1  0  0  0  0
  1  3  2  0  0  0  0
  1  4  1  0  0  0  0
  3  6  1  0  0  0  0
  3  8  1  0  0  0  0
  4  5  2  0  0  0  0
  5  7  1  0  0  0  0
  5 10  1  0  0  0  0
  6  7  2  0  0  0  0
  6  9  1  0  0  0  0
M  END
> <ID>
12331

> <Formula>
C9H12O

> <FW>
136.191

> <DSSTox_CID>
27184

> <DSSTox_RID>
82180

> <DSSTox_GSID>
47184

> <DSSTox_FileID_Sort>
6861

> <TS_ChemName>
2,3,5-Trimethylphenol

> <TS_ChemName_Synonyms>


> <TS_CASRN>
697-82-5

> <CASRN_ChemName_Relationship>
primary

> <TS_Description>
single chemical compound

> <ChemNote>


> <STRUCTURE_Shown>
tested chemical

> <STRUCTURE_Formula>
C9H12O

> <STRUCTURE_MW>
136.191

> <STRUCTURE_ChemType>
defined organic

> <STRUCTURE_DefinedOrganicForm>
parent

> <STRUCTURE_IUPAC>
2,3,5-trimethylphenol

> <STRUCTURE_SMILES>
Cc1cc(C)cc(O)c1C

> <STRUCTURE_SMILES_Desalt>
Cc1cc(C)cc(O)c1C

> <Substance_modify_yyyymmdd>
20100503

$$$$
