69712-56-7
ChemmineR-0915142007XD

 37 40  0  0  1  0  0  0  0  0  1 V2000
    8.4787   -3.3629    0.0000 C   0  0  0  0  0  0  0  0  0  0  0  0
    9.8561   -4.7223    0.0000 N   0  0  0  0  0  0  0  0  0  0  0  0
    8.4787   -4.7223    0.0000 C   0  0  0  0  0  0  0  0  0  0  0  0
    9.8561   -3.3629    0.0000 C   0  0  0  0  0  0  0  0  0  0  0  0
    3.2198   -2.2002    0.0000 C   0  0  0  0  0  0  0  0  0  0  0  0
   15.7590   -5.1337    0.0000 C   0  0  0  0  0  0  0  0  0  0  0  0
   11.0009   -5.3842    0.0000 C   0  0  0  0  0  0  0  0  0  0  0  0
    7.1372   -3.3629    0.0000 N   0  0  0  0  0  0  0  0  0  0  0  0
    1.9319   -2.2002    0.0000 C   0  0  0  0  0  0  0  0  0  0  0  0
    4.1499   -1.2879    0.0000 S   0  0  0  0  0  0  0  0  0  0  0  0
    4.1499   -3.1482    0.0000 S   0  0  0  0  0  0  0  0  0  0  0  0
   16.8322   -4.3646    0.0000 N   0  0  0  0  0  0  0  0  0  0  0  0
   16.1525   -6.3859    0.0000 N   0  0  0  0  0  0  0  0  0  0  0  0
   17.4762   -6.4038    0.0000 N   0  0  0  0  0  0  0  0  0  0  0  0
    5.0801   -2.2002    0.0000 C   0  0  0  0  0  0  0  0  0  0  0  0
   17.8876   -5.1516    0.0000 N   0  0  0  0  0  0  0  0  0  0  0  0
   11.0009   -2.6831    0.0000 S   0  0  0  0  0  0  0  0  0  0  0  0
   12.1994   -4.7223    0.0000 C   0  0  0  0  0  0  0  0  0  0  0  0
    6.4574   -2.2002    0.0000 C   0  0  0  0  0  0  0  0  0  0  0  0
    1.2879   -1.1090    0.0000 C   0  0  0  0  0  0  0  0  0  0  0  0
    1.2879   -3.3629    0.0000 C   0  0  0  0  0  0  0  0  0  0  0  0
   11.0009   -6.7257    0.0000 C   0  0  0  0  0  0  0  0  0  0  0  0
   14.5069   -4.7044    0.0000 S   0  0  0  0  0  0  0  0  0  0  0  0
   12.1994   -3.3629    0.0000 C   0  0  0  0  0  0  0  0  0  0  0  0
    7.5307   -5.6346    0.0000 O   0  0  0  0  0  0  0  0  0  0  0  0
   13.3799   -5.3842    0.0000 C   0  0  0  0  0  0  0  0  0  0  0  0
    8.1031   -2.0392    0.0000 O   0  0  0  0  0  0  0  0  0  0  0  0
    7.1372   -1.0375    0.0000 O   0  0  0  0  0  0  0  0  0  0  0  0
    1.9319    0.0000    0.0000 O   0  0  0  0  0  0  0  0  0  0  0  0
    1.9319   -4.4361    0.0000 O   0  0  0  0  0  0  0  0  0  0  0  0
   12.1994   -7.4055    0.0000 O   0  0  0  0  0  0  0  0  0  0  0  0
    0.0000   -1.1090    0.0000 N   0  0  0  0  0  0  0  0  0  0  0  0
    0.0000   -3.3629    0.0000 O   0  0  0  0  0  0  0  0  0  0  0  0
   16.8322   -3.0409    0.0000 C   0  0  0  0  0  0  0  0  0  0  0  0
    9.8561   -7.4055    0.0000 O   0  0  0  0  0  0  0  0  0  0  0  0
    9.0869   -1.1806    0.0000 C   0  0  0  0  0  0  0  0  0  0  0  0
    9.8561   -2.0213    0.0000 H   0  0  0  0  0  0  0  0  0  0  0  0
  1  3  1  0  0  0  0
  1  4  1  0  0  0  0
  1  8  1  1  0  0  0
  1 27  1  6  0  0  0
  2  4  1  0  0  0  0
  2  7  1  0  0  0  0
  2  3  1  0  0  0  0
  3 25  2  0  0  0  0
  4 17  1  0  0  0  0
  4 37  1  6  0  0  0
  5 11  1  0  0  0  0
  5  9  2  0  0  0  0
  5 10  1  0  0  0  0
  6 23  1  0  0  0  0
  6 12  1  0  0  0  0
  6 13  2  0  0  0  0
  7 22  1  0  0  0  0
  7 18  2  0  0  0  0
  8 19  1  0  0  0  0
  9 20  1  0  0  0  0
  9 21  1  0  0  0  0
 10 15  1  0  0  0  0
 11 15  1  0  0  0  0
 12 16  1  0  0  0  0
 12 34  1  0  0  0  0
 13 14  1  0  0  0  0
 14 16  2  0  0  0  0
 15 19  1  0  0  0  0
 17 24  1  0  0  0  0
 18 24  1  0  0  0  0
 18 26  1  0  0  0  0
 19 28  2  0  0  0  0
 20 29  2  0  0  0  0
 20 32  1  0  0  0  0
 21 30  2  0  0  0  0
 21 33  1  0  0  0  0
 22 31  2  0  0  0  0
 22 35  1  0  0  0  0
 23 26  1  0  0  0  0
 27 36  1  0  0  0  0
M  END
> <ID>
2501

> <Formula>
C17H17N7O8S4

> <FW>
575.619

> <DSSTox_CID>
2762

> <DSSTox_RID>
76720

> <DSSTox_GSID>
22762

> <DSSTox_FileID_Sort>
1404

> <TS_ChemName>
Cefotetan

> <TS_ChemName_Synonyms>


> <TS_CASRN>
69712-56-7

> <CASRN_ChemName_Relationship>
primary

> <TS_Description>
single chemical compound

> <ChemNote>
stereochem

> <STRUCTURE_Shown>
tested chemical

> <STRUCTURE_Formula>
C17H17N7O8S4

> <STRUCTURE_MW>
575.619

> <STRUCTURE_ChemType>
defined organic

> <STRUCTURE_DefinedOrganicForm>
parent

> <STRUCTURE_IUPAC>
(6R,7S)-7-({[4-(2-amino-1-carboxy-2-oxoethylidene)-1,3-dithietan-2-yl]carbonyl}amino)-7-methoxy-3-{[(1-methyl-1H-tetrazol-5-yl)sulfanyl]methyl}-8-oxo-5-thia-1-azabicyclo[4.2.0]oct-2-ene-2-carboxylic acid

> <STRUCTURE_SMILES>
NC(=O)/C(C(=O)O)=C1/SC(S1)C(=O)N[C@]4(OC)C(=O)N3C(=C(CSc2nnnn2C)CS[C@@H]34)C(=O)O

> <STRUCTURE_SMILES_Desalt>
NC(=O)/C(C(=O)O)=C1/SC(S1)C(=O)N[C@]4(OC)C(=O)N3C(=C(CSc2nnnn2C)CS[C@@H]34)C(=O)O

> <Substance_modify_yyyymmdd>
20080429

$$$$
