698-76-0
ChemmineR-0915142007XD

 10 10  0  0  0  0  0  0  0  0  1 V2000
    2.2911    0.0000    0.0000 O   0  0  0  0  0  0  0  0  0  0  0  0
    3.4435   -0.6694    0.0000 C   0  0  0  0  0  0  0  0  0  0  0  0
    3.4435   -2.0013    0.0000 C   0  0  0  0  0  0  0  0  0  0  0  0
    2.2911   -2.6568    0.0000 C   0  0  0  0  0  0  0  0  0  0  0  0
    1.1386   -2.0013    0.0000 C   0  0  0  0  0  0  0  0  0  0  0  0
    1.1386   -0.6694    0.0000 C   0  0  0  0  0  0  0  0  0  0  0  0
    0.0000    0.0000    0.0000 O   0  0  0  0  0  0  0  0  0  0  0  0
    4.5960    0.0000    0.0000 C   0  0  0  0  0  0  0  0  0  0  0  0
    5.7484   -0.6694    0.0000 C   0  0  0  0  0  0  0  0  0  0  0  0
    6.9009    0.0000    0.0000 C   0  0  0  0  0  0  0  0  0  0  0  0
  1  2  1  0  0  0  0
  1  6  1  0  0  0  0
  2  3  1  0  0  0  0
  2  8  1  0  0  0  0
  3  4  1  0  0  0  0
  4  5  1  0  0  0  0
  5  6  1  0  0  0  0
  6  7  2  0  0  0  0
  8  9  1  0  0  0  0
  9 10  1  0  0  0  0
M  END
> <ID>
12312

> <Formula>
C8H14O2

> <FW>
142.1956

> <DSSTox_CID>
27164

> <DSSTox_RID>
82165

> <DSSTox_GSID>
47164

> <DSSTox_FileID_Sort>
6846

> <TS_ChemName>
delta-Octanolactone

> <TS_ChemName_Synonyms>


> <TS_CASRN>
698-76-0

> <CASRN_ChemName_Relationship>
primary

> <TS_Description>
single chemical compound

> <ChemNote>


> <STRUCTURE_Shown>
tested chemical

> <STRUCTURE_Formula>
C8H14O2

> <STRUCTURE_MW>
142.1956

> <STRUCTURE_ChemType>
defined organic

> <STRUCTURE_DefinedOrganicForm>
parent

> <STRUCTURE_IUPAC>
6-propyltetrahydro-2H-pyran-2-one

> <STRUCTURE_SMILES>
CCCC1CCCC(=O)O1

> <STRUCTURE_SMILES_Desalt>
CCCC1CCCC(=O)O1

> <Substance_modify_yyyymmdd>
20100503

$$$$
