69806-34-4
ChemmineR-0915142007XD

 24 25  0  0  0  0  0  0  0  0  1 V2000
    3.1591   -4.6144    0.0000 C    0  0  0  0  0  0  0  0  0  0  0  0
    3.8217   -5.7621    0.0000 O    0  0  0  0  0  0  0  0  0  0  0  0
    1.8339   -4.6144    0.0000 C    0  0  0  0  0  0  0  0  0  0  0  0
    3.8217   -3.4667    0.0000 N    0  0  0  0  0  0  0  0  0  0  0  0
    5.1705   -5.7621    0.0000 C    0  0  0  0  0  0  0  0  0  0  0  0
    1.1832   -3.4667    0.0000 C    0  0  0  0  0  0  0  0  0  0  0  0
    1.1832   -5.7621    0.0000 Cl   0  0  0  0  0  0  0  0  0  0  0  0
    3.1591   -2.3190    0.0000 C    0  0  0  0  0  0  0  0  0  0  0  0
    5.8331   -4.6144    0.0000 C    0  0  0  0  0  0  0  0  0  0  0  0
    5.8331   -6.9216    0.0000 C    0  0  0  0  0  0  0  0  0  0  0  0
    1.8339   -2.3190    0.0000 C    0  0  0  0  0  0  0  0  0  0  0  0
    7.1464   -4.6144    0.0000 C    0  0  0  0  0  0  0  0  0  0  0  0
    7.1464   -6.9216    0.0000 C    0  0  0  0  0  0  0  0  0  0  0  0
    1.1832   -1.1477    0.0000 C    0  0  0  0  0  0  0  0  0  0  0  0
    7.8326   -5.7621    0.0000 C    0  0  0  0  0  0  0  0  0  0  0  0
    2.3309   -0.4851    0.0000 F    0  0  0  0  0  0  0  0  0  0  0  0
    0.4969    0.0000    0.0000 F    0  0  0  0  0  0  0  0  0  0  0  0
    0.0000   -1.8339    0.0000 F    0  0  0  0  0  0  0  0  0  0  0  0
    9.1578   -5.7621    0.0000 O    0  0  0  0  0  0  0  0  0  0  0  0
    9.8204   -4.6144    0.0000 C    0  0  0  0  0  0  0  0  0  0  0  0
   11.1455   -4.6144    0.0000 C    0  0  0  0  0  0  0  0  0  0  0  0
    9.1578   -3.4667    0.0000 C    0  0  0  0  0  0  0  0  0  0  0  0
   11.8318   -5.7621    0.0000 O    0  0  0  0  0  0  0  0  0  0  0  0
   11.8318   -3.4667    0.0000 O    0  0  0  0  0  0  0  0  0  0  0  0
  1  2  1  0  0  0  0
  1  3  1  0  0  0  0
  1  4  2  0  0  0  0
  2  5  1  0  0  0  0
  3  6  2  0  0  0  0
  3  7  1  0  0  0  0
  4  8  1  0  0  0  0
  5  9  1  0  0  0  0
  5 10  2  0  0  0  0
  6 11  1  0  0  0  0
  8 11  2  0  0  0  0
  9 12  2  0  0  0  0
 10 13  1  0  0  0  0
 11 14  1  0  0  0  0
 12 15  1  0  0  0  0
 13 15  2  0  0  0  0
 14 16  1  0  0  0  0
 14 17  1  0  0  0  0
 14 18  1  0  0  0  0
 15 19  1  0  0  0  0
 19 20  1  0  0  0  0
 20 21  1  0  0  0  0
 20 22  1  0  0  0  0
 21 23  1  0  0  0  0
 21 24  2  0  0  0  0
M  END
> <ID>
8953

> <Formula>
C15H11ClF3NO4

> <FW>
361.7003

> <DSSTox_CID>
22019

> <DSSTox_RID>
79904

> <DSSTox_GSID>
42019

> <DSSTox_FileID_Sort>
4586

> <TS_ChemName>
Haloxyfop

> <TS_ChemName_Synonyms>


> <TS_CASRN>
69806-34-4

> <CASRN_ChemName_Relationship>
primary

> <TS_Description>
single chemical compound

> <ChemNote>
mixture of (2R)- [95977-29-0]; (2S)- isomers; structure shown without stereochem

> <STRUCTURE_Shown>
tested chemical

> <STRUCTURE_Formula>
C15H11ClF3NO4

> <STRUCTURE_MW>
361.7003

> <STRUCTURE_ChemType>
defined organic

> <STRUCTURE_DefinedOrganicForm>
parent

> <STRUCTURE_IUPAC>
2-(4-{[3-chloro-5-(trifluoromethyl)pyridin-2-yl]oxy}phenoxy)propanoic acid

> <STRUCTURE_SMILES>
O=C(O)C(C)Oc1ccc(cc1)Oc2ncc(cc2Cl)C(F)(F)F

> <STRUCTURE_SMILES_Desalt>
O=C(O)C(C)Oc1ccc(cc1)Oc2ncc(cc2Cl)C(F)(F)F

> <Substance_modify_yyyymmdd>
20080825

$$$$
