69806-50-4
ChemmineR-0915142007XD

 27 28  0  0  0  0  0  0  0  0  1 V2000
   12.6665   -1.3459    0.0000 C   0  0  0  0  0  0  0  0  0  0  0  0
   11.5234   -2.0097    0.0000 C   0  0  0  0  0  0  0  0  0  0  0  0
   11.5234   -3.3372    0.0000 C   0  0  0  0  0  0  0  0  0  0  0  0
   12.6665    0.0000    0.0000 O   0  0  0  0  0  0  0  0  0  0  0  0
   13.8280   -2.0097    0.0000 O   0  0  0  0  0  0  0  0  0  0  0  0
   10.3802   -1.3459    0.0000 O   0  0  0  0  0  0  0  0  0  0  0  0
    9.2187   -2.0097    0.0000 C   0  0  0  0  0  0  0  0  0  0  0  0
    9.2187   -3.3372    0.0000 C   0  0  0  0  0  0  0  0  0  0  0  0
    8.0571   -1.3459    0.0000 C   0  0  0  0  0  0  0  0  0  0  0  0
    8.0571   -4.0009    0.0000 C   0  0  0  0  0  0  0  0  0  0  0  0
    6.9140   -2.0097    0.0000 C   0  0  0  0  0  0  0  0  0  0  0  0
    6.9140   -3.3372    0.0000 C   0  0  0  0  0  0  0  0  0  0  0  0
    5.7525   -4.0009    0.0000 O   0  0  0  0  0  0  0  0  0  0  0  0
    3.4662   -4.0009    0.0000 N   0  0  0  0  0  0  0  0  0  0  0  0
    2.3047   -3.3372    0.0000 C   0  0  0  0  0  0  0  0  0  0  0  0
    4.6093   -3.3372    0.0000 C   0  0  0  0  0  0  0  0  0  0  0  0
    4.6093   -2.0097    0.0000 C   0  0  0  0  0  0  0  0  0  0  0  0
    2.3047   -2.0097    0.0000 C   0  0  0  0  0  0  0  0  0  0  0  0
    3.4662   -1.3459    0.0000 C   0  0  0  0  0  0  0  0  0  0  0  0
    1.1616   -1.3459    0.0000 C   0  0  0  0  0  0  0  0  0  0  0  0
    1.8069   -0.1844    0.0000 F   0  0  0  0  0  0  0  0  0  0  0  0
    0.4794   -2.4890    0.0000 F   0  0  0  0  0  0  0  0  0  0  0  0
    0.0000   -0.6822    0.0000 F   0  0  0  0  0  0  0  0  0  0  0  0
   14.9896   -1.3459    0.0000 C   0  0  0  0  0  0  0  0  0  0  0  0
   16.1327   -2.0097    0.0000 C   0  0  0  0  0  0  0  0  0  0  0  0
   17.2758   -1.3459    0.0000 C   0  0  0  0  0  0  0  0  0  0  0  0
   18.4374   -2.0097    0.0000 C   0  0  0  0  0  0  0  0  0  0  0  0
  1  2  1  0  0  0  0
  1  5  1  0  0  0  0
  1  4  2  0  0  0  0
  2  3  1  0  0  0  0
  2  6  1  0  0  0  0
  5 24  1  0  0  0  0
  6  7  1  0  0  0  0
  7  8  2  0  0  0  0
  7  9  1  0  0  0  0
  8 10  1  0  0  0  0
  9 11  2  0  0  0  0
 10 12  2  0  0  0  0
 11 12  1  0  0  0  0
 12 13  1  0  0  0  0
 13 16  1  0  0  0  0
 14 15  2  0  0  0  0
 14 16  1  0  0  0  0
 15 18  1  0  0  0  0
 16 17  2  0  0  0  0
 17 19  1  0  0  0  0
 18 19  2  0  0  0  0
 18 20  1  0  0  0  0
 20 21  1  0  0  0  0
 20 22  1  0  0  0  0
 20 23  1  0  0  0  0
 24 25  1  0  0  0  0
 25 26  1  0  0  0  0
 26 27  1  0  0  0  0
M  END
> <ID>
6847

> <Formula>
C19H20F3NO4

> <FW>
383.3616

> <DSSTox_CID>
14612

> <DSSTox_RID>
79177

> <DSSTox_GSID>
34612

> <DSSTox_FileID_Sort>
3859

> <TS_ChemName>
Fluazifop-butyl

> <TS_ChemName_Synonyms>


> <TS_CASRN>
69806-50-4

> <CASRN_ChemName_Relationship>
primary

> <TS_Description>
single chemical compound

> <ChemNote>


> <STRUCTURE_Shown>
tested chemical

> <STRUCTURE_Formula>
C19H20F3NO4

> <STRUCTURE_MW>
383.3616

> <STRUCTURE_ChemType>
defined organic

> <STRUCTURE_DefinedOrganicForm>
parent

> <STRUCTURE_IUPAC>
butyl 2-(4-{[5-(trifluoromethyl)pyridin-2-yl]oxy}phenoxy)propanoate

> <STRUCTURE_SMILES>
O=C(OCCCC)C(C)Oc1ccc(cc1)Oc2ccc(cn2)C(F)(F)F

> <STRUCTURE_SMILES_Desalt>
O=C(OCCCC)C(C)Oc1ccc(cc1)Oc2ccc(cn2)C(F)(F)F

> <Substance_modify_yyyymmdd>
20080429

$$$$
