69806-40-2
ChemmineR-0915142007XD

 25 26  0  0  0  0  0  0  0  0  1 V2000
   11.2969   -1.1696    0.0000 C    0  0  0  0  0  0  0  0  0  0  0  0
   10.6324   -2.2993    0.0000 C    0  0  0  0  0  0  0  0  0  0  0  0
   11.2969   -3.4688    0.0000 C    0  0  0  0  0  0  0  0  0  0  0  0
   10.6324    0.0000    0.0000 O    0  0  0  0  0  0  0  0  0  0  0  0
   12.6260   -1.1696    0.0000 O    0  0  0  0  0  0  0  0  0  0  0  0
    9.3033   -2.2993    0.0000 O    0  0  0  0  0  0  0  0  0  0  0  0
    8.6388   -3.4688    0.0000 C    0  0  0  0  0  0  0  0  0  0  0  0
    9.3033   -4.6118    0.0000 C    0  0  0  0  0  0  0  0  0  0  0  0
    7.3098   -3.4688    0.0000 C    0  0  0  0  0  0  0  0  0  0  0  0
    8.6388   -5.7548    0.0000 C    0  0  0  0  0  0  0  0  0  0  0  0
    6.6452   -4.6118    0.0000 C    0  0  0  0  0  0  0  0  0  0  0  0
    7.3098   -5.7548    0.0000 C    0  0  0  0  0  0  0  0  0  0  0  0
    6.6452   -6.9243    0.0000 O    0  0  0  0  0  0  0  0  0  0  0  0
    4.6517   -8.0673    0.0000 N    0  0  0  0  0  0  0  0  0  0  0  0
    3.3226   -8.0673    0.0000 C    0  0  0  0  0  0  0  0  0  0  0  0
    5.3162   -6.9243    0.0000 C    0  0  0  0  0  0  0  0  0  0  0  0
    4.6517   -5.7548    0.0000 C    0  0  0  0  0  0  0  0  0  0  0  0
    2.6448   -6.9243    0.0000 C    0  0  0  0  0  0  0  0  0  0  0  0
    3.3226   -5.7548    0.0000 C    0  0  0  0  0  0  0  0  0  0  0  0
    5.3162   -4.6118    0.0000 Cl   0  0  0  0  0  0  0  0  0  0  0  0
    1.3290   -6.9243    0.0000 C    0  0  0  0  0  0  0  0  0  0  0  0
    0.0000   -6.9243    0.0000 F    0  0  0  0  0  0  0  0  0  0  0  0
    1.3290   -8.2534    0.0000 F    0  0  0  0  0  0  0  0  0  0  0  0
    1.3290   -5.5820    0.0000 F    0  0  0  0  0  0  0  0  0  0  0  0
   13.2905   -2.2993    0.0000 C    0  0  0  0  0  0  0  0  0  0  0  0
  1  2  1  0  0  0  0
  1  5  1  0  0  0  0
  1  4  2  0  0  0  0
  2  3  1  0  0  0  0
  2  6  1  0  0  0  0
  5 25  1  0  0  0  0
  6  7  1  0  0  0  0
  7  8  2  0  0  0  0
  7  9  1  0  0  0  0
  8 10  1  0  0  0  0
  9 11  2  0  0  0  0
 10 12  2  0  0  0  0
 11 12  1  0  0  0  0
 12 13  1  0  0  0  0
 13 16  1  0  0  0  0
 14 15  1  0  0  0  0
 14 16  2  0  0  0  0
 15 18  2  0  0  0  0
 16 17  1  0  0  0  0
 17 19  2  0  0  0  0
 17 20  1  0  0  0  0
 18 19  1  0  0  0  0
 18 21  1  0  0  0  0
 21 22  1  0  0  0  0
 21 23  1  0  0  0  0
 21 24  1  0  0  0  0
M  END
> <ID>
3516

> <Formula>
C16H13ClF3NO4

> <FW>
375.7269

> <DSSTox_CID>
4123

> <DSSTox_RID>
77298

> <DSSTox_GSID>
24123

> <DSSTox_FileID_Sort>
1981

> <TS_ChemName>
Haloxyfop-methyl

> <TS_ChemName_Synonyms>
Haloxyfop-methyl (Propanoic acid, 2-[4-[[3-chloro-5-(trifluoromethyl)-2-pyridinyl]oxy]phenoxy]-, methyl ester)

> <TS_CASRN>
69806-40-2

> <CASRN_ChemName_Relationship>
primary

> <TS_Description>
single chemical compound

> <ChemNote>


> <STRUCTURE_Shown>
tested chemical

> <STRUCTURE_Formula>
C16H13ClF3NO4

> <STRUCTURE_MW>
375.7269

> <STRUCTURE_ChemType>
defined organic

> <STRUCTURE_DefinedOrganicForm>
parent

> <STRUCTURE_IUPAC>
methyl 2-(4-{[3-chloro-5-(trifluoromethyl)pyridin-2-yl]oxy}phenoxy)propanoate

> <STRUCTURE_SMILES>
O=C(OC)C(C)Oc1ccc(cc1)Oc2ncc(cc2Cl)C(F)(F)F

> <STRUCTURE_SMILES_Desalt>
O=C(OC)C(C)Oc1ccc(cc1)Oc2ncc(cc2Cl)C(F)(F)F

> <Substance_modify_yyyymmdd>
20080429

$$$$
