69815-49-2
ChemmineR-0915142007XD

 32 30  0  0  1  0  0  0  0  0  1 V2000
    3.5184   -5.0759    0.0000 C   0  0  0  0  0  0  0  0  0  0  0  0
    2.3224   -5.7713    0.0000 C   0  0  0  0  0  0  0  0  0  0  0  0
    3.5184   -3.7548    0.0000 C   0  0  0  0  0  0  0  0  0  0  0  0
    1.1821   -5.0759    0.0000 C   0  0  0  0  0  0  0  0  0  0  0  0
    2.3641   -3.0595    0.0000 C   0  0  0  0  0  0  0  0  0  0  0  0
    1.1821   -3.7548    0.0000 C   0  0  0  0  0  0  0  0  0  0  0  0
    4.6727   -3.0873    0.0000 C   0  0  0  0  0  0  0  0  0  0  0  0
    2.3224   -7.1341    0.0000 O   0  0  0  0  0  0  0  0  0  0  0  0
    0.0000   -5.7713    0.0000 O   0  0  0  0  0  0  0  0  0  0  0  0
    7.0368   -3.0873    0.0000 N   0  0  0  0  0  0  0  0  0  0  0  0
    4.6727   -1.7383    0.0000 O   0  0  0  0  0  0  0  0  0  0  0  0
    5.8408   -3.7548    0.0000 C   0  0  0  0  0  0  0  0  0  0  0  0
    9.6791   -6.1746    0.0000 C   0  0  0  0  0  0  0  0  0  0  0  0
   10.8333   -6.8143    0.0000 C   0  0  0  0  0  0  0  0  0  0  0  0
    8.5248   -6.8143    0.0000 C   0  0  0  0  0  0  0  0  0  0  0  0
   11.9737   -6.1746    0.0000 C   0  0  0  0  0  0  0  0  0  0  0  0
   11.9737   -4.8534    0.0000 O   0  0  0  0  0  0  0  0  0  0  0  0
    8.5248   -8.1493    0.0000 O   0  0  0  0  0  0  0  0  0  0  0  0
   13.1001   -6.8143    0.0000 O   0  0  0  0  0  0  0  0  0  0  0  0
    7.4123   -6.1746    0.0000 O   0  0  0  0  0  0  0  0  0  0  0  0
   10.8333   -8.1493    0.0000 O   0  0  0  0  0  0  0  0  0  0  0  0
    9.6791   -4.8534    0.0000 O   0  0  0  0  0  0  0  0  0  0  0  0
   10.4857   -1.3350    0.0000 C   0  0  0  0  0  0  0  0  0  0  0  0
   11.6399   -1.9748    0.0000 C   0  0  0  0  0  0  0  0  0  0  0  0
    9.3314   -1.9748    0.0000 C   0  0  0  0  0  0  0  0  0  0  0  0
   12.7664   -1.3350    0.0000 C   0  0  0  0  0  0  0  0  0  0  0  0
   12.7664    0.0000    0.0000 O   0  0  0  0  0  0  0  0  0  0  0  0
    9.3314   -3.2959    0.0000 O   0  0  0  0  0  0  0  0  0  0  0  0
   13.9067   -1.9748    0.0000 O   0  0  0  0  0  0  0  0  0  0  0  0
    8.2050   -1.3350    0.0000 O   0  0  0  0  0  0  0  0  0  0  0  0
   11.6399   -3.2959    0.0000 O   0  0  0  0  0  0  0  0  0  0  0  0
   10.4857    0.0000    0.0000 O   0  0  0  0  0  0  0  0  0  0  0  0
  1  2  2  0  0  0  0
  1  3  1  0  0  0  0
  2  4  1  0  0  0  0
  2  8  1  0  0  0  0
  3  5  2  0  0  0  0
  3  7  1  0  0  0  0
  4  9  1  0  0  0  0
  4  6  2  0  0  0  0
  5  6  1  0  0  0  0
  7 11  1  1  0  0  0
  7 12  1  0  0  0  0
 10 12  1  0  0  0  0
 13 14  1  0  0  0  0
 13 15  1  0  0  0  0
 13 22  1  0  0  0  0
 14 16  1  0  0  0  0
 14 21  1  0  0  0  0
 15 18  2  0  0  0  0
 15 20  1  0  0  0  0
 16 17  2  0  0  0  0
 16 19  1  0  0  0  0
 23 24  1  0  0  0  0
 23 25  1  0  0  0  0
 23 32  1  0  0  0  0
 24 26  1  0  0  0  0
 24 31  1  0  0  0  0
 25 28  2  0  0  0  0
 25 30  1  0  0  0  0
 26 27  2  0  0  0  0
 26 29  1  0  0  0  0
M  END
> <ID>
12899

> <Formula>
C16H23NO15

> <FW>
469.3515 (169.1778+150.0868+150.0868)

> <DSSTox_CID>
27783

> <DSSTox_RID>
82559

> <DSSTox_GSID>
47806

> <DSSTox_FileID_Sort>
7237

> <TS_ChemName>
Norepinephrine bitartrate

> <TS_ChemName_Synonyms>


> <TS_CASRN>
69815-49-2

> <CASRN_ChemName_Relationship>
primary

> <TS_Description>
single chemical compound

> <ChemNote>
parent [51-41-2]

> <STRUCTURE_Shown>
tested chemical

> <STRUCTURE_Formula>
C16H23NO15

> <STRUCTURE_MW>
469.3515

> <STRUCTURE_ChemType>
defined organic

> <STRUCTURE_DefinedOrganicForm>
complex

> <STRUCTURE_IUPAC>
2,3-dihydroxybutanedioic acid - 4-[(1R)-2-amino-1-hydroxyethyl]benzene-1,2-diol (2:1)

> <STRUCTURE_SMILES>
Oc1ccc(cc1O)[C@@H](O)CN.O=C(O)C(O)C(O)C(=O)O.O=C(O)C(O)C(O)C(=O)O

> <STRUCTURE_SMILES_Desalt>
Oc1ccc(cc1O)[C@@H](O)CN

> <Substance_modify_yyyymmdd>
20110822

$$$$
