6981-18-6
ChemmineR-0915142007XD

 20 21  0  0  0  0  0  0  0  0  1 V2000
   10.3668   -3.3174    0.0000 C   0  0  0  0  0  0  0  0  0  0  0  0
    9.2161   -3.9912    0.0000 O   0  0  0  0  0  0  0  0  0  0  0  0
    8.0653   -3.3174    0.0000 C   0  0  0  0  0  0  0  0  0  0  0  0
    6.9146   -3.9912    0.0000 C   0  0  0  0  0  0  0  0  0  0  0  0
    6.9146   -5.3181    0.0000 O   0  0  0  0  0  0  0  0  0  0  0  0
    8.0653   -5.9816    0.0000 C   0  0  0  0  0  0  0  0  0  0  0  0
    5.7639   -3.3174    0.0000 C   0  0  0  0  0  0  0  0  0  0  0  0
    5.7639   -1.9904    0.0000 C   0  0  0  0  0  0  0  0  0  0  0  0
    4.6028   -1.3269    0.0000 C   0  0  0  0  0  0  0  0  0  0  0  0
    3.4521   -1.9904    0.0000 C   0  0  0  0  0  0  0  0  0  0  0  0
    3.4521   -3.3174    0.0000 C   0  0  0  0  0  0  0  0  0  0  0  0
    2.3014   -3.9912    0.0000 N   0  0  0  0  0  0  0  0  0  0  0  0
    1.1507   -3.3174    0.0000 C   0  0  0  0  0  0  0  0  0  0  0  0
    0.0000   -3.9912    0.0000 N   0  0  0  0  0  0  0  0  0  0  0  0
    1.1507   -1.9904    0.0000 N   0  0  0  0  0  0  0  0  0  0  0  0
    2.3014   -1.3269    0.0000 C   0  0  0  0  0  0  0  0  0  0  0  0
    2.3014    0.0000    0.0000 N   0  0  0  0  0  0  0  0  0  0  0  0
    6.9146   -1.3269    0.0000 C   0  0  0  0  0  0  0  0  0  0  0  0
    8.0653   -1.9904    0.0000 C   0  0  0  0  0  0  0  0  0  0  0  0
    6.9146    0.0000    0.0000 C   0  0  0  0  0  0  0  0  0  0  0  0
  1  2  1  0  0  0  0
  2  3  1  0  0  0  0
  3  4  2  0  0  0  0
  3 19  1  0  0  0  0
  4  5  1  0  0  0  0
  4  7  1  0  0  0  0
  5  6  1  0  0  0  0
  7  8  2  0  0  0  0
  8  9  1  0  0  0  0
  8 18  1  0  0  0  0
  9 10  1  0  0  0  0
 10 11  2  0  0  0  0
 10 16  1  0  0  0  0
 11 12  1  0  0  0  0
 12 13  2  0  0  0  0
 13 14  1  0  0  0  0
 13 15  1  0  0  0  0
 15 16  2  0  0  0  0
 16 17  1  0  0  0  0
 18 19  2  0  0  0  0
 18 20  1  0  0  0  0
M  END
> <ID>
11887

> <Formula>
C14H18N4O2

> <FW>
274.3183

> <DSSTox_CID>
26689

> <DSSTox_RID>
81823

> <DSSTox_GSID>
46689

> <DSSTox_FileID_Sort>
6504

> <TS_ChemName>
Ormetoprim

> <TS_ChemName_Synonyms>


> <TS_CASRN>
6981-18-6

> <CASRN_ChemName_Relationship>
primary

> <TS_Description>
single chemical compound

> <ChemNote>


> <STRUCTURE_Shown>
tested chemical

> <STRUCTURE_Formula>
C14H18N4O2

> <STRUCTURE_MW>
274.3183

> <STRUCTURE_ChemType>
defined organic

> <STRUCTURE_DefinedOrganicForm>
parent

> <STRUCTURE_IUPAC>
5-(4,5-dimethoxy-2-methylbenzyl)pyrimidine-2,4-diamine

> <STRUCTURE_SMILES>
Nc2nc(N)ncc2Cc1cc(OC)c(OC)cc1C

> <STRUCTURE_SMILES_Desalt>
Nc2nc(N)ncc2Cc1cc(OC)c(OC)cc1C

> <Substance_modify_yyyymmdd>
20110805

$$$$
