6983-79-5
ChemmineR-0915142007XD

 29 28  0  0  0  0  0  0  0  0  1 V2000
    2.3132   -5.9988    0.0000 O   0  0  0  0  0  0  0  0  0  0  0  0
    2.3132   -4.6657    0.0000 C   0  0  0  0  0  0  0  0  0  0  0  0
    1.1566   -4.0188    0.0000 O   0  0  0  0  0  0  0  0  0  0  0  0
    0.0000   -4.6657    0.0000 C   0  0  0  0  0  0  0  0  0  0  0  0
    3.4503   -4.0188    0.0000 C   0  0  0  0  0  0  0  0  0  0  0  0
    3.4503   -2.6857    0.0000 C   0  0  0  0  0  0  0  0  0  0  0  0
    4.6069   -1.9996    0.0000 C   0  0  0  0  0  0  0  0  0  0  0  0
    4.6069   -0.6665    0.0000 C   0  0  0  0  0  0  0  0  0  0  0  0
    3.4503    0.0000    0.0000 C   0  0  0  0  0  0  0  0  0  0  0  0
    5.7635    0.0000    0.0000 C   0  0  0  0  0  0  0  0  0  0  0  0
    6.9201   -0.6665    0.0000 C   0  0  0  0  0  0  0  0  0  0  0  0
    8.0768    0.0000    0.0000 C   0  0  0  0  0  0  0  0  0  0  0  0
    9.2334   -0.6665    0.0000 C   0  0  0  0  0  0  0  0  0  0  0  0
    9.2334   -1.9996    0.0000 C   0  0  0  0  0  0  0  0  0  0  0  0
   10.3900    0.0000    0.0000 C   0  0  0  0  0  0  0  0  0  0  0  0
   11.5466   -0.6665    0.0000 C   0  0  0  0  0  0  0  0  0  0  0  0
   11.5466   -1.9996    0.0000 C   0  0  0  0  0  0  0  0  0  0  0  0
   12.7032   -2.6857    0.0000 C   0  0  0  0  0  0  0  0  0  0  0  0
   13.8599   -1.9996    0.0000 C   0  0  0  0  0  0  0  0  0  0  0  0
   12.7032   -4.0188    0.0000 C   0  0  0  0  0  0  0  0  0  0  0  0
   13.8599   -4.6657    0.0000 C   0  0  0  0  0  0  0  0  0  0  0  0
   15.0165   -4.0188    0.0000 C   0  0  0  0  0  0  0  0  0  0  0  0
   16.1731   -4.6657    0.0000 C   0  0  0  0  0  0  0  0  0  0  0  0
   17.2905   -4.0188    0.0000 C   0  0  0  0  0  0  0  0  0  0  0  0
   16.1731   -5.9988    0.0000 C   0  0  0  0  0  0  0  0  0  0  0  0
   17.2905   -6.6653    0.0000 C   0  0  0  0  0  0  0  0  0  0  0  0
   18.4472   -5.9988    0.0000 C   0  0  0  0  0  0  0  0  0  0  0  0
   19.6038   -6.6653    0.0000 O   0  0  0  0  0  0  0  0  0  0  0  0
   18.4472   -4.6657    0.0000 O   0  0  0  0  0  0  0  0  0  0  0  0
  1  2  2  0  0  0  0
  2  3  1  0  0  0  0
  2  5  1  0  0  0  0
  3  4  1  0  0  0  0
  5  6  2  0  0  0  0
  6  7  1  0  0  0  0
  7  8  2  0  0  0  0
  8  9  1  0  0  0  0
  8 10  1  0  0  0  0
 10 11  2  0  0  0  0
 11 12  1  0  0  0  0
 12 13  2  0  0  0  0
 13 14  1  0  0  0  0
 13 15  1  0  0  0  0
 15 16  2  0  0  0  0
 16 17  1  0  0  0  0
 17 18  2  0  0  0  0
 18 19  1  0  0  0  0
 18 20  1  0  0  0  0
 20 21  2  0  0  0  0
 21 22  1  0  0  0  0
 22 23  2  0  0  0  0
 23 24  1  0  0  0  0
 23 25  1  0  0  0  0
 25 26  2  0  0  0  0
 26 27  1  0  0  0  0
 27 28  1  0  0  0  0
 27 29  2  0  0  0  0
M  END
> <ID>
3777

> <Formula>
C25H30O4

> <FW>
394.5033

> <DSSTox_CID>
4629

> <DSSTox_RID>
77475

> <DSSTox_GSID>
24629

> <DSSTox_FileID_Sort>
2158

> <TS_ChemName>
Bixin

> <TS_ChemName_Synonyms>
Bixin (cis-Bixin)

> <TS_CASRN>
6983-79-5

> <CASRN_ChemName_Relationship>
primary

> <TS_Description>
single chemical compound

> <ChemNote>
stereochem

> <STRUCTURE_Shown>
tested chemical

> <STRUCTURE_Formula>
C25H30O4

> <STRUCTURE_MW>
394.5033

> <STRUCTURE_ChemType>
defined organic

> <STRUCTURE_DefinedOrganicForm>
parent

> <STRUCTURE_IUPAC>
(2Z,4Z,6Z,8E,10Z,12E,14E,16E,18E)-20-methoxy-4,8,12,16-tetramethyl-20-oxoicosa-2,4,6,8,10,12,14,16,18-nonaenoic acid

> <STRUCTURE_SMILES>
C/C(=C\C=C\C(=O)OC)/C=C/C=C(\C)/C=C\C=C(/C)\C=C/C=C(/C)\C=C/C(=O)O

> <STRUCTURE_SMILES_Desalt>
C/C(=C\C=C\C(=O)OC)/C=C/C=C(\C)/C=C\C=C(/C)\C=C/C=C(/C)\C=C/C(=O)O

> <Substance_modify_yyyymmdd>
20080429

$$$$
