69852-45-5
ChemmineR-0915142007XD

 11 10  0  0  0  0  0  0  0  0  1 V2000
    1.1750   -0.6655    0.0000 C   0  0  0  0  0  0  0  0  0  0  0  0
    2.3187   -1.3205    0.0000 C   0  0  0  0  0  0  0  0  0  0  0  0
    3.4625   -0.6655    0.0000 C   0  0  0  0  0  0  0  0  0  0  0  0
    0.0000    0.0000    0.0000 N   0  0  0  0  0  0  0  0  0  0  0  0
    4.6375   -1.3205    0.0000 N   0  0  0  0  0  0  0  0  0  0  0  0
    5.7916   -0.6655    0.0000 C   0  0  0  0  0  0  0  0  0  0  0  0
    6.9354   -1.3205    0.0000 C   0  0  0  0  0  0  0  0  0  0  0  0
    8.0792   -0.6655    0.0000 C   0  0  0  0  0  0  0  0  0  0  0  0
    9.2542   -1.3205    0.0000 N   0  0  0  0  0  0  0  0  0  0  0  0
    9.2542   -2.6411    0.0000 C   0  0  0  0  0  0  0  0  0  0  0  0
   10.3979   -0.6239    0.0000 C   0  0  0  0  0  0  0  0  0  0  0  0
  1  2  1  0  0  0  0
  1  4  3  0  0  0  0
  2  3  1  0  0  0  0
  3  5  1  0  0  0  0
  5  6  1  0  0  0  0
  6  7  1  0  0  0  0
  7  8  1  0  0  0  0
  8  9  1  0  0  0  0
  9 10  1  0  0  0  0
  9 11  1  0  0  0  0
M  END
> <ID>
10627

> <Formula>
C8H17N3

> <FW>
155.2407

> <DSSTox_CID>
24980

> <DSSTox_RID>
80629

> <DSSTox_GSID>
44980

> <DSSTox_FileID_Sort>
5311

> <TS_ChemName>
3-{[3-(Dimethylamino)propyl]amino}propanenitrile

> <TS_ChemName_Synonyms>
3-{[3-(Dimethylamino)propyl]amino}propanenitrile (Propanenitrile, 3-[[3-(dimethylamino)propyl]amino]-)

> <TS_CASRN>
69852-45-5

> <CASRN_ChemName_Relationship>
primary

> <TS_Description>
single chemical compound

> <ChemNote>


> <STRUCTURE_Shown>
tested chemical

> <STRUCTURE_Formula>
C8H17N3

> <STRUCTURE_MW>
155.2407

> <STRUCTURE_ChemType>
defined organic

> <STRUCTURE_DefinedOrganicForm>
parent

> <STRUCTURE_IUPAC>
3-{[3-(dimethylamino)propyl]amino}propanenitrile

> <STRUCTURE_SMILES>
CN(C)CCCNCCC#N

> <STRUCTURE_SMILES_Desalt>
CN(C)CCCNCCC#N

> <Substance_modify_yyyymmdd>
20091116

$$$$
