69956-77-0
ChemmineR-0915142007XD

 19 20  0  0  0  0  0  0  0  0  1 V2000
    6.6209   -3.4544    0.0000 C   0  0  0  0  0  0  0  0  0  0  0  0
    5.9558   -2.2831    0.0000 C   0  0  0  0  0  0  0  0  0  0  0  0
    4.6257   -2.2831    0.0000 C   0  0  0  0  0  0  0  0  0  0  0  0
    3.9705   -3.4544    0.0000 C   0  0  0  0  0  0  0  0  0  0  0  0
    4.6257   -4.6157    0.0000 C   0  0  0  0  0  0  0  0  0  0  0  0
    5.9558   -4.6157    0.0000 C   0  0  0  0  0  0  0  0  0  0  0  0
    8.5962   -4.6157    0.0000 C   0  0  0  0  0  0  0  0  0  0  0  0
    7.9311   -3.4544    0.0000 C   0  0  0  0  0  0  0  0  0  0  0  0
    9.9263   -4.6157    0.0000 O   0  0  0  0  0  0  0  0  0  0  0  0
    7.9311   -5.7374    0.0000 O   0  0  0  0  0  0  0  0  0  0  0  0
    2.6503   -3.4544    0.0000 C   0  0  0  0  0  0  0  0  0  0  0  0
    1.9952   -2.2831    0.0000 C   0  0  0  0  0  0  0  0  0  0  0  0
    0.6551   -2.2831    0.0000 C   0  0  0  0  0  0  0  0  0  0  0  0
    0.0000   -1.1614    0.0000 C   0  0  0  0  0  0  0  0  0  0  0  0
    0.6551    0.0000    0.0000 C   0  0  0  0  0  0  0  0  0  0  0  0
    1.9952    0.0000    0.0000 C   0  0  0  0  0  0  0  0  0  0  0  0
    2.6503   -1.1614    0.0000 C   0  0  0  0  0  0  0  0  0  0  0  0
    0.0000   -3.4544    0.0000 O   0  0  0  0  0  0  0  0  0  0  0  0
    8.5962   -2.2831    0.0000 C   0  0  0  0  0  0  0  0  0  0  0  0
  1  2  1  0  0  0  0
  1  6  2  0  0  0  0
  1  8  1  0  0  0  0
  2  3  2  0  0  0  0
  3  4  1  0  0  0  0
  4  5  2  0  0  0  0
  4 11  1  0  0  0  0
  5  6  1  0  0  0  0
  7  8  1  0  0  0  0
  7  9  2  0  0  0  0
  7 10  1  0  0  0  0
  8 19  1  0  0  0  0
 11 12  2  0  0  0  0
 12 13  1  0  0  0  0
 12 17  1  0  0  0  0
 13 14  1  0  0  0  0
 13 18  2  0  0  0  0
 14 15  1  0  0  0  0
 15 16  1  0  0  0  0
 16 17  1  0  0  0  0
M  END
> <ID>
13784

> <Formula>
C16H18O3

> <FW>
258.3123

> <DSSTox_CID>
28721

> <DSSTox_RID>
82990

> <DSSTox_GSID>
48795

> <DSSTox_FileID_Sort>
7667

> <TS_ChemName>
Pelubiprofen

> <TS_ChemName_Synonyms>


> <TS_CASRN>
69956-77-0

> <CASRN_ChemName_Relationship>
primary

> <TS_Description>
single chemical compound

> <ChemNote>


> <STRUCTURE_Shown>
tested chemical

> <STRUCTURE_Formula>
C16H18O3

> <STRUCTURE_MW>
258.3123

> <STRUCTURE_ChemType>
defined organic

> <STRUCTURE_DefinedOrganicForm>
parent

> <STRUCTURE_IUPAC>
2-{4-[(E)-(2-oxocyclohexylidene)methyl]phenyl}propanoic acid

> <STRUCTURE_SMILES>
O=C(O)C(C)c1ccc(cc1)\C=C2/CCCCC2=O

> <STRUCTURE_SMILES_Desalt>
O=C(O)C(C)c1ccc(cc1)\C=C2/CCCCC2=O

> <Substance_modify_yyyymmdd>
20111204

$$$$
