69975-86-6
ChemmineR-0915142007XD

 19 21  0  0  0  0  0  0  0  0  1 V2000
    2.2231   -1.2905    0.0000 N   0  0  0  0  0  0  0  0  0  0  0  0
    1.8840    0.0000    0.0000 C   0  0  0  0  0  0  0  0  0  0  0  0
    1.2811   -2.2231    0.0000 C   0  0  0  0  0  0  0  0  0  0  0  0
    0.0000   -1.8840    0.0000 O   0  0  0  0  0  0  0  0  0  0  0  0
    1.6296   -3.5136    0.0000 N   0  0  0  0  0  0  0  0  0  0  0  0
    0.6877   -4.4556    0.0000 C   0  0  0  0  0  0  0  0  0  0  0  0
    2.9108   -3.8527    0.0000 C   0  0  0  0  0  0  0  0  0  0  0  0
    3.8527   -2.9202    0.0000 C   0  0  0  0  0  0  0  0  0  0  0  0
    3.5136   -1.6296    0.0000 C   0  0  0  0  0  0  0  0  0  0  0  0
    4.4556   -0.6877    0.0000 O   0  0  0  0  0  0  0  0  0  0  0  0
    5.0397   -3.5230    0.0000 N   0  0  0  0  0  0  0  0  0  0  0  0
    6.2266   -2.9202    0.0000 C   0  0  0  0  0  0  0  0  0  0  0  0
    7.3381   -3.6361    0.0000 C   0  0  0  0  0  0  0  0  0  0  0  0
    8.5815   -3.1651    0.0000 O   0  0  0  0  0  0  0  0  0  0  0  0
    9.4199   -4.2013    0.0000 C   0  0  0  0  0  0  0  0  0  0  0  0
    8.6946   -5.3128    0.0000 C   0  0  0  0  0  0  0  0  0  0  0  0
    7.4135   -4.9643    0.0000 O   0  0  0  0  0  0  0  0  0  0  0  0
    4.8324   -4.8324    0.0000 C   0  0  0  0  0  0  0  0  0  0  0  0
    3.5136   -5.0397    0.0000 N   0  0  0  0  0  0  0  0  0  0  0  0
  1  2  1  0  0  0  0
  1  3  1  0  0  0  0
  1  9  1  0  0  0  0
  3  4  2  0  0  0  0
  3  5  1  0  0  0  0
  5  6  1  0  0  0  0
  5  7  1  0  0  0  0
  7  8  2  0  0  0  0
  7 19  1  0  0  0  0
  8  9  1  0  0  0  0
  8 11  1  0  0  0  0
  9 10  2  0  0  0  0
 11 12  1  0  0  0  0
 11 18  1  0  0  0  0
 12 13  1  0  0  0  0
 13 14  1  0  0  0  0
 13 17  1  0  0  0  0
 14 15  1  0  0  0  0
 15 16  1  0  0  0  0
 16 17  1  0  0  0  0
 18 19  2  0  0  0  0
M  END
> <ID>
2672

> <Formula>
C11H14N4O4

> <FW>
266.2533

> <DSSTox_CID>
2968

> <DSSTox_RID>
76810

> <DSSTox_GSID>
22968

> <DSSTox_FileID_Sort>
1494

> <TS_ChemName>
Doxofylline

> <TS_ChemName_Synonyms>


> <TS_CASRN>
69975-86-6

> <CASRN_ChemName_Relationship>
primary

> <TS_Description>
single chemical compound

> <ChemNote>


> <STRUCTURE_Shown>
tested chemical

> <STRUCTURE_Formula>
C11H14N4O4

> <STRUCTURE_MW>
266.2533

> <STRUCTURE_ChemType>
defined organic

> <STRUCTURE_DefinedOrganicForm>
parent

> <STRUCTURE_IUPAC>
7-(1,3-dioxolan-2-ylmethyl)-1,3-dimethyl-3,7-dihydro-1H-purine-2,6-dione

> <STRUCTURE_SMILES>
O=C2c1n(cnc1N(C)C(=O)N2C)CC3OCCO3

> <STRUCTURE_SMILES_Desalt>
O=C2c1n(cnc1N(C)C(=O)N2C)CC3OCCO3

> <Substance_modify_yyyymmdd>
20080429

$$$$
