70-00-8
ChemmineR-0915142007XD

 20 21  0  0  1  0  0  0  0  0  1 V2000
    4.4049   -3.9951    0.0000 N   0  0  0  0  0  0  0  0  0  0  0  0
    5.5711   -1.9857    0.0000 C   0  0  0  0  0  0  0  0  0  0  0  0
    3.2702   -3.3174    0.0000 C   0  0  0  0  0  0  0  0  0  0  0  0
    3.2702   -1.9857    0.0000 N   0  0  0  0  0  0  0  0  0  0  0  0
    4.4049   -5.3189    0.0000 C   0  0  0  0  0  0  0  0  0  0  0  0
    4.4049   -1.3317    0.0000 C   0  0  0  0  0  0  0  0  0  0  0  0
    5.5711   -3.3174    0.0000 C   0  0  0  0  0  0  0  0  0  0  0  0
    6.7137   -1.3317    0.0000 C   0  0  0  0  0  0  0  0  0  0  0  0
    3.3490   -4.5388    0.0000 O   0  0  0  0  0  0  0  0  0  0  0  0
    4.0030   -6.5876    0.0000 C   0  0  0  0  0  0  0  0  0  0  0  0
    2.2615   -5.3189    0.0000 C   0  0  0  0  0  0  0  0  0  0  0  0
    2.6713   -6.5876    0.0000 C   0  0  0  0  0  0  0  0  0  0  0  0
    2.1118   -3.9951    0.0000 O   0  0  0  0  0  0  0  0  0  0  0  0
    4.4049    0.0000    0.0000 O   0  0  0  0  0  0  0  0  0  0  0  0
    7.8799   -0.6619    0.0000 F   0  0  0  0  0  0  0  0  0  0  0  0
    7.3992   -2.4822    0.0000 F   0  0  0  0  0  0  0  0  0  0  0  0
    6.0675   -0.1812    0.0000 F   0  0  0  0  0  0  0  0  0  0  0  0
    1.8912   -7.6593    0.0000 O   0  0  0  0  0  0  0  0  0  0  0  0
    0.9929   -4.9171    0.0000 C   0  0  0  0  0  0  0  0  0  0  0  0
    0.0000   -5.7996    0.0000 O   0  0  0  0  0  0  0  0  0  0  0  0
  1  3  1  0  0  0  0
  5  1  1  1  0  0  0
  1  7  1  0  0  0  0
  2  7  2  0  0  0  0
  2  6  1  0  0  0  0
  2  8  1  0  0  0  0
  3  4  1  0  0  0  0
  3 13  2  0  0  0  0
  4  6  1  0  0  0  0
  5  9  1  0  0  0  0
  5 10  1  0  0  0  0
  6 14  2  0  0  0  0
  8 15  1  0  0  0  0
  8 16  1  0  0  0  0
  8 17  1  0  0  0  0
  9 11  1  0  0  0  0
 10 12  1  0  0  0  0
 11 19  1  1  0  0  0
 11 12  1  0  0  0  0
 12 18  1  6  0  0  0
 19 20  1  0  0  0  0
M  END
> <ID>
11822

> <Formula>
C10H11F3N2O5

> <FW>
296.1999

> <DSSTox_CID>
26602

> <DSSTox_RID>
81757

> <DSSTox_GSID>
46602

> <DSSTox_FileID_Sort>
6438

> <TS_ChemName>
Trifluridine

> <TS_ChemName_Synonyms>


> <TS_CASRN>
70-00-8

> <CASRN_ChemName_Relationship>
primary

> <TS_Description>
single chemical compound

> <ChemNote>
stereochem

> <STRUCTURE_Shown>
tested chemical

> <STRUCTURE_Formula>
C10H11F3N2O5

> <STRUCTURE_MW>
296.1999

> <STRUCTURE_ChemType>
defined organic

> <STRUCTURE_DefinedOrganicForm>
parent

> <STRUCTURE_IUPAC>
2'-deoxy-5-(trifluoromethyl)uridine

> <STRUCTURE_SMILES>
FC(F)(F)C1=CN(C(=O)NC1=O)[C@H]2C[C@H](O)[C@@H](CO)O2

> <STRUCTURE_SMILES_Desalt>
FC(F)(F)C1=CN(C(=O)NC1=O)[C@H]2C[C@H](O)[C@@H](CO)O2

> <Substance_modify_yyyymmdd>
20110809

$$$$
