70-10-0
ChemmineR-0915142007XD

 11 12  0  0  0  0  0  0  0  0  1 V2000
    0.0000   -3.6696    0.0000 Cl   0  0  0  0  0  0  0  0  0  0  0  0
    1.1498   -3.0039    0.0000 C    0  0  0  0  0  0  0  0  0  0  0  0
    2.3052   -3.6696    0.0000 C    0  0  0  0  0  0  0  0  0  0  0  0
    3.4550   -3.0039    0.0000 C    0  0  0  0  0  0  0  0  0  0  0  0
    3.4550   -1.6725    0.0000 C    0  0  0  0  0  0  0  0  0  0  0  0
    2.3052   -1.0123    0.0000 C    0  0  0  0  0  0  0  0  0  0  0  0
    1.1498   -1.6725    0.0000 C    0  0  0  0  0  0  0  0  0  0  0  0
    4.7204   -1.2654    0.0000 C    0  0  0  0  0  0  0  0  0  0  0  0
    5.1331    0.0000    0.0000 O    0  0  0  0  0  0  0  0  0  0  0  0
    5.5017   -2.3382    0.0000 N    0  0  0  0  0  0  0  0  0  0  0  0
    4.7204   -3.4165    0.0000 S    0  0  0  0  0  0  0  0  0  0  0  0
  1  2  1  0  0  0  0
  2  3  2  0  0  0  0
  2  7  1  0  0  0  0
  3  4  1  0  0  0  0
  4  5  2  0  0  0  0
  4 11  1  0  0  0  0
  5  6  1  0  0  0  0
  5  8  1  0  0  0  0
  6  7  2  0  0  0  0
  8  9  2  0  0  0  0
  8 10  1  0  0  0  0
 10 11  1  0  0  0  0
M  END
> <ID>
16207

> <Formula>
C7H4ClNOS

> <FW>
185.6308

> <DSSTox_CID>
31598

> <DSSTox_RID>
97482

> <DSSTox_GSID>
57809

> <DSSTox_FileID_Sort>
8549

> <TS_ChemName>
Ticlatone

> <TS_ChemName_Synonyms>


> <TS_CASRN>
70-10-0

> <CASRN_ChemName_Relationship>
primary

> <TS_Description>
single chemical compound

> <ChemNote>


> <STRUCTURE_Shown>
tested chemical

> <STRUCTURE_Formula>
C7H4ClNOS

> <STRUCTURE_MW>
185.6308

> <STRUCTURE_ChemType>
defined organic

> <STRUCTURE_DefinedOrganicForm>
parent

> <STRUCTURE_IUPAC>
6-chloro-1,2-benzothiazol-3(2H)-one

> <STRUCTURE_SMILES>
Clc1ccc2c(c1)SNC2=O

> <STRUCTURE_SMILES_Desalt>
Clc1ccc2c(c1)SNC2=O

> <Substance_modify_yyyymmdd>
20131018

$$$$
