70-11-1
ChemmineR-0915142007XD

 10 10  0  0  0  0  0  0  0  0  1 V2000
    2.2474   -0.6526    0.0000 C    0  0  0  0  0  0  0  0  0  0  0  0
    1.0617    0.0000    0.0000 C    0  0  0  0  0  0  0  0  0  0  0  0
    3.4239    0.0000    0.0000 O    0  0  0  0  0  0  0  0  0  0  0  0
    0.0000   -0.6526    0.0000 Br   0  0  0  0  0  0  0  0  0  0  0  0
    1.0617   -3.9433    0.0000 C    0  0  0  0  0  0  0  0  0  0  0  0
    2.2474   -4.5959    0.0000 C    0  0  0  0  0  0  0  0  0  0  0  0
    3.4239   -3.9433    0.0000 C    0  0  0  0  0  0  0  0  0  0  0  0
    3.4239   -2.6243    0.0000 C    0  0  0  0  0  0  0  0  0  0  0  0
    2.2474   -1.9716    0.0000 C    0  0  0  0  0  0  0  0  0  0  0  0
    1.0617   -2.6243    0.0000 C    0  0  0  0  0  0  0  0  0  0  0  0
  1  2  1  0  0  0  0
  1  3  2  0  0  0  0
  1  9  1  0  0  0  0
  2  4  1  0  0  0  0
  5 10  2  0  0  0  0
  5  6  1  0  0  0  0
  6  7  2  0  0  0  0
  7  8  1  0  0  0  0
  8  9  2  0  0  0  0
  9 10  1  0  0  0  0
M  END
> <ID>
14290

> <Formula>
C8H7BrO

> <FW>
199.0446

> <DSSTox_CID>
29386

> <DSSTox_RID>
83501

> <DSSTox_GSID>
49426

> <DSSTox_FileID_Sort>
8176

> <TS_ChemName>
2-Bromoacetophenone

> <TS_ChemName_Synonyms>


> <TS_CASRN>
70-11-1

> <CASRN_ChemName_Relationship>
primary

> <TS_Description>
single chemical compound

> <ChemNote>


> <STRUCTURE_Shown>
tested chemical

> <STRUCTURE_Formula>
C8H7BrO

> <STRUCTURE_MW>
199.0446

> <STRUCTURE_ChemType>
defined organic

> <STRUCTURE_DefinedOrganicForm>
parent

> <STRUCTURE_IUPAC>
2-bromo-1-phenylethanone

> <STRUCTURE_SMILES>
O=C(CBr)c1ccccc1

> <STRUCTURE_SMILES_Desalt>
O=C(CBr)c1ccccc1

> <Substance_modify_yyyymmdd>
20111204

$$$$
