70-34-8
ChemmineR-0915142007XD

 13 13  0  0  0  0  0  0  0  0  2 V2000
    5.7563   -2.6605    0.0000 N   0  3  0  0  0  0  0  0  0  0  0  0
    5.7563   -3.9873    0.0000 O   0  0  0  0  0  0  0  0  0  0  0  0
    6.9103   -1.9902    0.0000 O   0  5  0  0  0  0  0  0  0  0  0  0
    4.6092   -1.9902    0.0000 C   0  0  0  0  0  0  0  0  0  0  0  0
    3.4552   -2.6605    0.0000 C   0  0  0  0  0  0  0  0  0  0  0  0
    2.3011   -1.9902    0.0000 C   0  0  0  0  0  0  0  0  0  0  0  0
    2.3011   -0.6634    0.0000 C   0  0  0  0  0  0  0  0  0  0  0  0
    3.4552    0.0000    0.0000 C   0  0  0  0  0  0  0  0  0  0  0  0
    4.6092   -0.6634    0.0000 C   0  0  0  0  0  0  0  0  0  0  0  0
    5.7563    0.0000    0.0000 F   0  0  0  0  0  0  0  0  0  0  0  0
    1.1540   -2.6605    0.0000 N   0  3  0  0  0  0  0  0  0  0  0  0
    1.1540   -3.9873    0.0000 O   0  0  0  0  0  0  0  0  0  0  0  0
    0.0000   -1.9902    0.0000 O   0  5  0  0  0  0  0  0  0  0  0  0
  1  2  2  0  0  0  0
  1  3  1  0  0  0  0
  1  4  1  0  0  0  0
  4  5  2  0  0  0  0
  4  9  1  0  0  0  0
  5  6  1  0  0  0  0
  6  7  2  0  0  0  0
  6 11  1  0  0  0  0
  7  8  1  0  0  0  0
  8  9  2  0  0  0  0
  9 10  1  0  0  0  0
 11 12  2  0  0  0  0
 11 13  1  0  0  0  0
M  END
> <ID>
4148

> <Formula>
C6H3FN2O4

> <FW>
186.0974

> <DSSTox_CID>
5331

> <DSSTox_RID>
77753

> <DSSTox_GSID>
25331

> <DSSTox_FileID_Sort>
2436

> <TS_ChemName>
1-Fluoro-2,4-dinitrobenzene

> <TS_ChemName_Synonyms>


> <TS_CASRN>
70-34-8

> <CASRN_ChemName_Relationship>
primary

> <TS_Description>
single chemical compound

> <ChemNote>


> <STRUCTURE_Shown>
tested chemical

> <STRUCTURE_Formula>
C6H3FN2O4

> <STRUCTURE_MW>
186.0974

> <STRUCTURE_ChemType>
defined organic

> <STRUCTURE_DefinedOrganicForm>
parent

> <STRUCTURE_IUPAC>
1-fluoro-2,4-dinitrobenzene

> <STRUCTURE_SMILES>
Fc1ccc(cc1[N+](=O)[O-])[N+]([O-])=O

> <STRUCTURE_SMILES_Desalt>
Fc1ccc(cc1[N+](=O)[O-])[N+]([O-])=O

> <Substance_modify_yyyymmdd>
20080429

$$$$
