70-55-3
ChemmineR-0915142007XD

 11 11  0  0  0  0  0  0  0  0  1 V2000
    3.9913   -1.3304    0.0000 C   0  0  0  0  0  0  0  0  0  0  0  0
    3.3194   -2.4812    0.0000 C   0  0  0  0  0  0  0  0  0  0  0  0
    1.9890   -2.4812    0.0000 C   0  0  0  0  0  0  0  0  0  0  0  0
    1.3304   -1.3304    0.0000 C   0  0  0  0  0  0  0  0  0  0  0  0
    1.9890   -0.1796    0.0000 C   0  0  0  0  0  0  0  0  0  0  0  0
    3.3194   -0.1796    0.0000 C   0  0  0  0  0  0  0  0  0  0  0  0
    5.3217   -1.3304    0.0000 S   0  0  0  0  0  0  0  0  0  0  0  0
    5.3217   -2.6608    0.0000 O   0  0  0  0  0  0  0  0  0  0  0  0
    6.6521   -1.3304    0.0000 O   0  0  0  0  0  0  0  0  0  0  0  0
    5.3217    0.0000    0.0000 N   0  0  0  0  0  0  0  0  0  0  0  0
    0.0000   -1.3304    0.0000 C   0  0  0  0  0  0  0  0  0  0  0  0
  1  2  2  0  0  0  0
  1  6  1  0  0  0  0
  1  7  1  0  0  0  0
  2  3  1  0  0  0  0
  3  4  2  0  0  0  0
  4  5  1  0  0  0  0
  4 11  1  0  0  0  0
  5  6  2  0  0  0  0
  7  8  2  0  0  0  0
  7 10  1  0  0  0  0
  7  9  2  0  0  0  0
M  END
> <ID>
5796

> <Formula>
C7H9NO2S

> <FW>
171.2169

> <DSSTox_CID>
9105

> <DSSTox_RID>
78668

> <DSSTox_GSID>
29105

> <DSSTox_FileID_Sort>
3350

> <TS_ChemName>
4-Toluenesulfonamide

> <TS_ChemName_Synonyms>
4-Toluenesulfonamide (Benzenesulfonamide, 4-methyl-)

> <TS_CASRN>
70-55-3

> <CASRN_ChemName_Relationship>
primary

> <TS_Description>
single chemical compound

> <ChemNote>


> <STRUCTURE_Shown>
tested chemical

> <STRUCTURE_Formula>
C7H9NO2S

> <STRUCTURE_MW>
171.2169

> <STRUCTURE_ChemType>
defined organic

> <STRUCTURE_DefinedOrganicForm>
parent

> <STRUCTURE_IUPAC>
4-methylbenzenesulfonamide

> <STRUCTURE_SMILES>
Cc1ccc(cc1)S(=O)(N)=O

> <STRUCTURE_SMILES_Desalt>
Cc1ccc(cc1)S(=O)(N)=O

> <Substance_modify_yyyymmdd>
20080429

$$$$
