700-13-0
ChemmineR-0915142007XD

 11 11  0  0  0  0  0  0  0  0  1 V2000
    3.4542   -1.9988    0.0000 C   0  0  0  0  0  0  0  0  0  0  0  0
    3.4542   -3.3252    0.0000 C   0  0  0  0  0  0  0  0  0  0  0  0
    2.3028   -1.3448    0.0000 C   0  0  0  0  0  0  0  0  0  0  0  0
    2.3028   -3.9976    0.0000 C   0  0  0  0  0  0  0  0  0  0  0  0
    1.1514   -1.9988    0.0000 C   0  0  0  0  0  0  0  0  0  0  0  0
    1.1514   -3.3252    0.0000 C   0  0  0  0  0  0  0  0  0  0  0  0
    0.0000   -3.9838    0.0000 C   0  0  0  0  0  0  0  0  0  0  0  0
    4.6056   -1.3264    0.0000 C   0  0  0  0  0  0  0  0  0  0  0  0
    0.0000   -1.3448    0.0000 O   0  0  0  0  0  0  0  0  0  0  0  0
    4.6056   -3.9976    0.0000 O   0  0  0  0  0  0  0  0  0  0  0  0
    2.3028    0.0000    0.0000 C   0  0  0  0  0  0  0  0  0  0  0  0
  1  2  1  0  0  0  0
  1  3  2  0  0  0  0
  1  8  1  0  0  0  0
  2  4  2  0  0  0  0
  2 10  1  0  0  0  0
  3  5  1  0  0  0  0
  3 11  1  0  0  0  0
  4  6  1  0  0  0  0
  5  6  2  0  0  0  0
  5  9  1  0  0  0  0
  6  7  1  0  0  0  0
M  END
> <ID>
15639

> <Formula>
C9H12O2

> <FW>
152.1904

> <DSSTox_CID>
31018

> <DSSTox_RID>
97275

> <DSSTox_GSID>
52446

> <DSSTox_FileID_Sort>
8342

> <TS_ChemName>
2,3,5-Trimethylhydroquinone

> <TS_ChemName_Synonyms>
2,3,5-Trimethylbenzene-1,4-diol; NSC 401617

> <TS_CASRN>
700-13-0

> <CASRN_ChemName_Relationship>
primary

> <TS_Description>
single chemical compound

> <ChemNote>


> <STRUCTURE_Shown>
tested chemical

> <STRUCTURE_Formula>
C9H12O2

> <STRUCTURE_MW>
152.1904

> <STRUCTURE_ChemType>
defined organic

> <STRUCTURE_DefinedOrganicForm>
parent

> <STRUCTURE_IUPAC>
2,3,5-trimethylbenzene-1,4-diol

> <STRUCTURE_SMILES>
Oc1cc(C)c(O)c(C)c1C

> <STRUCTURE_SMILES_Desalt>
Oc1cc(C)c(O)c(C)c1C

> <Substance_modify_yyyymmdd>
20130909

$$$$
