700-06-1
ChemmineR-0915142007XD

 11 12  0  0  0  0  0  0  0  0  1 V2000
    3.5746   -0.2538    0.0000 N   0  0  0  0  0  0  0  0  0  0  0  0
    4.3572   -1.3273    0.0000 C   0  0  0  0  0  0  0  0  0  0  0  0
    2.3055   -0.6557    0.0000 C   0  0  0  0  0  0  0  0  0  0  0  0
    2.3055   -1.9829    0.0000 C   0  0  0  0  0  0  0  0  0  0  0  0
    3.5746   -2.4007    0.0000 C   0  0  0  0  0  0  0  0  0  0  0  0
    1.1528    0.0000    0.0000 C   0  0  0  0  0  0  0  0  0  0  0  0
    1.1528   -2.6598    0.0000 C   0  0  0  0  0  0  0  0  0  0  0  0
    0.0000   -1.9829    0.0000 C   0  0  0  0  0  0  0  0  0  0  0  0
    0.0000   -0.6557    0.0000 C   0  0  0  0  0  0  0  0  0  0  0  0
    3.9923   -3.6645    0.0000 C   0  0  0  0  0  0  0  0  0  0  0  0
    5.2879   -3.9395    0.0000 O   0  0  0  0  0  0  0  0  0  0  0  0
  1  2  1  0  0  0  0
  1  3  1  0  0  0  0
  2  5  2  0  0  0  0
  3  4  2  0  0  0  0
  3  6  1  0  0  0  0
  4  5  1  0  0  0  0
  4  7  1  0  0  0  0
  5 10  1  0  0  0  0
  6  9  2  0  0  0  0
  7  8  2  0  0  0  0
  8  9  1  0  0  0  0
 10 11  1  0  0  0  0
M  END
> <ID>
6332

> <Formula>
C9H9NO

> <FW>
147.1739

> <DSSTox_CID>
11458

> <DSSTox_RID>
78876

> <DSSTox_GSID>
31458

> <DSSTox_FileID_Sort>
3558

> <TS_ChemName>
Indole-3-carbinol

> <TS_ChemName_Synonyms>
I3C; Prevention 4

> <TS_CASRN>
700-06-1

> <CASRN_ChemName_Relationship>
primary

> <TS_Description>
single chemical compound

> <ChemNote>


> <STRUCTURE_Shown>
tested chemical

> <STRUCTURE_Formula>
C9H9NO

> <STRUCTURE_MW>
147.1739

> <STRUCTURE_ChemType>
defined organic

> <STRUCTURE_DefinedOrganicForm>
parent

> <STRUCTURE_IUPAC>
1H-indol-3-ylmethanol

> <STRUCTURE_SMILES>
OCc2cnc1ccccc12

> <STRUCTURE_SMILES_Desalt>
OCc2cnc1ccccc12

> <Substance_modify_yyyymmdd>
20080429

$$$$
