701-64-4
ChemmineR-0915142007XD

 11 11  0  0  0  0  0  0  0  0  1 V2000
    3.9694   -3.4546    0.0000 P   0  0  0  0  0  0  0  0  0  0  0  0
    3.9694   -2.1227    0.0000 O   0  0  0  0  0  0  0  0  0  0  0  0
    2.6533   -3.4546    0.0000 O   0  0  0  0  0  0  0  0  0  0  0  0
    3.9906   -4.7919    0.0000 O   0  0  0  0  0  0  0  0  0  0  0  0
    5.3066   -3.4546    0.0000 O   0  0  0  0  0  0  0  0  0  0  0  0
    1.9794    0.0000    0.0000 C   0  0  0  0  0  0  0  0  0  0  0  0
    0.6580    0.0000    0.0000 C   0  0  0  0  0  0  0  0  0  0  0  0
    0.0000   -1.1568    0.0000 C   0  0  0  0  0  0  0  0  0  0  0  0
    0.6580   -2.3137    0.0000 C   0  0  0  0  0  0  0  0  0  0  0  0
    1.9953   -2.3137    0.0000 C   0  0  0  0  0  0  0  0  0  0  0  0
    2.6533   -1.1568    0.0000 C   0  0  0  0  0  0  0  0  0  0  0  0
  1  2  2  0  0  0  0
  1  3  1  0  0  0  0
  1  4  1  0  0  0  0
  1  5  1  0  0  0  0
  3 10  1  0  0  0  0
  6 11  2  0  0  0  0
  6  7  1  0  0  0  0
  7  8  2  0  0  0  0
  8  9  1  0  0  0  0
  9 10  2  0  0  0  0
 10 11  1  0  0  0  0
M  END
> <ID>
10628

> <Formula>
C6H7O4P

> <FW>
174.0911

> <DSSTox_CID>
24981

> <DSSTox_RID>
80630

> <DSSTox_GSID>
44981

> <DSSTox_FileID_Sort>
5312

> <TS_ChemName>
Phenyl dihydrogen phosphate

> <TS_ChemName_Synonyms>
Phenyl dihydrogen phosphate (Phosphoric acid, monophenyl ester)

> <TS_CASRN>
701-64-4

> <CASRN_ChemName_Relationship>
primary

> <TS_Description>
single chemical compound

> <ChemNote>


> <STRUCTURE_Shown>
tested chemical

> <STRUCTURE_Formula>
C6H7O4P

> <STRUCTURE_MW>
174.0911

> <STRUCTURE_ChemType>
defined organic

> <STRUCTURE_DefinedOrganicForm>
parent

> <STRUCTURE_IUPAC>
phenyl dihydrogen phosphate

> <STRUCTURE_SMILES>
OP(=O)(O)Oc1ccccc1

> <STRUCTURE_SMILES_Desalt>
OP(=O)(O)Oc1ccccc1

> <Substance_modify_yyyymmdd>
20091116

$$$$
