701921-71-3
ChemmineR-0915142007XD

 38 36  0  0  0  0  0  0  0  0  2 V2000
    0.0000  -14.9932    0.0000 C   0  0  0  0  0  0  0  0  0  0  0  0
   20.9111   -6.9007    0.0000 C   0  0  0  0  0  0  0  0  0  0  0  0
   10.5183   -0.9201    0.0000 C   0  0  0  0  0  0  0  0  0  0  0  0
   13.9895    0.0000    0.0000 C   0  0  0  0  0  0  0  0  0  0  0  0
    1.3383  -14.9932    0.0000 C   0  0  0  0  0  0  0  0  0  0  0  0
   19.7610   -7.5698    0.0000 C   0  0  0  0  0  0  0  0  0  0  0  0
   10.5183   -2.2375    0.0000 C   0  0  0  0  0  0  0  0  0  0  0  0
   14.6377   -1.1501    0.0000 C   0  0  0  0  0  0  0  0  0  0  0  0
    1.9866  -13.8431    0.0000 C   0  0  0  0  0  0  0  0  0  0  0  0
   18.5899   -6.9007    0.0000 C   0  0  0  0  0  0  0  0  0  0  0  0
   11.6684   -2.9066    0.0000 C   0  0  0  0  0  0  0  0  0  0  0  0
   13.9895   -2.3211    0.0000 C   0  0  0  0  0  0  0  0  0  0  0  0
    3.3039  -13.8431    0.0000 C   0  0  0  0  0  0  0  0  0  0  0  0
   17.4398   -7.5698    0.0000 C   0  0  0  0  0  0  0  0  0  0  0  0
   11.6684   -4.2449    0.0000 C   0  0  0  0  0  0  0  0  0  0  0  0
   14.6377   -3.4712    0.0000 C   0  0  0  0  0  0  0  0  0  0  0  0
    3.9940  -12.6721    0.0000 C   0  0  0  0  0  0  0  0  0  0  0  0
    5.3114  -12.6721    0.0000 C   0  0  0  0  0  0  0  0  0  0  0  0
    6.0015  -11.5220    0.0000 C   0  0  0  0  0  0  0  0  0  0  0  0
    7.3189  -11.5220    0.0000 C   0  0  0  0  0  0  0  0  0  0  0  0
    8.0089  -10.3719    0.0000 C   0  0  0  0  0  0  0  0  0  0  0  0
    9.3263  -10.3719    0.0000 C   0  0  0  0  0  0  0  0  0  0  0  0
    9.9746   -9.2218    0.0000 C   0  0  0  0  0  0  0  0  0  0  0  0
   11.3129   -9.2218    0.0000 C   0  0  0  0  0  0  0  0  0  0  0  0
   16.2897   -6.9007    0.0000 C   0  0  0  0  0  0  0  0  0  0  0  0
   12.8185   -4.9350    0.0000 C   0  0  0  0  0  0  0  0  0  0  0  0
   13.9895   -4.6004    0.0000 C   0  0  0  0  0  0  0  0  0  0  0  0
   11.9820   -8.0717    0.0000 C   0  0  0  0  0  0  0  0  0  0  0  0
   15.1396   -7.5698    0.0000 C   0  0  0  0  0  0  0  0  0  0  0  0
   12.8185   -6.2524    0.0000 C   0  0  0  0  0  0  0  0  0  0  0  0
   14.6377   -5.7505    0.0000 C   0  0  0  0  0  0  0  0  0  0  0  0
   13.3204   -8.0717    0.0000 C   0  0  0  0  0  0  0  0  0  0  0  0
   13.9895   -6.9007    0.0000 P   0  3  0  0  0  0  0  0  0  0  0  0
   13.1949  -12.0448    0.0000 C   0  0  0  0  0  0  0  0  0  0  0  0
   15.2233  -10.8947    0.0000 C   0  0  0  0  0  0  0  0  0  0  0  0
   11.8775  -12.0448    0.0000 N   0  0  0  0  0  0  0  0  0  0  0  0
   15.8715   -9.7446    0.0000 N   0  0  0  0  0  0  0  0  0  0  0  0
   14.5541  -12.0448    0.0000 N   0  5  0  0  0  0  0  0  0  0  0  0
  1  5  1  0  0  0  0
  2  6  1  0  0  0  0
  3  7  1  0  0  0  0
  4  8  1  0  0  0  0
  5  9  1  0  0  0  0
  6 10  1  0  0  0  0
  7 11  1  0  0  0  0
  8 12  1  0  0  0  0
  9 13  1  0  0  0  0
 10 14  1  0  0  0  0
 11 15  1  0  0  0  0
 12 16  1  0  0  0  0
 13 17  1  0  0  0  0
 14 25  1  0  0  0  0
 15 26  1  0  0  0  0
 16 27  1  0  0  0  0
 17 18  1  0  0  0  0
 18 19  1  0  0  0  0
 19 20  1  0  0  0  0
 20 21  1  0  0  0  0
 21 22  1  0  0  0  0
 22 23  1  0  0  0  0
 23 24  1  0  0  0  0
 24 28  1  0  0  0  0
 25 29  1  0  0  0  0
 26 30  1  0  0  0  0
 27 31  1  0  0  0  0
 28 32  1  0  0  0  0
 29 33  1  0  0  0  0
 30 33  1  0  0  0  0
 31 33  1  0  0  0  0
 32 33  1  0  0  0  0
 34 36  3  0  0  0  0
 34 38  1  0  0  0  0
 35 37  3  0  0  0  0
 35 38  1  0  0  0  0
M  END
> <ID>
14215

> <Formula>
C34H68N3P

> <FW>
549.8976 (483.8555+66.0420)

> <DSSTox_CID>
29310

> <DSSTox_RID>
83426

> <DSSTox_GSID>
49351

> <DSSTox_FileID_Sort>
8101

> <TS_ChemName>
Trihexyltetradecylphosphonium dicyanamide

> <TS_ChemName_Synonyms>


> <TS_CASRN>
701921-71-3

> <CASRN_ChemName_Relationship>
primary

> <TS_Description>
single chemical compound

> <ChemNote>


> <STRUCTURE_Shown>
tested chemical

> <STRUCTURE_Formula>
C34H68N3P

> <STRUCTURE_MW>
549.8976

> <STRUCTURE_ChemType>
defined organic

> <STRUCTURE_DefinedOrganicForm>
complex

> <STRUCTURE_IUPAC>
trihexyl(tetradecyl)phosphonium dicyanoazanide

> <STRUCTURE_SMILES>
N#C[N-]C#N.CCCCCC[P+](CCCCCCCCCCCCCC)(CCCCCC)CCCCCC

> <STRUCTURE_SMILES_Desalt>
CCCCCC[P+](CCCCCC)(CCCCCC)CCCCCCCCCCCCCC

> <Substance_modify_yyyymmdd>
20111204

$$$$
