702-23-8
ChemmineR-0915142007XD

 11 11  0  0  0  0  0  0  0  0  1 V2000
    4.6564   -1.1482    0.0000 C   0  0  0  0  0  0  0  0  0  0  0  0
    3.9867   -2.3043    0.0000 C   0  0  0  0  0  0  0  0  0  0  0  0
    2.6551   -2.3043    0.0000 C   0  0  0  0  0  0  0  0  0  0  0  0
    2.0013   -1.1482    0.0000 C   0  0  0  0  0  0  0  0  0  0  0  0
    2.6551    0.0000    0.0000 C   0  0  0  0  0  0  0  0  0  0  0  0
    3.9867    0.0000    0.0000 C   0  0  0  0  0  0  0  0  0  0  0  0
    6.6418    0.0000    0.0000 C   0  0  0  0  0  0  0  0  0  0  0  0
    5.9880   -1.1482    0.0000 C   0  0  0  0  0  0  0  0  0  0  0  0
    7.9734    0.0000    0.0000 O   0  0  0  0  0  0  0  0  0  0  0  0
    0.6698   -1.1482    0.0000 O   0  0  0  0  0  0  0  0  0  0  0  0
    0.0000   -2.3043    0.0000 C   0  0  0  0  0  0  0  0  0  0  0  0
  1  2  2  0  0  0  0
  1  6  1  0  0  0  0
  1  8  1  0  0  0  0
  2  3  1  0  0  0  0
  3  4  2  0  0  0  0
  4  5  1  0  0  0  0
  4 10  1  0  0  0  0
  5  6  2  0  0  0  0
  7  8  1  0  0  0  0
  7  9  1  0  0  0  0
 10 11  1  0  0  0  0
M  END
> <ID>
8484

> <Formula>
C9H12O2

> <FW>
152.1904

> <DSSTox_CID>
21518

> <DSSTox_RID>
79762

> <DSSTox_GSID>
41518

> <DSSTox_FileID_Sort>
4444

> <TS_ChemName>
4-Methoxybenzeneethanol

> <TS_ChemName_Synonyms>
4-Methoxybenzeneethanol (4-Methoxyphenethyl alcohol)

> <TS_CASRN>
702-23-8

> <CASRN_ChemName_Relationship>
primary

> <TS_Description>
single chemical compound

> <ChemNote>


> <STRUCTURE_Shown>
tested chemical

> <STRUCTURE_Formula>
C9H12O2

> <STRUCTURE_MW>
152.1904

> <STRUCTURE_ChemType>
defined organic

> <STRUCTURE_DefinedOrganicForm>
parent

> <STRUCTURE_IUPAC>
2-(4-methoxyphenyl)ethanol

> <STRUCTURE_SMILES>
COc1ccc(CCO)cc1

> <STRUCTURE_SMILES_Desalt>
COc1ccc(CCO)cc1

> <Substance_modify_yyyymmdd>
20080825

$$$$
