70321-85-6
ChemmineR-0915142007XD

 18 17  0  0  0  0  0  0  0  0  2 V2000
    4.5942   -1.9132    0.0000 C   0  0  0  0  0  0  0  0  0  0  0  0
    5.6767   -1.2461    0.0000 C   0  0  0  0  0  0  0  0  0  0  0  0
    6.8473   -1.9132    0.0000 C   0  0  0  0  0  0  0  0  0  0  0  0
    6.8473   -3.2474    0.0000 C   0  0  0  0  0  0  0  0  0  0  0  0
    5.6767   -3.9271    0.0000 C   0  0  0  0  0  0  0  0  0  0  0  0
    4.5942   -3.2474    0.0000 C   0  0  0  0  0  0  0  0  0  0  0  0
    3.4111   -1.2965    0.0000 S   0  0  0  0  0  0  0  0  0  0  0  0
    4.1159    0.0000    0.0000 O   0  0  0  0  0  0  0  0  0  0  0  0
    2.2657   -0.6797    0.0000 O   0  5  0  0  0  0  0  0  0  0  0  0
    2.7817   -2.4293    0.0000 O   0  0  0  0  0  0  0  0  0  0  0  0
    7.9927   -3.8768    0.0000 N   0  0  0  0  0  0  0  0  0  0  0  0
    9.1256   -3.1971    0.0000 C   0  0  0  0  0  0  0  0  0  0  0  0
   10.2584   -3.8768    0.0000 C   0  0  0  0  0  0  0  0  0  0  0  0
   11.3912   -3.1971    0.0000 C   0  0  0  0  0  0  0  0  0  0  0  0
   12.5870   -3.8139    0.0000 C   0  0  0  0  0  0  0  0  0  0  0  0
    9.1256   -1.8629    0.0000 O   0  0  0  0  0  0  0  0  0  0  0  0
   11.3912   -1.8629    0.0000 O   0  0  0  0  0  0  0  0  0  0  0  0
    0.0000   -0.4531    0.0000 K   0  3  0  0  0  0  0  0  0  0  0  0
  1  2  2  0  0  0  0
  1  6  1  0  0  0  0
  1  7  1  0  0  0  0
  2  3  1  0  0  0  0
  3  4  2  0  0  0  0
  4  5  1  0  0  0  0
  4 11  1  0  0  0  0
  5  6  2  0  0  0  0
  7  8  2  0  0  0  0
  7  9  1  0  0  0  0
  7 10  2  0  0  0  0
 11 12  1  0  0  0  0
 12 13  1  0  0  0  0
 12 16  2  0  0  0  0
 13 14  1  0  0  0  0
 14 15  1  0  0  0  0
 14 17  2  0  0  0  0
M  END
> <ID>
10374

> <Formula>
C10H10KNO5S

> <FW>
295.3534 (256.2556+39.0978)

> <DSSTox_CID>
24722

> <DSSTox_RID>
80422

> <DSSTox_GSID>
44722

> <DSSTox_FileID_Sort>
5104

> <TS_ChemName>
Potassium 4-[(3-oxobutanoyl)amino]benzenesulfonate

> <TS_ChemName_Synonyms>
Potassium 4-[(3-oxobutanoyl)amino]benzenesulfonate (Benzenesulfonic acid, 4-[(1,3-dioxobutyl)amino]-, monopotassium salt)

> <TS_CASRN>
70321-85-6

> <CASRN_ChemName_Relationship>
primary

> <TS_Description>
single chemical compound

> <ChemNote>
tautomers; parent [6199-95-7]

> <STRUCTURE_Shown>
tested chemical

> <STRUCTURE_Formula>
C10H10KNO5S

> <STRUCTURE_MW>
295.3534

> <STRUCTURE_ChemType>
defined organic

> <STRUCTURE_DefinedOrganicForm>
salt

> <STRUCTURE_IUPAC>
potassium 4-[(3-oxobutanoyl)amino]benzenesulfonate

> <STRUCTURE_SMILES>
[K+].O=S([O-])(=O)c1ccc(NC(=O)CC(C)=O)cc1

> <STRUCTURE_SMILES_Desalt>
OS(=O)(=O)c1ccc(NC(=O)CC(C)=O)cc1

> <Substance_modify_yyyymmdd>
20091116

$$$$
