70321-86-7
ChemmineR-0915142007XD

 34 38  0  0  0  0  0  0  0  0  1 V2000
    5.7694   -2.7630    0.0000 C   0  0  0  0  0  0  0  0  0  0  0  0
    5.7694   -1.4363    0.0000 O   0  0  0  0  0  0  0  0  0  0  0  0
    6.9136   -3.4203    0.0000 C   0  0  0  0  0  0  0  0  0  0  0  0
    4.6131   -3.4203    0.0000 C   0  0  0  0  0  0  0  0  0  0  0  0
    4.6131   -4.7470    0.0000 C   0  0  0  0  0  0  0  0  0  0  0  0
    6.9136   -4.7470    0.0000 C   0  0  0  0  0  0  0  0  0  0  0  0
    5.7694   -5.4164    0.0000 C   0  0  0  0  0  0  0  0  0  0  0  0
    8.2038   -1.4363    0.0000 N   0  0  0  0  0  0  0  0  0  0  0  0
    8.0699   -2.7630    0.0000 N   0  0  0  0  0  0  0  0  0  0  0  0
    9.2749   -3.2986    0.0000 N   0  0  0  0  0  0  0  0  0  0  0  0
   10.1756   -2.3126    0.0000 C   0  0  0  0  0  0  0  0  0  0  0  0
    9.5183   -1.1563    0.0000 C   0  0  0  0  0  0  0  0  0  0  0  0
   10.1756    0.0000    0.0000 C   0  0  0  0  0  0  0  0  0  0  0  0
   11.5023    0.0000    0.0000 C   0  0  0  0  0  0  0  0  0  0  0  0
   12.1718   -1.1563    0.0000 C   0  0  0  0  0  0  0  0  0  0  0  0
   11.5023   -2.3126    0.0000 C   0  0  0  0  0  0  0  0  0  0  0  0
    5.7694   -6.7432    0.0000 C   0  0  0  0  0  0  0  0  0  0  0  0
    7.0961   -6.7432    0.0000 C   0  0  0  0  0  0  0  0  0  0  0  0
    4.4305   -6.7432    0.0000 C   0  0  0  0  0  0  0  0  0  0  0  0
    5.7694   -8.0821    0.0000 C   0  0  0  0  0  0  0  0  0  0  0  0
    6.9136   -8.7393    0.0000 C   0  0  0  0  0  0  0  0  0  0  0  0
    4.6131   -8.7393    0.0000 C   0  0  0  0  0  0  0  0  0  0  0  0
    6.9136  -10.0661    0.0000 C   0  0  0  0  0  0  0  0  0  0  0  0
    4.6131  -10.0661    0.0000 C   0  0  0  0  0  0  0  0  0  0  0  0
    5.7694  -10.7355    0.0000 C   0  0  0  0  0  0  0  0  0  0  0  0
    3.4568   -2.7630    0.0000 C   0  0  0  0  0  0  0  0  0  0  0  0
    2.7995   -3.9071    0.0000 C   0  0  0  0  0  0  0  0  0  0  0  0
    4.1262   -1.6067    0.0000 C   0  0  0  0  0  0  0  0  0  0  0  0
    2.3005   -2.0814    0.0000 C   0  0  0  0  0  0  0  0  0  0  0  0
    1.1563   -2.7630    0.0000 C   0  0  0  0  0  0  0  0  0  0  0  0
    2.3005   -0.7547    0.0000 C   0  0  0  0  0  0  0  0  0  0  0  0
    0.0000   -2.0814    0.0000 C   0  0  0  0  0  0  0  0  0  0  0  0
    1.1563   -0.0974    0.0000 C   0  0  0  0  0  0  0  0  0  0  0  0
    0.0000   -0.7547    0.0000 C   0  0  0  0  0  0  0  0  0  0  0  0
  1  2  1  0  0  0  0
  1  3  2  0  0  0  0
  1  4  1  0  0  0  0
  3  6  1  0  0  0  0
  3  9  1  0  0  0  0
  4  5  2  0  0  0  0
  4 26  1  0  0  0  0
  5  7  1  0  0  0  0
  6  7  2  0  0  0  0
  7 17  1  0  0  0  0
  8  9  1  0  0  0  0
  8 12  2  0  0  0  0
  9 10  1  0  0  0  0
 10 11  2  0  0  0  0
 11 12  1  0  0  0  0
 11 16  1  0  0  0  0
 12 13  1  0  0  0  0
 13 14  2  0  0  0  0
 14 15  1  0  0  0  0
 15 16  2  0  0  0  0
 17 18  1  0  0  0  0
 17 19  1  0  0  0  0
 17 20  1  0  0  0  0
 20 21  2  0  0  0  0
 20 22  1  0  0  0  0
 21 23  1  0  0  0  0
 22 24  2  0  0  0  0
 23 25  2  0  0  0  0
 24 25  1  0  0  0  0
 26 27  1  0  0  0  0
 26 28  1  0  0  0  0
 26 29  1  0  0  0  0
 29 30  2  0  0  0  0
 29 31  1  0  0  0  0
 30 32  1  0  0  0  0
 31 33  2  0  0  0  0
 32 34  2  0  0  0  0
 33 34  1  0  0  0  0
M  END
> <ID>
5759

> <Formula>
C30H29N3O

> <FW>
447.5708

> <DSSTox_CID>
8985

> <DSSTox_RID>
78661

> <DSSTox_GSID>
28985

> <DSSTox_FileID_Sort>
3343

> <TS_ChemName>
2-(2H-Benzotriazol-2-yl)-4,6-bis(1-methyl-1-phenylethyl)phenol

> <TS_ChemName_Synonyms>


> <TS_CASRN>
70321-86-7

> <CASRN_ChemName_Relationship>
primary

> <TS_Description>
single chemical compound

> <ChemNote>


> <STRUCTURE_Shown>
tested chemical

> <STRUCTURE_Formula>
C30H29N3O

> <STRUCTURE_MW>
447.5708

> <STRUCTURE_ChemType>
defined organic

> <STRUCTURE_DefinedOrganicForm>
parent

> <STRUCTURE_IUPAC>
2-(2H-benzotriazol-2-yl)-4,6-bis(2-phenylpropan-2-yl)phenol

> <STRUCTURE_SMILES>
CC(C)(c1ccccc1)c2cc(c(O)c(c2)C(C)(C)c3ccccc3)n4nc5ccccc5n4

> <STRUCTURE_SMILES_Desalt>
CC(C)(c1ccccc1)c2cc(c(O)c(c2)C(C)(C)c3ccccc3)n4nc5ccccc5n4

> <Substance_modify_yyyymmdd>
20080429

$$$$
