70356-09-1
ChemmineR-0915142007XD

 23 24  0  0  0  0  0  0  0  0  1 V2000
    6.9173   -3.3320    0.0000 C   0  0  0  0  0  0  0  0  0  0  0  0
    5.7517   -3.9907    0.0000 C   0  0  0  0  0  0  0  0  0  0  0  0
    8.0702   -3.9907    0.0000 C   0  0  0  0  0  0  0  0  0  0  0  0
    4.5989   -3.3320    0.0000 C   0  0  0  0  0  0  0  0  0  0  0  0
    9.2104   -3.3320    0.0000 C   0  0  0  0  0  0  0  0  0  0  0  0
    1.1529   -1.3302    0.0000 C   0  0  0  0  0  0  0  0  0  0  0  0
    2.3058   -2.0017    0.0000 C   0  0  0  0  0  0  0  0  0  0  0  0
    5.7517   -5.3210    0.0000 O   0  0  0  0  0  0  0  0  0  0  0  0
    8.0702   -5.3210    0.0000 O   0  0  0  0  0  0  0  0  0  0  0  0
    3.4586   -3.9907    0.0000 C   0  0  0  0  0  0  0  0  0  0  0  0
    4.5989   -2.0017    0.0000 C   0  0  0  0  0  0  0  0  0  0  0  0
    3.4586   -1.3302    0.0000 C   0  0  0  0  0  0  0  0  0  0  0  0
    2.3058   -3.3320    0.0000 C   0  0  0  0  0  0  0  0  0  0  0  0
   10.3633   -3.9907    0.0000 C   0  0  0  0  0  0  0  0  0  0  0  0
    9.2104   -2.0017    0.0000 C   0  0  0  0  0  0  0  0  0  0  0  0
   11.5162   -2.0017    0.0000 C   0  0  0  0  0  0  0  0  0  0  0  0
   10.3633   -1.3302    0.0000 C   0  0  0  0  0  0  0  0  0  0  0  0
   11.5162   -3.3320    0.0000 C   0  0  0  0  0  0  0  0  0  0  0  0
   12.6690   -1.3302    0.0000 O   0  0  0  0  0  0  0  0  0  0  0  0
    1.8243   -0.1774    0.0000 C   0  0  0  0  0  0  0  0  0  0  0  0
    0.4814   -2.4831    0.0000 C   0  0  0  0  0  0  0  0  0  0  0  0
    0.0000   -0.6588    0.0000 C   0  0  0  0  0  0  0  0  0  0  0  0
   12.6690    0.0000    0.0000 C   0  0  0  0  0  0  0  0  0  0  0  0
  1  2  1  0  0  0  0
  1  3  1  0  0  0  0
  2  4  1  0  0  0  0
  2  8  2  0  0  0  0
  3  5  1  0  0  0  0
  3  9  2  0  0  0  0
  4 10  1  0  0  0  0
  4 11  2  0  0  0  0
  5 14  1  0  0  0  0
  5 15  2  0  0  0  0
  6  7  1  0  0  0  0
  6 20  1  0  0  0  0
  6 21  1  0  0  0  0
  6 22  1  0  0  0  0
  7 12  2  0  0  0  0
  7 13  1  0  0  0  0
 10 13  2  0  0  0  0
 11 12  1  0  0  0  0
 14 18  2  0  0  0  0
 15 17  1  0  0  0  0
 16 17  2  0  0  0  0
 16 19  1  0  0  0  0
 16 18  1  0  0  0  0
 19 23  1  0  0  0  0
M  END
> <ID>
10477

> <Formula>
C20H22O3

> <FW>
310.3869

> <DSSTox_CID>
24829

> <DSSTox_RID>
80510

> <DSSTox_GSID>
44829

> <DSSTox_FileID_Sort>
5192

> <TS_ChemName>
1-(4-tert-Butylphenyl)-3-(4-methoxyphenyl)propane-1,3-dione

> <TS_ChemName_Synonyms>
1,3-Propanedione, 1-[4-(1,1-dimethylethyl)phenyl]-3-(4-methoxyphenyl)-

> <TS_CASRN>
70356-09-1

> <CASRN_ChemName_Relationship>
primary

> <TS_Description>
single chemical compound

> <ChemNote>
tautomers

> <STRUCTURE_Shown>
tested chemical

> <STRUCTURE_Formula>
C20H22O3

> <STRUCTURE_MW>
310.3869

> <STRUCTURE_ChemType>
defined organic

> <STRUCTURE_DefinedOrganicForm>
parent

> <STRUCTURE_IUPAC>
1-(4-tert-butylphenyl)-3-(4-methoxyphenyl)propane-1,3-dione

> <STRUCTURE_SMILES>
COc1ccc(cc1)C(=O)CC(=O)c2ccc(cc2)C(C)(C)C

> <STRUCTURE_SMILES_Desalt>
COc1ccc(cc1)C(=O)CC(=O)c2ccc(cc2)C(C)(C)C

> <Substance_modify_yyyymmdd>
20091116

$$$$
