7036-58-0
ChemmineR-0915142007XD

 19 20  0  0  0  0  0  0  0  0  1 V2000
    0.0000   -7.2670    0.0000 C   0  0  0  0  0  0  0  0  0  0  0  0
    0.2756   -5.9716    0.0000 C   0  0  0  0  0  0  0  0  0  0  0  0
    1.5434   -5.5490    0.0000 C   0  0  0  0  0  0  0  0  0  0  0  0
    1.8098   -4.2536    0.0000 O   0  0  0  0  0  0  0  0  0  0  0  0
    3.0777   -3.8494    0.0000 C   0  0  0  0  0  0  0  0  0  0  0  0
    4.0699   -4.7313    0.0000 O   0  0  0  0  0  0  0  0  0  0  0  0
    3.3533   -2.5356    0.0000 C   0  0  0  0  0  0  0  0  0  0  0  0
    2.4713   -1.5618    0.0000 C   0  0  0  0  0  0  0  0  0  0  0  0
    3.1236   -0.4042    0.0000 N   0  0  0  0  0  0  0  0  0  0  0  0
    4.4282   -0.6798    0.0000 C   0  0  0  0  0  0  0  0  0  0  0  0
    4.5660   -2.0120    0.0000 N   0  0  0  0  0  0  0  0  0  0  0  0
    5.7235   -2.6642    0.0000 C   0  0  0  0  0  0  0  0  0  0  0  0
    5.7235   -3.9964    0.0000 C   0  0  0  0  0  0  0  0  0  0  0  0
    6.8811   -2.0120    0.0000 C   0  0  0  0  0  0  0  0  0  0  0  0
    6.8811   -0.6798    0.0000 C   0  0  0  0  0  0  0  0  0  0  0  0
    8.0295    0.0000    0.0000 C   0  0  0  0  0  0  0  0  0  0  0  0
    9.1871   -0.6798    0.0000 C   0  0  0  0  0  0  0  0  0  0  0  0
    9.1871   -2.0120    0.0000 C   0  0  0  0  0  0  0  0  0  0  0  0
    8.0295   -2.6642    0.0000 C   0  0  0  0  0  0  0  0  0  0  0  0
  1  2  1  0  0  0  0
  2  3  1  0  0  0  0
  3  4  1  0  0  0  0
  4  5  1  0  0  0  0
  5  6  2  0  0  0  0
  5  7  1  0  0  0  0
  7  8  2  0  0  0  0
  7 11  1  0  0  0  0
  8  9  1  0  0  0  0
  9 10  2  0  0  0  0
 10 11  1  0  0  0  0
 11 12  1  0  0  0  0
 12 13  1  0  0  0  0
 12 14  1  0  0  0  0
 14 15  2  0  0  0  0
 14 19  1  0  0  0  0
 15 16  1  0  0  0  0
 16 17  2  0  0  0  0
 17 18  1  0  0  0  0
 18 19  2  0  0  0  0
M  END
> <ID>
16208

> <Formula>
C15H18N2O2

> <FW>
258.3156

> <DSSTox_CID>
31599

> <DSSTox_RID>
97483

> <DSSTox_GSID>
57810

> <DSSTox_FileID_Sort>
8550

> <TS_ChemName>
Propoxate

> <TS_ChemName_Synonyms>


> <TS_CASRN>
7036-58-0

> <CASRN_ChemName_Relationship>
primary

> <TS_Description>
single chemical compound

> <ChemNote>


> <STRUCTURE_Shown>
tested chemical

> <STRUCTURE_Formula>
C15H18N2O2

> <STRUCTURE_MW>
258.3156

> <STRUCTURE_ChemType>
defined organic

> <STRUCTURE_DefinedOrganicForm>
parent

> <STRUCTURE_IUPAC>
propyl 1-(1-phenylethyl)-1H-imidazole-5-carboxylate

> <STRUCTURE_SMILES>
CC(c1ccccc1)n2cncc2C(=O)OCCC

> <STRUCTURE_SMILES_Desalt>
CC(c1ccccc1)n2cncc2C(=O)OCCC

> <Substance_modify_yyyymmdd>
20131018

$$$$
