70374-39-9
ChemmineR-0915142007XD

 23 25  0  0  0  0  0  0  0  0  1 V2000
    6.8382   -6.6426    0.0000 C    0  0  0  0  0  0  0  0  0  0  0  0
    5.6848   -5.9732    0.0000 N    0  0  0  0  0  0  0  0  0  0  0  0
    5.6848   -4.6446    0.0000 C    0  0  0  0  0  0  0  0  0  0  0  0
    6.8382   -3.9855    0.0000 C    0  0  0  0  0  0  0  0  0  0  0  0
    7.9711   -4.6446    0.0000 O    0  0  0  0  0  0  0  0  0  0  0  0
    6.8382   -2.6570    0.0000 N    0  0  0  0  0  0  0  0  0  0  0  0
    7.9917   -1.9876    0.0000 C    0  0  0  0  0  0  0  0  0  0  0  0
    7.9917   -0.6591    0.0000 C    0  0  0  0  0  0  0  0  0  0  0  0
    9.1451    0.0000    0.0000 C    0  0  0  0  0  0  0  0  0  0  0  0
   10.2985   -0.6591    0.0000 C    0  0  0  0  0  0  0  0  0  0  0  0
   10.2985   -1.9876    0.0000 C    0  0  0  0  0  0  0  0  0  0  0  0
    9.1451   -2.6570    0.0000 N    0  0  0  0  0  0  0  0  0  0  0  0
    4.5314   -3.9855    0.0000 C    0  0  0  0  0  0  0  0  0  0  0  0
    4.5314   -2.6570    0.0000 O    0  0  0  0  0  0  0  0  0  0  0  0
    3.3779   -4.6446    0.0000 C    0  0  0  0  0  0  0  0  0  0  0  0
    3.3779   -5.9732    0.0000 C    0  0  0  0  0  0  0  0  0  0  0  0
    2.1112   -6.3954    0.0000 C    0  0  0  0  0  0  0  0  0  0  0  0
    1.3285   -5.3140    0.0000 C    0  0  0  0  0  0  0  0  0  0  0  0
    0.0000   -5.3140    0.0000 Cl   0  0  0  0  0  0  0  0  0  0  0  0
    2.1112   -4.2430    0.0000 S    0  0  0  0  0  0  0  0  0  0  0  0
    4.5314   -6.6426    0.0000 S    0  0  0  0  0  0  0  0  0  0  0  0
    5.3861   -7.6724    0.0000 O    0  0  0  0  0  0  0  0  0  0  0  0
    3.6869   -7.6724    0.0000 O    0  0  0  0  0  0  0  0  0  0  0  0
  1  2  1  0  0  0  0
  2  3  1  0  0  0  0
  2 21  1  0  0  0  0
  3  4  1  0  0  0  0
  3 13  1  0  0  0  0
  4  5  2  0  0  0  0
  4  6  1  0  0  0  0
  6  7  1  0  0  0  0
  7  8  2  0  0  0  0
  7 12  1  0  0  0  0
  8  9  1  0  0  0  0
  9 10  2  0  0  0  0
 10 11  1  0  0  0  0
 11 12  2  0  0  0  0
 13 14  2  0  0  0  0
 13 15  1  0  0  0  0
 15 16  2  0  0  0  0
 15 20  1  0  0  0  0
 16 17  1  0  0  0  0
 16 21  1  0  0  0  0
 17 18  2  0  0  0  0
 18 19  1  0  0  0  0
 18 20  1  0  0  0  0
 21 22  2  0  0  0  0
 21 23  2  0  0  0  0
M  END
> <ID>
11434

> <Formula>
C13H10ClN3O4S2

> <FW>
371.8192

> <DSSTox_CID>
26133

> <DSSTox_RID>
81366

> <DSSTox_GSID>
46133

> <DSSTox_FileID_Sort>
6047

> <TS_ChemName>
Lornoxicam

> <TS_ChemName_Synonyms>


> <TS_CASRN>
70374-39-9

> <CASRN_ChemName_Relationship>
primary

> <TS_Description>
single chemical compound

> <ChemNote>
tautomers

> <STRUCTURE_Shown>
tested chemical

> <STRUCTURE_Formula>
C13H10ClN3O4S2

> <STRUCTURE_MW>
371.8192

> <STRUCTURE_ChemType>
defined organic

> <STRUCTURE_DefinedOrganicForm>
parent

> <STRUCTURE_IUPAC>
6-chloro-2-methyl-4-oxo-N-(pyridin-2-yl)-3,4-dihydro-2H-thieno[2,3-e][1,2]thiazine-3-carboxamide 1,1-dioxide

> <STRUCTURE_SMILES>
O=C2c1sc(Cl)cc1S(=O)(=O)N(C)C2C(=O)Nc3ccccn3

> <STRUCTURE_SMILES_Desalt>
O=C2c1sc(Cl)cc1S(=O)(=O)N(C)C2C(=O)Nc3ccccn3

> <Substance_modify_yyyymmdd>
20110818

$$$$
