70384-29-1
ChemmineR-0915142007XD

107112  0  0  1  0  0  0  0  0  1 V2000
    9.3284  -10.4117    0.0000 O   0  0  0  0  0  0  0  0  0  0  0  0
   20.6429   -5.5369    0.0000 C   0  0  0  0  0  0  0  0  0  0  0  0
    9.3284   -8.0947    0.0000 C   0  0  0  0  0  0  0  0  0  0  0  0
   21.7262   -7.6433    0.0000 N   0  0  0  0  0  0  0  0  0  0  0  0
   21.3049   -8.9071    0.0000 C   0  0  0  0  0  0  0  0  0  0  0  0
   20.6429   -6.8609    0.0000 C   0  0  0  0  0  0  0  0  0  0  0  0
    5.3262   -5.8077    0.0000 N   0  0  0  0  0  0  0  0  0  0  0  0
    5.9883   -6.9512    0.0000 C   0  0  0  0  0  0  0  0  0  0  0  0
    3.3402   -6.9512    0.0000 N   0  0  0  0  0  0  0  0  0  0  0  0
    9.9905   -9.2682    0.0000 C   0  0  0  0  0  0  0  0  0  0  0  0
   19.5596   -4.7545    0.0000 N   0  0  0  0  0  0  0  0  0  0  0  0
    4.0022   -5.8077    0.0000 C   0  0  0  0  0  0  0  0  0  0  0  0
    5.3262   -8.0947    0.0000 C   0  0  0  0  0  0  0  0  0  0  0  0
    7.3123   -6.9512    0.0000 C   0  0  0  0  0  0  0  0  0  0  0  0
   13.3005   -3.4906    0.0000 C   0  0  0  0  0  0  0  0  0  0  0  0
    9.9905   -6.9512    0.0000 C   0  0  0  0  0  0  0  0  0  0  0  0
    8.0044   -8.0947    0.0000 N   0  0  0  0  0  0  0  0  0  0  0  0
    4.0022   -8.0947    0.0000 C   0  0  0  0  0  0  0  0  0  0  0  0
   13.9927   -2.3472    0.0000 N   0  0  0  0  0  0  0  0  0  0  0  0
   15.3167   -2.3472    0.0000 C   0  0  0  0  0  0  0  0  0  0  0  0
   11.9765   -3.4906    0.0000 C   0  0  0  0  0  0  0  0  0  0  0  0
   11.3145   -9.2682    0.0000 C   0  0  0  0  0  0  0  0  0  0  0  0
   19.5596   -7.6433    0.0000 S   0  0  0  0  0  0  0  0  0  0  0  0
   19.9809   -8.9071    0.0000 C   0  0  0  0  0  0  0  0  0  0  0  0
   11.3145   -6.9512    0.0000 N   0  0  0  0  0  0  0  0  0  0  0  0
   19.9809   -3.4906    0.0000 C   0  0  0  0  0  0  0  0  0  0  0  0
   21.7262   -4.7545    0.0000 C   0  0  0  0  0  0  0  0  0  0  0  0
   22.0873   -9.9905    0.0000 C   0  0  0  0  0  0  0  0  0  0  0  0
   12.1270   -8.1849    0.0000 N   0  0  0  0  0  0  0  0  0  0  0  0
   15.9787   -1.2037    0.0000 C   0  0  0  0  0  0  0  0  0  0  0  0
   21.3049   -3.4906    0.0000 S   0  0  0  0  0  0  0  0  0  0  0  0
    2.0161   -4.6341    0.0000 C   0  0  0  0  0  0  0  0  0  0  0  0
   11.3145   -4.6341    0.0000 C   0  0  0  0  0  0  0  0  0  0  0  0
    7.3123   -2.3472    0.0000 C   0  0  0  0  0  0  0  0  0  0  0  0
    3.3402   -4.6341    0.0000 C   0  0  0  0  0  0  0  0  0  0  0  0
    5.9883   -2.3472    0.0000 C   0  0  0  0  0  0  0  0  0  0  0  0
   11.9765   -5.8077    0.0000 C   0  0  0  0  0  0  0  0  0  0  0  0
    1.3240   -3.4906    0.0000 C   0  0  0  0  0  0  0  0  0  0  0  0
   13.3607   -9.9303    0.0000 N   0  0  0  0  0  0  0  0  0  0  0  0
   13.3607   -8.5761    0.0000 C   0  0  0  0  0  0  0  0  0  0  0  0
    4.0022   -3.4906    0.0000 N   0  0  0  0  0  0  0  0  0  0  0  0
   12.1270  -10.3215    0.0000 C   0  0  0  0  0  0  0  0  0  0  0  0
   13.9927   -4.6341    0.0000 O   0  0  0  0  0  0  0  0  0  0  0  0
    9.3284   -5.8077    0.0000 O   0  0  0  0  0  0  0  0  0  0  0  0
    8.0044   -5.8077    0.0000 O   0  0  0  0  0  0  0  0  0  0  0  0
    5.3262   -3.4906    0.0000 C   0  0  0  0  0  0  0  0  0  0  0  0
   19.3189   -2.3472    0.0000 C   0  0  0  0  0  0  0  0  0  0  0  0
   23.4114   -9.9905    0.0000 O   0  0  0  0  0  0  0  0  0  0  0  0
   15.3167    0.0000    0.0000 O   0  0  0  0  0  0  0  0  0  0  0  0
    8.0044   -1.2037    0.0000 O   0  0  0  0  0  0  0  0  0  0  0  0
   15.9787   -3.4906    0.0000 C   0  0  0  0  0  0  0  0  0  0  0  0
    2.0161   -2.3472    0.0000 O   0  0  0  0  0  0  0  0  0  0  0  0
    3.3402   -9.2682    0.0000 N   0  0  0  0  0  0  0  0  0  0  0  0
   17.3328   -1.2037    0.0000 N   0  0  0  0  0  0  0  0  0  0  0  0
   21.4253  -11.1038    0.0000 N   0  0  0  0  0  0  0  0  0  0  0  0
    8.0044   -3.4906    0.0000 N   0  0  0  0  0  0  0  0  0  0  0  0
    5.3262   -1.2037    0.0000 N   0  0  0  0  0  0  0  0  0  0  0  0
    0.0000   -3.4906    0.0000 N   0  0  0  0  0  0  0  0  0  0  0  0
   17.9648   -2.3472    0.0000 C   0  0  0  0  0  0  0  0  0  0  0  0
    9.9905   -4.6341    0.0000 O   0  0  0  0  0  0  0  0  0  0  0  0
   25.4275  -11.1038    0.0000 N   0  0  0  0  0  0  0  0  0  0  0  0
    5.9883   -9.2682    0.0000 C   0  0  0  0  0  0  0  0  0  0  0  0
   11.3145   -2.3472    0.0000 C   0  0  0  0  0  0  0  0  0  0  0  0
   15.3167   -4.6341    0.0000 O   0  0  0  0  0  0  0  0  0  0  0  0
   23.4114  -12.2774    0.0000 C   0  0  0  0  0  0  0  0  0  0  0  0
   13.3005   -5.8077    0.0000 C   0  0  0  0  0  0  0  0  0  0  0  0
   22.0873  -12.2774    0.0000 C   0  0  0  0  0  0  0  0  0  0  0  0
   24.0734  -11.1038    0.0000 C   0  0  0  0  0  0  0  0  0  0  0  0
   17.3328   -3.4906    0.0000 C   0  0  0  0  0  0  0  0  0  0  0  0
   26.0895   -9.9604    0.0000 C   0  0  0  0  0  0  0  0  0  0  0  0
   27.4136   -9.9604    0.0000 C   0  0  0  0  0  0  0  0  0  0  0  0
   28.0756   -8.8169    0.0000 C   0  0  0  0  0  0  0  0  0  0  0  0
   28.0756  -11.1038    0.0000 C   0  0  0  0  0  0  0  0  0  0  0  0
   29.4297   -8.8169    0.0000 C   0  0  0  0  0  0  0  0  0  0  0  0
   29.4297  -11.1038    0.0000 C   0  0  0  0  0  0  0  0  0  0  0  0
   30.0917   -9.9604    0.0000 C   0  0  0  0  0  0  0  0  0  0  0  0
   25.4275   -8.8169    0.0000 C   0  0  0  0  0  0  0  0  0  0  0  0
    8.1849  -11.0738    0.0000 C   0  0  0  0  0  0  0  0  0  0  0  0
    8.1849  -12.3978    0.0000 C   0  0  0  0  0  0  0  0  0  0  0  0
    7.0114  -10.4117    0.0000 O   0  0  0  0  0  0  0  0  0  0  0  0
    7.0114  -13.0598    0.0000 C   0  0  0  0  0  0  0  0  0  0  0  0
    5.8679  -11.0738    0.0000 C   0  0  0  0  0  0  0  0  0  0  0  0
    5.8679  -12.3978    0.0000 C   0  0  0  0  0  0  0  0  0  0  0  0
    9.3886  -13.0297    0.0000 O   0  0  0  0  0  0  0  0  0  0  0  0
    7.0114  -14.3838    0.0000 O   0  0  0  0  0  0  0  0  0  0  0  0
    4.7244  -13.0598    0.0000 O   0  0  0  0  0  0  0  0  0  0  0  0
    4.7244  -10.4117    0.0000 C   0  0  0  0  0  0  0  0  0  0  0  0
    3.5809  -11.0738    0.0000 O   0  0  0  0  0  0  0  0  0  0  0  0
   10.0506  -14.1732    0.0000 C   0  0  0  0  0  0  0  0  0  0  0  0
    9.3886  -15.3468    0.0000 C   0  0  0  0  0  0  0  0  0  0  0  0
   11.3747  -14.1732    0.0000 O   0  0  0  0  0  0  0  0  0  0  0  0
   10.0506  -16.4602    0.0000 C   0  0  0  0  0  0  0  0  0  0  0  0
   12.0367  -15.3468    0.0000 C   0  0  0  0  0  0  0  0  0  0  0  0
   11.3747  -16.4602    0.0000 C   0  0  0  0  0  0  0  0  0  0  0  0
    8.0646  -15.3468    0.0000 O   0  0  0  0  0  0  0  0  0  0  0  0
    9.3886  -17.6337    0.0000 O   0  0  0  0  0  0  0  0  0  0  0  0
   12.0367  -17.6337    0.0000 O   0  0  0  0  0  0  0  0  0  0  0  0
   13.3607  -15.3468    0.0000 C   0  0  0  0  0  0  0  0  0  0  0  0
   14.0227  -16.4602    0.0000 O   0  0  0  0  0  0  0  0  0  0  0  0
    8.0646  -17.6337    0.0000 C   0  0  0  0  0  0  0  0  0  0  0  0
    7.3725  -18.7772    0.0000 O   0  0  0  0  0  0  0  0  0  0  0  0
    7.3725  -16.4602    0.0000 N   0  0  0  0  0  0  0  0  0  0  0  0
   15.3468  -11.8561    0.0000 O   0  0  0  0  0  0  0  0  0  0  0  0
   16.6708  -11.8561    0.0000 S   0  0  0  0  0  0  0  0  0  0  0  0
   16.6708  -10.5321    0.0000 O   0  0  0  0  0  0  0  0  0  0  0  0
   16.6708  -13.2103    0.0000 O   0  0  0  0  0  0  0  0  0  0  0  0
   18.0249  -11.8561    0.0000 O   0  0  0  0  0  0  0  0  0  0  0  0
  1 10  1  0  0  0  0
 78  1  1  1  0  0  0
  2 11  1  0  0  0  0
  2  6  1  0  0  0  0
  2 27  2  0  0  0  0
  3 10  1  0  0  0  0
  3 16  1  0  0  0  0
  3 17  1  0  0  0  0
  4  6  2  0  0  0  0
  4  5  1  0  0  0  0
  5 28  1  0  0  0  0
  5 24  2  0  0  0  0
  6 23  1  0  0  0  0
  7  8  2  0  0  0  0
  7 12  1  0  0  0  0
  8 14  1  0  0  0  0
  8 13  1  0  0  0  0
  9 18  1  0  0  0  0
  9 12  2  0  0  0  0
 10 22  1  0  0  0  0
 11 26  2  0  0  0  0
 12 35  1  0  0  0  0
 13 18  2  0  0  0  0
 13 62  1  0  0  0  0
 14 17  1  0  0  0  0
 14 45  2  0  0  0  0
 15 21  1  0  0  0  0
 15 19  1  0  0  0  0
 15 43  2  0  0  0  0
 16 25  1  0  0  0  0
 16 44  2  0  0  0  0
 18 53  1  0  0  0  0
 19 20  1  0  0  0  0
 20 30  1  0  0  0  0
 20 51  1  0  0  0  0
 21 33  1  0  0  0  0
 21 63  1  0  0  0  0
 22 29  1  0  0  0  0
 22 42  2  0  0  0  0
 23 24  1  0  0  0  0
 25 37  1  0  0  0  0
 26 47  1  0  0  0  0
 26 31  1  0  0  0  0
 27 31  1  0  0  0  0
 28 48  2  0  0  0  0
 28 55  1  0  0  0  0
 29 40  2  0  0  0  0
 30 49  2  0  0  0  0
 30 54  1  0  0  0  0
 32 35  1  0  0  0  0
 32 38  1  0  0  0  0
 33 37  1  0  0  0  0
 33 60  1  0  0  0  0
 34 36  1  0  0  0  0
 34 50  2  0  0  0  0
 34 56  1  0  0  0  0
 35 41  1  0  0  0  0
 36 46  1  0  0  0  0
 36 57  1  0  0  0  0
 37 66  1  0  0  0  0
 38 52  2  0  0  0  0
 38 58  1  0  0  0  0
 39 42  1  0  0  0  0
 39 40  1  0  0  0  0
 41 46  1  0  0  0  0
 47 59  1  0  0  0  0
 51 64  1  0  0  0  0
 51 69  1  0  0  0  0
 54 59  1  0  0  0  0
 55 67  1  0  0  0  0
 61 68  1  0  0  0  0
 61 70  1  0  0  0  0
 65 67  1  0  0  0  0
 65 68  1  0  0  0  0
 70 71  1  0  0  0  0
 70 77  1  1  0  0  0
 71 72  1  0  0  0  0
 71 73  2  0  0  0  0
 72 74  2  0  0  0  0
 73 75  1  0  0  0  0
 74 76  1  0  0  0  0
 75 76  2  0  0  0  0
 78 79  1  0  0  0  0
 78 80  1  0  0  0  0
 79 81  1  0  0  0  0
 79 84  1  1  0  0  0
 80 82  1  0  0  0  0
 81 83  1  0  0  0  0
 81 85  1  1  0  0  0
 82 83  1  0  0  0  0
 82 87  1  6  0  0  0
 83 86  1  6  0  0  0
 89 84  1  1  0  0  0
 87 88  1  0  0  0  0
 89 90  1  0  0  0  0
 89 91  1  0  0  0  0
 90 92  1  0  0  0  0
 90 95  1  6  0  0  0
 91 93  1  0  0  0  0
 92 94  1  0  0  0  0
 92 96  1  6  0  0  0
 93 94  1  0  0  0  0
 93 98  1  6  0  0  0
 94 97  1  1  0  0  0
 96100  1  0  0  0  0
 98 99  1  0  0  0  0
100101  2  0  0  0  0
100102  1  0  0  0  0
103104  1  0  0  0  0
104105  2  0  0  0  0
104106  2  0  0  0  0
104107  1  0  0  0  0
M  END
> <ID>
13610

> <Formula>
C61H90N18O25S3

> <FW>
1571.6679 (1473.5894+98.0785)

> <DSSTox_CID>
28539

> <DSSTox_RID>
82811

> <DSSTox_GSID>
48613

> <DSSTox_FileID_Sort>
7488

> <TS_ChemName>
Peplomycin sulfate

> <TS_ChemName_Synonyms>


> <TS_CASRN>
70384-29-1

> <CASRN_ChemName_Relationship>
primary

> <TS_Description>
single chemical compound

> <ChemNote>
stereochem; parent [68247-85-8]

> <STRUCTURE_Shown>
tested chemical

> <STRUCTURE_Formula>
C61H90N18O25S3

> <STRUCTURE_MW>
1571.6679

> <STRUCTURE_ChemType>
defined organic

> <STRUCTURE_DefinedOrganicForm>
complex

> <STRUCTURE_IUPAC>
(2R,3S,4S,5R,6R)-2-{[(2R,3S,4S,5S,6S)-2-[2-{[(6-amino-2-{3-amino-1-[(2,3-diamino-3-oxopropyl)amino]-3-oxopropyl}-5-methylpyrimidin-4-yl)carbonyl]amino}-3-{[3-hydroxy-5-({3-hydroxy-1-oxo-1-[(2-{4-[(3-{[(1S)-1-phenylethyl]amino}propyl)carbamoyl]-2,4'-bi-1,3

> <STRUCTURE_SMILES>
O=C(N)C(N)CNC(CC(=O)N)c1nc(N)c(C)c(n1)C(=O)NC(C(O[C@@H]3O[C@@H](CO)[C@@H](O)[C@H](O)[C@@H]3O[C@H]2O[C@H](CO)[C@@H](O)[C@H](OC(=O)N)[C@@H]2O)c4cncn4)C(=O)NC(C)C(O)C(C)C(=O)NC(C(=O)NCCc5nc(cs5)c6nc(cs6)C(=O)NCCCN[C@@H](C)c7ccccc7)C(C)O.O=S(=O)(O)O

> <STRUCTURE_SMILES_Desalt>
O=C(N)C(N)CNC(CC(=O)N)c1nc(N)c(C)c(n1)C(=O)NC(C(O[C@@H]3O[C@@H](CO)[C@@H](O)[C@H](O)[C@@H]3O[C@H]2O[C@H](CO)[C@@H](O)[C@H](OC(=O)N)[C@@H]2O)c4cncn4)C(=O)NC(C)C(O)C(C)C(=O)NC(C(=O)NCCc5nc(cs5)c6nc(cs6)C(=O)NCCCN[C@@H](C)c7ccccc7)C(C)O

> <Substance_modify_yyyymmdd>
20111015

$$$$
