70458-95-6
ChemmineR-0915142007XD

 29 30  0  0  0  0  0  0  0  0  1 V2000
    9.2214   -3.9933    0.0000 C   0  0  0  0  0  0  0  0  0  0  0  0
    6.9247   -3.9933    0.0000 C   0  0  0  0  0  0  0  0  0  0  0  0
    8.0673   -4.6511    0.0000 C   0  0  0  0  0  0  0  0  0  0  0  0
    6.9247   -2.6545    0.0000 C   0  0  0  0  0  0  0  0  0  0  0  0
    9.2214   -2.6545    0.0000 C   0  0  0  0  0  0  0  0  0  0  0  0
    8.0673   -2.0082    0.0000 N   0  0  0  0  0  0  0  0  0  0  0  0
    5.7821   -2.0082    0.0000 C   0  0  0  0  0  0  0  0  0  0  0  0
    4.6396   -2.6545    0.0000 C   0  0  0  0  0  0  0  0  0  0  0  0
    5.7821   -4.6511    0.0000 C   0  0  0  0  0  0  0  0  0  0  0  0
    3.4854   -2.0082    0.0000 N   0  0  0  0  0  0  0  0  0  0  0  0
   10.3871   -4.6511    0.0000 C   0  0  0  0  0  0  0  0  0  0  0  0
    4.6396   -3.9933    0.0000 C   0  0  0  0  0  0  0  0  0  0  0  0
    1.1772   -0.6694    0.0000 N   0  0  0  0  0  0  0  0  0  0  0  0
    8.0673   -5.9783    0.0000 O   0  0  0  0  0  0  0  0  0  0  0  0
    3.4854   -0.6694    0.0000 C   0  0  0  0  0  0  0  0  0  0  0  0
    2.3198   -2.6545    0.0000 C   0  0  0  0  0  0  0  0  0  0  0  0
   11.5412   -3.9933    0.0000 O   0  0  0  0  0  0  0  0  0  0  0  0
    2.3313    0.0000    0.0000 C   0  0  0  0  0  0  0  0  0  0  0  0
    1.1772   -1.9966    0.0000 C   0  0  0  0  0  0  0  0  0  0  0  0
    3.4739   -4.6511    0.0000 F   0  0  0  0  0  0  0  0  0  0  0  0
   10.3871   -6.0014    0.0000 O   0  0  0  0  0  0  0  0  0  0  0  0
    8.0673   -0.6694    0.0000 C   0  0  0  0  0  0  0  0  0  0  0  0
    0.0000    0.0000    0.0000 C   0  0  0  0  0  0  0  0  0  0  0  0
    9.2214    0.0000    0.0000 C   0  0  0  0  0  0  0  0  0  0  0  0
    4.4434   -7.2363    0.0000 C   0  0  0  0  0  0  0  0  0  0  0  0
    5.7821   -7.2363    0.0000 S   0  0  0  0  0  0  0  0  0  0  0  0
    5.7821   -5.9091    0.0000 O   0  0  0  0  0  0  0  0  0  0  0  0
    5.7821   -8.5636    0.0000 O   0  0  0  0  0  0  0  0  0  0  0  0
    7.1094   -7.2363    0.0000 O   0  0  0  0  0  0  0  0  0  0  0  0
  1  3  1  0  0  0  0
  1  5  2  0  0  0  0
  1 11  1  0  0  0  0
  2  3  1  0  0  0  0
  2  9  1  0  0  0  0
  2  4  2  0  0  0  0
  3 14  2  0  0  0  0
  4  6  1  0  0  0  0
  4  7  1  0  0  0  0
  5  6  1  0  0  0  0
  6 22  1  0  0  0  0
  7  8  2  0  0  0  0
  8 10  1  0  0  0  0
  8 12  1  0  0  0  0
  9 12  2  0  0  0  0
 10 15  1  0  0  0  0
 10 16  1  0  0  0  0
 11 17  2  0  0  0  0
 11 21  1  0  0  0  0
 12 20  1  0  0  0  0
 13 19  1  0  0  0  0
 13 23  1  0  0  0  0
 13 18  1  0  0  0  0
 15 18  1  0  0  0  0
 16 19  1  0  0  0  0
 22 24  1  0  0  0  0
 25 26  1  0  0  0  0
 26 27  2  0  0  0  0
 26 28  2  0  0  0  0
 26 29  1  0  0  0  0
M  END
> <ID>
11302

> <Formula>
C18H24FN3O6S

> <FW>
429.4631 (333.3574+96.1057)

> <DSSTox_CID>
25935

> <DSSTox_RID>
81234

> <DSSTox_GSID>
45935

> <DSSTox_FileID_Sort>
5915

> <TS_ChemName>
Pefloxacin mesylate

> <TS_ChemName_Synonyms>


> <TS_CASRN>
70458-95-6

> <CASRN_ChemName_Relationship>
primary

> <TS_Description>
single chemical compound

> <ChemNote>
parent [70458-92-3]

> <STRUCTURE_Shown>
tested chemical

> <STRUCTURE_Formula>
C18H24FN3O6S

> <STRUCTURE_MW>
429.4631

> <STRUCTURE_ChemType>
defined organic

> <STRUCTURE_DefinedOrganicForm>
complex

> <STRUCTURE_IUPAC>
1-ethyl-6-fluoro-7-(4-methylpiperazin-1-yl)-4-oxo-1,4-dihydroquinoline-3-carboxylic acid methanesulfonate (1:1)

> <STRUCTURE_SMILES>
CN1CCN(CC1)c2cc3N(CC)C=C(C(=O)O)C(=O)c3cc2F.CS(=O)(=O)O

> <STRUCTURE_SMILES_Desalt>
CN1CCN(CC1)c2cc3N(CC)C=C(C(=O)O)C(=O)c3cc2F

> <Substance_modify_yyyymmdd>
20110930

$$$$
