70458-96-7
ChemmineR-0915142007XD

 23 25  0  0  0  0  0  0  0  0  1 V2000
    8.0529   -3.9849    0.0000 C   0  0  0  0  0  0  0  0  0  0  0  0
    5.7595   -3.9849    0.0000 C   0  0  0  0  0  0  0  0  0  0  0  0
    6.9010   -4.6491    0.0000 C   0  0  0  0  0  0  0  0  0  0  0  0
    5.7595   -2.6566    0.0000 C   0  0  0  0  0  0  0  0  0  0  0  0
    8.0529   -2.6566    0.0000 C   0  0  0  0  0  0  0  0  0  0  0  0
    6.9010   -1.9925    0.0000 N   0  0  0  0  0  0  0  0  0  0  0  0
    4.6179   -1.9925    0.0000 C   0  0  0  0  0  0  0  0  0  0  0  0
    3.4661   -2.6566    0.0000 C   0  0  0  0  0  0  0  0  0  0  0  0
    4.6179   -4.6491    0.0000 C   0  0  0  0  0  0  0  0  0  0  0  0
    9.2255   -4.6595    0.0000 C   0  0  0  0  0  0  0  0  0  0  0  0
    3.4661   -3.9849    0.0000 C   0  0  0  0  0  0  0  0  0  0  0  0
    2.3245   -1.9925    0.0000 N   0  0  0  0  0  0  0  0  0  0  0  0
    6.9010   -5.9774    0.0000 O   0  0  0  0  0  0  0  0  0  0  0  0
    0.0000   -0.6642    0.0000 N   0  0  0  0  0  0  0  0  0  0  0  0
   10.3774   -3.9953    0.0000 O   0  0  0  0  0  0  0  0  0  0  0  0
    2.2934   -4.6595    0.0000 F   0  0  0  0  0  0  0  0  0  0  0  0
    9.2255   -5.9878    0.0000 O   0  0  0  0  0  0  0  0  0  0  0  0
    6.9010   -0.6642    0.0000 C   0  0  0  0  0  0  0  0  0  0  0  0
    2.3245   -0.6642    0.0000 C   0  0  0  0  0  0  0  0  0  0  0  0
    1.1726   -2.6566    0.0000 C   0  0  0  0  0  0  0  0  0  0  0  0
    1.1830    0.0000    0.0000 C   0  0  0  0  0  0  0  0  0  0  0  0
    0.0104   -1.9925    0.0000 C   0  0  0  0  0  0  0  0  0  0  0  0
    8.0425    0.0000    0.0000 C   0  0  0  0  0  0  0  0  0  0  0  0
  1  3  1  0  0  0  0
  1  5  2  0  0  0  0
  1 10  1  0  0  0  0
  2  3  1  0  0  0  0
  2  9  2  0  0  0  0
  2  4  1  0  0  0  0
  3 13  2  0  0  0  0
  4  6  1  0  0  0  0
  4  7  2  0  0  0  0
  5  6  1  0  0  0  0
  6 18  1  0  0  0  0
  7  8  1  0  0  0  0
  8 12  1  0  0  0  0
  8 11  2  0  0  0  0
  9 11  1  0  0  0  0
 10 15  2  0  0  0  0
 10 17  1  0  0  0  0
 11 16  1  0  0  0  0
 12 19  1  0  0  0  0
 12 20  1  0  0  0  0
 14 22  1  0  0  0  0
 14 21  1  0  0  0  0
 18 23  1  0  0  0  0
 19 21  1  0  0  0  0
 20 22  1  0  0  0  0
M  END
> <ID>
7394

> <Formula>
C16H18FN3O3

> <FW>
319.3308

> <DSSTox_CID>
17680

> <DSSTox_RID>
79353

> <DSSTox_GSID>
37680

> <DSSTox_FileID_Sort>
4035

> <TS_ChemName>
Norfloxacin

> <TS_ChemName_Synonyms>


> <TS_CASRN>
70458-96-7

> <CASRN_ChemName_Relationship>
primary

> <TS_Description>
single chemical compound

> <ChemNote>


> <STRUCTURE_Shown>
tested chemical

> <STRUCTURE_Formula>
C16H18FN3O3

> <STRUCTURE_MW>
319.3308

> <STRUCTURE_ChemType>
defined organic

> <STRUCTURE_DefinedOrganicForm>
parent

> <STRUCTURE_IUPAC>
1-ethyl-6-fluoro-4-oxo-7-(piperazin-1-yl)-1,4-dihydroquinoline-3-carboxylic acid

> <STRUCTURE_SMILES>
O=C(O)C2=CN(CC)c1cc(c(F)cc1C2=O)N3CCNCC3

> <STRUCTURE_SMILES_Desalt>
O=C(O)C2=CN(CC)c1cc(c(F)cc1C2=O)N3CCNCC3

> <Substance_modify_yyyymmdd>
20080429

$$$$
