70476-82-3
ChemmineR-0915142007XD

 34 34  0  0  0  0  0  0  0  0  1 V2000
    4.5961   -2.6589    0.0000 C    0  0  0  0  0  0  0  0  0  0  0  0
    4.5961   -3.9884    0.0000 C    0  0  0  0  0  0  0  0  0  0  0  0
    2.3044   -2.6589    0.0000 C    0  0  0  0  0  0  0  0  0  0  0  0
    2.3044   -3.9884    0.0000 C    0  0  0  0  0  0  0  0  0  0  0  0
    3.4439   -1.9879    0.0000 C    0  0  0  0  0  0  0  0  0  0  0  0
    3.4439   -4.6468    0.0000 C    0  0  0  0  0  0  0  0  0  0  0  0
    5.7483   -1.9879    0.0000 C    0  0  0  0  0  0  0  0  0  0  0  0
    5.7483   -4.6468    0.0000 C    0  0  0  0  0  0  0  0  0  0  0  0
    1.1395   -1.9879    0.0000 C    0  0  0  0  0  0  0  0  0  0  0  0
    1.1395   -4.6468    0.0000 C    0  0  0  0  0  0  0  0  0  0  0  0
    3.4439   -0.6584    0.0000 O    0  0  0  0  0  0  0  0  0  0  0  0
    3.4439   -5.9763    0.0000 O    0  0  0  0  0  0  0  0  0  0  0  0
    6.9132   -3.9884    0.0000 C    0  0  0  0  0  0  0  0  0  0  0  0
    6.9132   -2.6589    0.0000 C    0  0  0  0  0  0  0  0  0  0  0  0
    0.0000   -2.6589    0.0000 C    0  0  0  0  0  0  0  0  0  0  0  0
    0.0000   -3.9884    0.0000 C    0  0  0  0  0  0  0  0  0  0  0  0
    5.7483   -5.9763    0.0000 N    0  0  0  0  0  0  0  0  0  0  0  0
    5.7483   -0.6584    0.0000 N    0  0  0  0  0  0  0  0  0  0  0  0
    1.1395   -0.6584    0.0000 O    0  0  0  0  0  0  0  0  0  0  0  0
    1.1395   -5.9763    0.0000 O    0  0  0  0  0  0  0  0  0  0  0  0
    9.2176    0.0000    0.0000 N    0  0  0  0  0  0  0  0  0  0  0  0
    9.2176   -6.6473    0.0000 N    0  0  0  0  0  0  0  0  0  0  0  0
   12.6616   -0.6584    0.0000 O    0  0  0  0  0  0  0  0  0  0  0  0
   12.6616   -5.9763    0.0000 O    0  0  0  0  0  0  0  0  0  0  0  0
    6.9132    0.0000    0.0000 C    0  0  0  0  0  0  0  0  0  0  0  0
    6.9132   -6.6473    0.0000 C    0  0  0  0  0  0  0  0  0  0  0  0
    8.0654   -0.6584    0.0000 C    0  0  0  0  0  0  0  0  0  0  0  0
    8.0654   -5.9763    0.0000 C    0  0  0  0  0  0  0  0  0  0  0  0
   10.3572   -5.9763    0.0000 C    0  0  0  0  0  0  0  0  0  0  0  0
   10.3572   -0.6584    0.0000 C    0  0  0  0  0  0  0  0  0  0  0  0
   11.5220   -6.6473    0.0000 C    0  0  0  0  0  0  0  0  0  0  0  0
   11.5220    0.0000    0.0000 C    0  0  0  0  0  0  0  0  0  0  0  0
    9.0024   -2.9122    0.0000 Cl   0  0  0  0  0  0  0  0  0  0  0  0
   11.8132   -3.0135    0.0000 Cl   0  0  0  0  0  0  0  0  0  0  0  0
  1  2  2  0  0  0  0
  1  5  1  0  0  0  0
  1  7  1  0  0  0  0
  2  6  1  0  0  0  0
  2  8  1  0  0  0  0
  3  5  1  0  0  0  0
  3  4  2  0  0  0  0
  3  9  1  0  0  0  0
  4 10  1  0  0  0  0
  4  6  1  0  0  0  0
  5 11  2  0  0  0  0
  6 12  2  0  0  0  0
  7 14  2  0  0  0  0
  7 18  1  0  0  0  0
  8 17  1  0  0  0  0
  8 13  2  0  0  0  0
  9 15  2  0  0  0  0
  9 19  1  0  0  0  0
 10 20  1  0  0  0  0
 10 16  2  0  0  0  0
 13 14  1  0  0  0  0
 15 16  1  0  0  0  0
 17 26  1  0  0  0  0
 18 25  1  0  0  0  0
 21 27  1  0  0  0  0
 21 30  1  0  0  0  0
 22 28  1  0  0  0  0
 22 29  1  0  0  0  0
 23 32  1  0  0  0  0
 24 31  1  0  0  0  0
 25 27  1  0  0  0  0
 26 28  1  0  0  0  0
 29 31  1  0  0  0  0
 30 32  1  0  0  0  0
M  END
> <ID>
10792

> <Formula>
C22H30Cl2N4O6

> <FW>
517.4028 (444.4809+36.4609+36.4609)

> <DSSTox_CID>
25173

> <DSSTox_RID>
80722

> <DSSTox_GSID>
45173

> <DSSTox_FileID_Sort>
5403

> <TS_ChemName>
Mitoxantrone dihydrochloride

> <TS_ChemName_Synonyms>


> <TS_CASRN>
70476-82-3

> <CASRN_ChemName_Relationship>
primary

> <TS_Description>
single chemical compound

> <ChemNote>
parent [65271-80-9]

> <STRUCTURE_Shown>
tested chemical

> <STRUCTURE_Formula>
C22H30Cl2N4O6

> <STRUCTURE_MW>
517.4028

> <STRUCTURE_ChemType>
defined organic

> <STRUCTURE_DefinedOrganicForm>
complex

> <STRUCTURE_IUPAC>
1,4-dihydroxy-5,8-bis({2-[(2-hydroxyethyl)amino]ethyl}amino)anthracene-9,10-dione dihydrochloride

> <STRUCTURE_SMILES>
Cl.Cl.OCCNCCNc3ccc(NCCNCCO)c2C(=O)c1c(O)ccc(O)c1C(=O)c23

> <STRUCTURE_SMILES_Desalt>
OCCNCCNc3ccc(NCCNCCO)c2C(=O)c1c(O)ccc(O)c1C(=O)c23

> <Substance_modify_yyyymmdd>
20100107

$$$$
