7047-84-9
ChemmineR-0915142007XD

 23 22  0  0  0  0  0  0  0  0  1 V2000
   19.5828   -1.3132    0.0000 C    0  0  0  0  0  0  0  0  0  0  0  0
   19.5828    0.0000    0.0000 O    0  0  0  0  0  0  0  0  0  0  0  0
   20.7348   -1.9813    0.0000 O    0  0  0  0  0  0  0  0  0  0  0  0
   18.4309   -1.9813    0.0000 C    0  0  0  0  0  0  0  0  0  0  0  0
   17.2790   -1.3132    0.0000 C    0  0  0  0  0  0  0  0  0  0  0  0
    1.1289   -1.3132    0.0000 C    0  0  0  0  0  0  0  0  0  0  0  0
    2.3039   -1.9813    0.0000 C    0  0  0  0  0  0  0  0  0  0  0  0
   13.8232   -1.9813    0.0000 C    0  0  0  0  0  0  0  0  0  0  0  0
   12.6482   -1.3132    0.0000 C    0  0  0  0  0  0  0  0  0  0  0  0
   11.5193   -1.9813    0.0000 C    0  0  0  0  0  0  0  0  0  0  0  0
   10.3904   -1.3132    0.0000 C    0  0  0  0  0  0  0  0  0  0  0  0
    9.2155   -1.9813    0.0000 C    0  0  0  0  0  0  0  0  0  0  0  0
    8.0635   -1.3132    0.0000 C    0  0  0  0  0  0  0  0  0  0  0  0
    6.9116   -1.9813    0.0000 C    0  0  0  0  0  0  0  0  0  0  0  0
    5.7597   -1.3132    0.0000 C    0  0  0  0  0  0  0  0  0  0  0  0
    4.6077   -1.9813    0.0000 C    0  0  0  0  0  0  0  0  0  0  0  0
    3.4558   -1.3132    0.0000 C    0  0  0  0  0  0  0  0  0  0  0  0
   16.1270   -1.9813    0.0000 C    0  0  0  0  0  0  0  0  0  0  0  0
   14.9751   -1.3132    0.0000 C    0  0  0  0  0  0  0  0  0  0  0  0
    0.0000   -1.9813    0.0000 C    0  0  0  0  0  0  0  0  0  0  0  0
   21.8867    0.0000    0.0000 O    0  0  0  0  0  0  0  0  0  0  0  0
   21.8867   -1.3132    0.0000 Al   0  0  0  0  0  0  0  0  0  0  0  0
   23.0386   -1.9813    0.0000 O    0  0  0  0  0  0  0  0  0  0  0  0
  1  2  2  0  0  0  0
  1  3  1  0  0  0  0
  1  4  1  0  0  0  0
  3 22  1  0  0  0  0
  4  5  1  0  0  0  0
  5 18  1  0  0  0  0
  6  7  1  0  0  0  0
  6 20  1  0  0  0  0
  7 17  1  0  0  0  0
  8 19  1  0  0  0  0
  8  9  1  0  0  0  0
  9 10  1  0  0  0  0
 10 11  1  0  0  0  0
 11 12  1  0  0  0  0
 12 13  1  0  0  0  0
 13 14  1  0  0  0  0
 14 15  1  0  0  0  0
 15 16  1  0  0  0  0
 16 17  1  0  0  0  0
 18 19  1  0  0  0  0
 21 22  1  0  0  0  0
 22 23  1  0  0  0  0
M  END
> <ID>
13690

> <Formula>
C18H37AlO4

> <FW>
344.4655

> <DSSTox_CID>
28623

> <DSSTox_RID>
82893

> <DSSTox_GSID>
48697

> <DSSTox_FileID_Sort>
7570

> <TS_ChemName>
Aluminum monostearate

> <TS_ChemName_Synonyms>


> <TS_CASRN>
7047-84-9

> <CASRN_ChemName_Relationship>
primary

> <TS_Description>
single chemical compound

> <ChemNote>


> <STRUCTURE_Shown>
tested chemical

> <STRUCTURE_Formula>
C18H37AlO4

> <STRUCTURE_MW>
344.4655

> <STRUCTURE_ChemType>
organometallic

> <STRUCTURE_DefinedOrganicForm>


> <STRUCTURE_IUPAC>
aluminium hydroxide octadecanoate (1:2:1)

> <STRUCTURE_SMILES>
O[Al](O)OC(=O)CCCCCCCCCCCCCCCCC

> <STRUCTURE_SMILES_Desalt>
O[Al](O)OC(=O)CCCCCCCCCCCCCCCCC

> <Substance_modify_yyyymmdd>
20111204

$$$$
