705-60-2
ChemmineR-0915142007XD

 12 12  0  0  0  0  0  0  0  0  2 V2000
    2.3073   -2.0034    0.0000 C   0  0  0  0  0  0  0  0  0  0  0  0
    2.3073   -3.3367    0.0000 C   0  0  0  0  0  0  0  0  0  0  0  0
    1.1537   -1.3333    0.0000 C   0  0  0  0  0  0  0  0  0  0  0  0
    1.1537   -3.9929    0.0000 C   0  0  0  0  0  0  0  0  0  0  0  0
    0.0000   -2.0034    0.0000 C   0  0  0  0  0  0  0  0  0  0  0  0
    0.0000   -3.3367    0.0000 C   0  0  0  0  0  0  0  0  0  0  0  0
    3.4610   -1.3333    0.0000 C   0  0  0  0  0  0  0  0  0  0  0  0
    4.6147   -1.9896    0.0000 C   0  0  0  0  0  0  0  0  0  0  0  0
    5.7684   -1.3333    0.0000 N   0  3  0  0  0  0  0  0  0  0  0  0
    4.6147   -3.3228    0.0000 C   0  0  0  0  0  0  0  0  0  0  0  0
    6.9082   -1.9896    0.0000 O   0  5  0  0  0  0  0  0  0  0  0  0
    5.7684    0.0000    0.0000 O   0  0  0  0  0  0  0  0  0  0  0  0
  1  2  1  0  0  0  0
  1  3  2  0  0  0  0
  1  7  1  0  0  0  0
  2  4  2  0  0  0  0
  3  5  1  0  0  0  0
  4  6  1  0  0  0  0
  5  6  2  0  0  0  0
  7  8  2  0  0  0  0
  8  9  1  0  0  0  0
  8 10  1  0  0  0  0
  9 11  1  0  0  0  0
  9 12  2  0  0  0  0
M  END
> <ID>
8161

> <Formula>
C9H9NO2

> <FW>
163.1733

> <DSSTox_CID>
21188

> <DSSTox_RID>
79642

> <DSSTox_GSID>
41188

> <DSSTox_FileID_Sort>
4324

> <TS_ChemName>
(2-Nitro-1-propenyl)benzene

> <TS_ChemName_Synonyms>


> <TS_CASRN>
705-60-2

> <CASRN_ChemName_Relationship>
primary

> <TS_Description>
mixture or formulation

> <ChemNote>
mixture of Z,E [18315-84-9] isomers; structure shown E-; stereochem

> <STRUCTURE_Shown>
representative isomer in mixture

> <STRUCTURE_Formula>
C9H9NO2

> <STRUCTURE_MW>
163.1733

> <STRUCTURE_ChemType>
defined organic

> <STRUCTURE_DefinedOrganicForm>
parent

> <STRUCTURE_IUPAC>
[(1E)-2-nitroprop-1-en-1-yl]benzene

> <STRUCTURE_SMILES>
C\C(=C/c1ccccc1)[N+]([O-])=O

> <STRUCTURE_SMILES_Desalt>
C\C(=C/c1ccccc1)[N+]([O-])=O

> <Substance_modify_yyyymmdd>
20080825

$$$$
