70568-60-4
ChemmineR-0915142007XD

 11 11  0  0  0  0  0  0  0  0  1 V2000
    6.6418   -2.3043    0.0000 C   0  0  0  0  0  0  0  0  0  0  0  0
    5.9880   -3.4604    0.0000 C   0  0  0  0  0  0  0  0  0  0  0  0
    4.6564   -3.4604    0.0000 C   0  0  0  0  0  0  0  0  0  0  0  0
    3.9867   -2.3043    0.0000 C   0  0  0  0  0  0  0  0  0  0  0  0
    4.6564   -1.1561    0.0000 C   0  0  0  0  0  0  0  0  0  0  0  0
    5.9880   -1.1561    0.0000 C   0  0  0  0  0  0  0  0  0  0  0  0
    7.9734   -2.3043    0.0000 O   0  0  0  0  0  0  0  0  0  0  0  0
    2.6551   -2.3043    0.0000 C   0  0  0  0  0  0  0  0  0  0  0  0
    2.0013   -1.1561    0.0000 C   0  0  0  0  0  0  0  0  0  0  0  0
    0.6698   -1.1561    0.0000 C   0  0  0  0  0  0  0  0  0  0  0  0
    0.0000    0.0000    0.0000 C   0  0  0  0  0  0  0  0  0  0  0  0
  1  2  1  0  0  0  0
  1  6  1  0  0  0  0
  1  7  1  0  0  0  0
  2  3  1  0  0  0  0
  3  4  1  0  0  0  0
  4  5  1  0  0  0  0
  4  8  1  0  0  0  0
  5  6  1  0  0  0  0
  8  9  1  0  0  0  0
  9 10  1  0  0  0  0
 10 11  1  0  0  0  0
M  END
> <ID>
13266

> <Formula>
C10H20O

> <FW>
156.2652

> <DSSTox_CID>
28179

> <DSSTox_RID>
82739

> <DSSTox_GSID>
48204

> <DSSTox_FileID_Sort>
7416

> <TS_ChemName>
4-Butylcyclohexanol

> <TS_ChemName_Synonyms>
4-Butylcyclohexanol (4-n-butylcyclohexanol)

> <TS_CASRN>
70568-60-4

> <CASRN_ChemName_Relationship>
primary

> <TS_Description>
single chemical compound

> <ChemNote>


> <STRUCTURE_Shown>
tested chemical

> <STRUCTURE_Formula>
C10H20O

> <STRUCTURE_MW>
156.2652

> <STRUCTURE_ChemType>
defined organic

> <STRUCTURE_DefinedOrganicForm>
parent

> <STRUCTURE_IUPAC>
4-butylcyclohexanol

> <STRUCTURE_SMILES>
OC1CCC(CCCC)CC1

> <STRUCTURE_SMILES_Desalt>
OC1CCC(CCCC)CC1

> <Substance_modify_yyyymmdd>
20110715

$$$$
