7059-24-7
ChemmineR-0915142007XD

 84 91  0  0  1  0  0  0  0  0  1 V2000
   15.5247   -4.2996    0.0000 C   0  0  0  0  0  0  0  0  0  0  0  0
   16.6406   -4.8904    0.0000 C   0  0  0  0  0  0  0  0  0  0  0  0
   17.7237   -2.9868    0.0000 C   0  0  0  0  0  0  0  0  0  0  0  0
   17.7237   -4.2996    0.0000 C   0  0  0  0  0  0  0  0  0  0  0  0
   13.3256   -4.2996    0.0000 C   0  0  0  0  0  0  0  0  0  0  0  0
   14.4416   -4.8904    0.0000 C   0  0  0  0  0  0  0  0  0  0  0  0
   12.2425   -4.8904    0.0000 C   0  0  0  0  0  0  0  0  0  0  0  0
   15.5247   -2.9868    0.0000 C   0  0  0  0  0  0  0  0  0  0  0  0
   11.0937   -4.2996    0.0000 C   0  0  0  0  0  0  0  0  0  0  0  0
   11.0937   -2.9868    0.0000 C   0  0  0  0  0  0  0  0  0  0  0  0
   13.3256   -2.9868    0.0000 C   0  0  0  0  0  0  0  0  0  0  0  0
   16.6406   -2.3303    0.0000 C   0  0  0  0  0  0  0  0  0  0  0  0
   14.4416   -2.3303    0.0000 C   0  0  0  0  0  0  0  0  0  0  0  0
   12.2425   -2.3303    0.0000 C   0  0  0  0  0  0  0  0  0  0  0  0
   16.6406   -6.2361    0.0000 O   0  0  0  0  0  0  0  0  0  0  0  0
   14.4416   -6.2361    0.0000 O   0  0  0  0  0  0  0  0  0  0  0  0
   12.2425   -6.2361    0.0000 O   0  0  0  0  0  0  0  0  0  0  0  0
    9.9778   -2.2975    0.0000 O   0  0  0  0  0  0  0  0  0  0  0  0
    9.9778   -4.9889    0.0000 C   0  0  0  0  0  0  0  0  0  0  0  0
   17.7237   -1.6411    0.0000 H   0  0  0  0  0  0  0  0  0  0  0  0
   20.0212   -2.9868    0.0000 C   0  0  0  0  0  0  0  0  0  0  0  0
   20.0212   -4.2996    0.0000 O   0  0  0  0  0  0  0  0  0  0  0  0
   18.8725   -2.2975    0.0000 C   0  0  0  0  0  0  0  0  0  0  0  0
   22.3188   -2.9868    0.0000 C   0  0  0  0  0  0  0  0  0  0  0  0
   22.3188   -4.2996    0.0000 O   0  0  0  0  0  0  0  0  0  0  0  0
   21.1700   -2.2975    0.0000 C   0  0  0  0  0  0  0  0  0  0  0  0
   23.4675   -2.2975    0.0000 C   0  0  0  0  0  0  0  0  0  0  0  0
   18.8725   -0.9847    0.0000 O   0  0  0  0  0  0  0  0  0  0  0  0
   21.1700   -0.9847    0.0000 O   0  0  0  0  0  0  0  0  0  0  0  0
   20.0212   -0.2954    0.0000 C   0  0  0  0  0  0  0  0  0  0  0  0
   28.2267   -8.3039    0.0000 O   0  0  0  0  0  0  0  0  0  0  0  0
   28.2267   -6.9910    0.0000 C   0  0  0  0  0  0  0  0  0  0  0  0
   29.3754   -8.9932    0.0000 C   0  0  0  0  0  0  0  0  0  0  0  0
   29.3426   -6.3346    0.0000 C   0  0  0  0  0  0  0  0  0  0  0  0
   30.5242   -8.3039    0.0000 C   0  0  0  0  0  0  0  0  0  0  0  0
   30.4914   -6.9910    0.0000 C   0  0  0  0  0  0  0  0  0  0  0  0
   29.3754  -10.3060    0.0000 C   0  0  0  0  0  0  0  0  0  0  0  0
   27.0451   -6.3346    0.0000 O   0  0  0  0  0  0  0  0  0  0  0  0
   31.8371   -6.9910    0.0000 O   0  0  0  0  0  0  0  0  0  0  0  0
   31.6730   -8.9603    0.0000 O   0  0  0  0  0  0  0  0  0  0  0  0
   31.1806   -5.8423    0.0000 C   0  0  0  0  0  0  0  0  0  0  0  0
   31.6730  -10.3060    0.0000 C   0  0  0  0  0  0  0  0  0  0  0  0
   30.5242  -10.9625    0.0000 O   0  0  0  0  0  0  0  0  0  0  0  0
   32.8217  -10.9625    0.0000 C   0  0  0  0  0  0  0  0  0  0  0  0
   23.5988   -8.3367    0.0000 O   0  0  0  0  0  0  0  0  0  0  0  0
   23.5988   -6.9910    0.0000 C   0  0  0  0  0  0  0  0  0  0  0  0
   24.7804   -8.9932    0.0000 C   0  0  0  0  0  0  0  0  0  0  0  0
   24.7476   -6.3346    0.0000 C   0  0  0  0  0  0  0  0  0  0  0  0
   25.9292   -8.3367    0.0000 C   0  0  0  0  0  0  0  0  0  0  0  0
   25.9292   -6.9910    0.0000 C   0  0  0  0  0  0  0  0  0  0  0  0
   24.7804  -10.3388    0.0000 C   0  0  0  0  0  0  0  0  0  0  0  0
   22.4501   -6.3346    0.0000 O   0  0  0  0  0  0  0  0  0  0  0  0
   27.0779   -8.9932    0.0000 O   0  0  0  0  0  0  0  0  0  0  0  0
   19.0038   -8.3367    0.0000 O   0  0  0  0  0  0  0  0  0  0  0  0
   19.0038   -7.0238    0.0000 C   0  0  0  0  0  0  0  0  0  0  0  0
   20.1525   -9.0260    0.0000 C   0  0  0  0  0  0  0  0  0  0  0  0
   20.1525   -6.3346    0.0000 C   0  0  0  0  0  0  0  0  0  0  0  0
   21.3013   -8.3367    0.0000 C   0  0  0  0  0  0  0  0  0  0  0  0
   21.3013   -7.0238    0.0000 C   0  0  0  0  0  0  0  0  0  0  0  0
   20.1525  -10.3717    0.0000 C   0  0  0  0  0  0  0  0  0  0  0  0
   17.8550   -6.3674    0.0000 O   0  0  0  0  0  0  0  0  0  0  0  0
   22.4829   -8.9932    0.0000 O   0  0  0  0  0  0  0  0  0  0  0  0
    7.9757   -1.1488    0.0000 O   0  0  0  0  0  0  0  0  0  0  0  0
    8.6321   -2.2975    0.0000 C   0  0  0  0  0  0  0  0  0  0  0  0
    6.6300   -1.1488    0.0000 C   0  0  0  0  0  0  0  0  0  0  0  0
    7.9757   -3.4463    0.0000 C   0  0  0  0  0  0  0  0  0  0  0  0
    5.9736   -2.2975    0.0000 C   0  0  0  0  0  0  0  0  0  0  0  0
    6.6300   -3.4463    0.0000 C   0  0  0  0  0  0  0  0  0  0  0  0
    5.9736    0.0000    0.0000 C   0  0  0  0  0  0  0  0  0  0  0  0
    5.9736   -4.5950    0.0000 O   0  0  0  0  0  0  0  0  0  0  0  0
    4.6607   -2.2975    0.0000 O   0  0  0  0  0  0  0  0  0  0  0  0
    4.0043   -3.4463    0.0000 O   0  0  0  0  0  0  0  0  0  0  0  0
    4.6607   -4.5950    0.0000 C   0  0  0  0  0  0  0  0  0  0  0  0
    2.6586   -3.4463    0.0000 C   0  0  0  0  0  0  0  0  0  0  0  0
    4.0043   -5.7438    0.0000 C   0  0  0  0  0  0  0  0  0  0  0  0
    2.0021   -4.5950    0.0000 C   0  0  0  0  0  0  0  0  0  0  0  0
    2.6586   -5.7438    0.0000 C   0  0  0  0  0  0  0  0  0  0  0  0
    2.0021   -2.2975    0.0000 C   0  0  0  0  0  0  0  0  0  0  0  0
    2.0021   -6.9254    0.0000 O   0  0  0  0  0  0  0  0  0  0  0  0
    0.6564   -4.5950    0.0000 O   0  0  0  0  0  0  0  0  0  0  0  0
    0.0000   -3.4463    0.0000 C   0  0  0  0  0  0  0  0  0  0  0  0
    4.0043   -1.1488    0.0000 C   0  0  0  0  0  0  0  0  0  0  0  0
    4.6607    0.0000    0.0000 O   0  0  0  0  0  0  0  0  0  0  0  0
    2.6586   -1.1488    0.0000 O   0  0  0  0  0  0  0  0  0  0  0  0
  1  2  1  0  0  0  0
  1  6  2  0  0  0  0
  1  8  1  0  0  0  0
  2  4  1  0  0  0  0
  2 15  2  0  0  0  0
  3 12  1  0  0  0  0
  3 20  1  6  0  0  0
  3 23  1  0  0  0  0
  3  4  1  0  0  0  0
  4 61  1  6  0  0  0
  5  6  1  0  0  0  0
  5  7  2  0  0  0  0
  5 11  1  0  0  0  0
  6 16  1  0  0  0  0
  7  9  1  0  0  0  0
  7 17  1  0  0  0  0
  8 12  1  0  0  0  0
  8 13  2  0  0  0  0
  9 10  2  0  0  0  0
  9 19  1  0  0  0  0
 10 14  1  0  0  0  0
 10 18  1  0  0  0  0
 11 13  1  0  0  0  0
 11 14  2  0  0  0  0
 64 18  1  1  0  0  0
 21 23  1  0  0  0  0
 21 26  1  0  0  0  0
 21 22  2  0  0  0  0
 23 28  1  6  0  0  0
 24 26  1  0  0  0  0
 24 27  1  0  0  0  0
 24 25  1  1  0  0  0
 26 29  1  1  0  0  0
 28 30  1  0  0  0  0
 31 32  1  0  0  0  0
 31 33  1  0  0  0  0
 32 34  1  0  0  0  0
 32 38  1  1  0  0  0
 33 35  1  0  0  0  0
 33 37  1  6  0  0  0
 34 36  1  0  0  0  0
 35 36  1  0  0  0  0
 35 40  1  1  0  0  0
 36 39  1  6  0  0  0
 36 41  1  1  0  0  0
 50 38  1  1  0  0  0
 40 42  1  0  0  0  0
 42 43  2  0  0  0  0
 42 44  1  0  0  0  0
 45 46  1  0  0  0  0
 45 47  1  0  0  0  0
 46 48  1  0  0  0  0
 46 52  1  1  0  0  0
 47 49  1  0  0  0  0
 47 51  1  1  0  0  0
 48 50  1  0  0  0  0
 49 50  1  0  0  0  0
 49 53  1  6  0  0  0
 59 52  1  1  0  0  0
 54 55  1  0  0  0  0
 54 56  1  0  0  0  0
 55 57  1  0  0  0  0
 55 61  1  1  0  0  0
 56 58  1  0  0  0  0
 56 60  1  1  0  0  0
 57 59  1  0  0  0  0
 58 59  1  0  0  0  0
 58 62  1  6  0  0  0
 63 64  1  0  0  0  0
 63 65  1  0  0  0  0
 64 66  1  0  0  0  0
 65 67  1  0  0  0  0
 65 69  1  1  0  0  0
 66 68  1  0  0  0  0
 67 68  1  0  0  0  0
 67 71  1  1  0  0  0
 68 70  1  1  0  0  0
 73 70  1  6  0  0  0
 71 82  1  0  0  0  0
 72 73  1  0  0  0  0
 72 74  1  0  0  0  0
 73 75  1  0  0  0  0
 74 76  1  0  0  0  0
 74 78  1  1  0  0  0
 75 77  1  0  0  0  0
 76 77  1  0  0  0  0
 76 80  1  1  0  0  0
 77 79  1  1  0  0  0
 80 81  1  0  0  0  0
 82 83  1  0  0  0  0
 82 84  2  0  0  0  0
M  END
> <ID>
11630

> <Formula>
C56H80O27

> <FW>
1185.2182

> <DSSTox_CID>
26363

> <DSSTox_RID>
81563

> <DSSTox_GSID>
46363

> <DSSTox_FileID_Sort>
6244

> <TS_ChemName>
Chromomycin A3

> <TS_ChemName_Synonyms>


> <TS_CASRN>
7059-24-7

> <CASRN_ChemName_Relationship>
primary

> <TS_Description>
single chemical compound

> <ChemNote>
stereochem; tautomers

> <STRUCTURE_Shown>
tested chemical

> <STRUCTURE_Formula>
C56H80O27

> <STRUCTURE_MW>
1185.2182

> <STRUCTURE_ChemType>
defined organic

> <STRUCTURE_DefinedOrganicForm>
parent

> <STRUCTURE_IUPAC>
(1S)-1-C-[(2S,3S)-3-{[4-O-acetyl-2,6-dideoxy-3-C-methyl-alpha-L-arabino-hexopyranosyl-(1->3)-2,6-dideoxy-beta-D-arabino-hexopyranosyl-(1->3)-2,6-dideoxy-beta-D-arabino-hexopyranosyl]oxy}-7-{[4-O-carboxy-2,6-dideoxy-3-O-(2,6-dideoxy-4-O-methyl-alpha-D-lyxo

> <STRUCTURE_SMILES>
C[C@@H](O)[C@H](O)C(=O)[C@@H](OC)[C@@H]8Cc4cc3cc(O[C@H]2C[C@@H](O[C@@H]1C[C@@H](O)[C@@H](OC)[C@@H](C)O1)[C@@H](OC(=O)O)[C@@H](C)O2)c(C)c(O)c3c(O)c4C(=O)[C@H]8O[C@H]7C[C@@H](O[C@H]6C[C@@H](O[C@H]5C[C@](C)(O)[C@@H](OC(C)=O)[C@H](C)O5)[C@H](O)[C@@H](C)O6)[C@

> <STRUCTURE_SMILES_Desalt>
C[C@@H](O)[C@H](O)C(=O)[C@@H](OC)[C@@H]8Cc4cc3cc(O[C@H]2C[C@@H](O[C@@H]1C[C@@H](O)[C@@H](OC)[C@@H](C)O1)[C@@H](OC(=O)O)[C@@H](C)O2)c(C)c(O)c3c(O)c4C(=O)[C@H]8O[C@H]7C[C@@H](O[C@H]6C[C@@H](O[C@H]5C[C@](C)(O)[C@@H](OC(C)=O)[C@H](C)O5)[C@H](O)[C@@H](C)O6)[C@

> <Substance_modify_yyyymmdd>
20110814

$$$$
