7060-74-4
ChemmineR-0915142007XD

 53 55  0  0  1  0  0  0  0  0  1 V2000
    4.6043   -2.0094    0.0000 C   0  0  0  0  0  0  0  0  0  0  0  0
    4.6043   -3.3401    0.0000 C   0  0  0  0  0  0  0  0  0  0  0  0
    3.4466   -1.3307    0.0000 C   0  0  0  0  0  0  0  0  0  0  0  0
    3.4466   -3.9922    0.0000 O   0  0  0  0  0  0  0  0  0  0  0  0
    2.3022   -2.0094    0.0000 C   0  0  0  0  0  0  0  0  0  0  0  0
    2.3022   -3.3401    0.0000 C   0  0  0  0  0  0  0  0  0  0  0  0
    3.4466   -5.3229    0.0000 C   0  0  0  0  0  0  0  0  0  0  0  0
    2.3022   -5.9749    0.0000 O   0  0  0  0  0  0  0  0  0  0  0  0
    1.1577   -3.9922    0.0000 C   0  0  0  0  0  0  0  0  0  0  0  0
    1.1577   -5.3229    0.0000 C   0  0  0  0  0  0  0  0  0  0  0  0
    5.7620   -3.9922    0.0000 C   0  0  0  0  0  0  0  0  0  0  0  0
    5.7620   -5.3229    0.0000 C   0  0  0  0  0  0  0  0  0  0  0  0
    4.6043   -6.0016    0.0000 C   0  0  0  0  0  0  0  0  0  0  0  0
    2.3022   -7.3057    0.0000 C   0  0  0  0  0  0  0  0  0  0  0  0
    4.6043   -7.3057    0.0000 C   0  0  0  0  0  0  0  0  0  0  0  0
    3.4466   -7.9843    0.0000 C   0  0  0  0  0  0  0  0  0  0  0  0
    5.2697   -0.8384    0.0000 O   0  0  0  0  0  0  0  0  0  0  0  0
    5.9350   -1.9828    0.0000 C   0  0  0  0  0  0  0  0  0  0  0  0
    3.4466    0.0000    0.0000 O   0  0  0  0  0  0  0  0  0  0  0  0
    1.1577   -7.9843    0.0000 O   0  0  0  0  0  0  0  0  0  0  0  0
    5.7620   -7.9843    0.0000 O   0  0  0  0  0  0  0  0  0  0  0  0
    6.9198   -5.9749    0.0000 O   0  0  0  0  0  0  0  0  0  0  0  0
    1.1577   -1.3307    0.0000 C   0  0  0  0  0  0  0  0  0  0  0  0
    0.0000   -3.3135    0.0000 C   0  0  0  0  0  0  0  0  0  0  0  0
    0.0000   -5.9749    0.0000 C   0  0  0  0  0  0  0  0  0  0  0  0
    3.4466   -9.3151    0.0000 C   0  0  0  0  0  0  0  0  0  0  0  0
    6.8931   -3.3401    0.0000 C   0  0  0  0  0  0  0  0  0  0  0  0
    8.2505   -5.9749    0.0000 C   0  0  0  0  0  0  0  0  0  0  0  0
    8.9158   -4.8039    0.0000 C   0  0  0  0  0  0  0  0  0  0  0  0
    8.9158   -7.1194    0.0000 O   0  0  0  0  0  0  0  0  0  0  0  0
   10.2466   -4.8039    0.0000 C   0  0  0  0  0  0  0  0  0  0  0  0
   10.2466   -7.1194    0.0000 C   0  0  0  0  0  0  0  0  0  0  0  0
   10.9119   -5.9749    0.0000 C   0  0  0  0  0  0  0  0  0  0  0  0
   10.9119   -8.2904    0.0000 C   0  0  0  0  0  0  0  0  0  0  0  0
   10.9119   -3.6728    0.0000 N   0  0  0  0  0  0  0  0  0  0  0  0
   12.2427   -3.6728    0.0000 C   0  0  0  0  0  0  0  0  0  0  0  0
   10.2466   -2.5151    0.0000 C   0  0  0  0  0  0  0  0  0  0  0  0
    8.2505   -3.6728    0.0000 O   0  0  0  0  0  0  0  0  0  0  0  0
    5.7620   -9.3151    0.0000 C   0  0  0  0  0  0  0  0  0  0  0  0
    6.8931   -9.9937    0.0000 C   0  0  0  0  0  0  0  0  0  0  0  0
    4.6043   -9.9937    0.0000 O   0  0  0  0  0  0  0  0  0  0  0  0
    6.8931  -11.3245    0.0000 C   0  0  0  0  0  0  0  0  0  0  0  0
    4.6043  -11.3245    0.0000 C   0  0  0  0  0  0  0  0  0  0  0  0
    5.7620  -11.9765    0.0000 C   0  0  0  0  0  0  0  0  0  0  0  0
    5.7620  -13.3072    0.0000 O   0  0  0  0  0  0  0  0  0  0  0  0
    3.4466  -11.9765    0.0000 C   0  0  0  0  0  0  0  0  0  0  0  0
    8.0642  -11.9765    0.0000 O   0  0  0  0  0  0  0  0  0  0  0  0
    8.0642  -13.3072    0.0000 C   0  0  0  0  0  0  0  0  0  0  0  0
   11.8834  -11.0583    0.0000 P   0  0  0  0  0  0  0  0  0  0  0  0
   13.2141  -11.0583    0.0000 O   0  0  0  0  0  0  0  0  0  0  0  0
   11.8834   -9.7276    0.0000 O   0  0  0  0  0  0  0  0  0  0  0  0
   11.8834  -12.3890    0.0000 O   0  0  0  0  0  0  0  0  0  0  0  0
   10.5526  -11.0583    0.0000 O   0  0  0  0  0  0  0  0  0  0  0  0
  1  2  1  0  0  0  0
  1  3  1  0  0  0  0
  1 17  1  6  0  0  0
  1 18  1  1  0  0  0
  2 11  1  0  0  0  0
  3  5  1  0  0  0  0
  3 19  2  0  0  0  0
  6  4  1  1  0  0  0
  5  6  1  0  0  0  0
  5 23  1  1  0  0  0
  6  9  1  0  0  0  0
 13  7  1  6  0  0  0
  8 10  1  0  0  0  0
  8 14  1  0  0  0  0
  9 10  1  0  0  0  0
  9 24  1  6  0  0  0
 10 25  1  6  0  0  0
 11 12  1  0  0  0  0
 11 27  1  6  0  0  0
 12 13  1  0  0  0  0
 12 22  1  6  0  0  0
 13 15  1  0  0  0  0
 14 16  1  0  0  0  0
 14 20  2  0  0  0  0
 15 16  1  0  0  0  0
 15 21  1  6  0  0  0
 16 26  1  1  0  0  0
 17 18  1  0  0  0  0
 39 21  1  1  0  0  0
 28 22  1  1  0  0  0
 28 29  1  0  0  0  0
 28 30  1  0  0  0  0
 29 31  1  0  0  0  0
 29 38  1  6  0  0  0
 30 32  1  0  0  0  0
 31 33  1  0  0  0  0
 31 35  1  1  0  0  0
 32 33  1  0  0  0  0
 32 34  1  1  0  0  0
 35 36  1  0  0  0  0
 35 37  1  0  0  0  0
 39 40  1  0  0  0  0
 39 41  1  0  0  0  0
 40 42  1  0  0  0  0
 41 43  1  0  0  0  0
 42 44  1  0  0  0  0
 42 47  1  6  0  0  0
 43 44  1  0  0  0  0
 43 46  1  6  0  0  0
 44 45  1  1  0  0  0
 47 48  1  0  0  0  0
 49 50  1  0  0  0  0
 49 51  1  0  0  0  0
 49 52  2  0  0  0  0
 49 53  1  0  0  0  0
M  END
> <ID>
10923

> <Formula>
C35H64NO16P

> <FW>
785.8535 (687.8583+97.9952)

> <DSSTox_CID>
25398

> <DSSTox_RID>
80852

> <DSSTox_GSID>
45398

> <DSSTox_FileID_Sort>
5533

> <TS_ChemName>
Oleandomycin phosphate

> <TS_ChemName_Synonyms>


> <TS_CASRN>
7060-74-4

> <CASRN_ChemName_Relationship>
primary

> <TS_Description>
single chemical compound

> <ChemNote>
stereochem; parent [3922-90-5]

> <STRUCTURE_Shown>
tested chemical

> <STRUCTURE_Formula>
C35H64NO16P

> <STRUCTURE_MW>
785.8535

> <STRUCTURE_ChemType>
defined organic

> <STRUCTURE_DefinedOrganicForm>
complex

> <STRUCTURE_IUPAC>
(3S,5R,6S,7R,8R,11R,12S,13R,14S,15S)-6-hydroxy-5,7,8,11,13,15-hexamethyl-4,10-dioxo-14-{[3,4,6-trideoxy-3-(dimethylamino)-beta-D-xylo-hexopyranosyl]oxy}-1,9-dioxaspiro[2.13]hexadec-12-yl 2,6-dideoxy-3-O-methyl-alpha-L-arabino-hexopyranoside phosphate (1:1

> <STRUCTURE_SMILES>
O=P(O)(O)O.CN(C)[C@H]4C[C@@H](C)O[C@@H](O[C@@H]3[C@@H](C)[C@H](O[C@H]1C[C@H](OC)[C@@H](O)[C@H](C)O1)[C@@H](C)C(=O)O[C@H](C)[C@H](C)[C@H](O)[C@@H](C)C(=O)[C@@]2(CO2)C[C@@H]3C)[C@@H]4O

> <STRUCTURE_SMILES_Desalt>
CN(C)[C@H]4C[C@@H](C)O[C@@H](O[C@@H]3[C@@H](C)[C@H](O[C@H]1C[C@H](OC)[C@@H](O)[C@H](C)O1)[C@@H](C)C(=O)O[C@H](C)[C@H](C)[C@H](O)[C@@H](C)C(=O)[C@@]2(CO2)C[C@@H]3C)[C@@H]4O

> <Substance_modify_yyyymmdd>
20100107

$$$$
