70641-51-9
ChemmineR-0915142007XD

 35 34  0  0  1  0  0  0  0  0  2 V2000
    0.0000    0.0000    0.0000 C   0  0  0  0  0  0  0  0  0  0  0  0
    1.3368    0.0000    0.0000 C   0  0  0  0  0  0  0  0  0  0  0  0
    2.0052   -1.1497    0.0000 C   0  0  0  0  0  0  0  0  0  0  0  0
    3.3153   -1.1497    0.0000 C   0  0  0  0  0  0  0  0  0  0  0  0
    3.9838   -2.2994    0.0000 C   0  0  0  0  0  0  0  0  0  0  0  0
    5.3206   -2.2994    0.0000 C   0  0  0  0  0  0  0  0  0  0  0  0
    5.9890   -3.4490    0.0000 C   0  0  0  0  0  0  0  0  0  0  0  0
    7.3258   -3.4490    0.0000 C   0  0  0  0  0  0  0  0  0  0  0  0
    7.9943   -4.6254    0.0000 C   0  0  0  0  0  0  0  0  0  0  0  0
    9.3043   -4.6254    0.0000 C   0  0  0  0  0  0  0  0  0  0  0  0
    9.9728   -5.7751    0.0000 C   0  0  0  0  0  0  0  0  0  0  0  0
   11.3096   -5.7751    0.0000 C   0  0  0  0  0  0  0  0  0  0  0  0
   11.9780   -6.9248    0.0000 C   0  0  0  0  0  0  0  0  0  0  0  0
   13.3148   -6.9248    0.0000 C   0  0  0  0  0  0  0  0  0  0  0  0
   13.9565   -8.0745    0.0000 C   0  0  0  0  0  0  0  0  0  0  0  0
   15.2934   -8.0745    0.0000 C   0  0  0  0  0  0  0  0  0  0  0  0
   15.9618   -9.2241    0.0000 C   0  0  0  0  0  0  0  0  0  0  0  0
   17.2986   -9.2241    0.0000 C   0  0  0  0  0  0  0  0  0  0  0  0
   17.9670  -10.3738    0.0000 O   0  0  0  0  0  0  0  0  0  0  0  0
   19.2771  -10.3738    0.0000 C   0  0  0  0  0  0  0  0  0  0  0  0
   19.9455   -9.2241    0.0000 C   0  0  0  0  0  0  0  0  0  0  0  0
   21.2824   -9.2241    0.0000 C   0  0  0  0  0  0  0  0  0  0  0  0
   21.9508   -8.0745    0.0000 O   0  0  0  0  0  0  0  0  0  0  0  0
   23.2876   -8.0745    0.0000 P   0  0  0  0  0  0  0  0  0  0  0  0
   23.2876   -9.4113    0.0000 O   0  5  0  0  0  0  0  0  0  0  0  0
   24.5977   -8.0745    0.0000 O   0  0  0  0  0  0  0  0  0  0  0  0
   23.2876   -6.7376    0.0000 O   0  0  0  0  0  0  0  0  0  0  0  0
   24.4373   -6.0692    0.0000 C   0  0  0  0  0  0  0  0  0  0  0  0
   24.4373   -4.7324    0.0000 C   0  0  0  0  0  0  0  0  0  0  0  0
   25.5870   -4.0907    0.0000 N   0  3  0  0  0  0  0  0  0  0  0  0
   26.2554   -5.2404    0.0000 C   0  0  0  0  0  0  0  0  0  0  0  0
   24.9185   -2.9143    0.0000 C   0  0  0  0  0  0  0  0  0  0  0  0
   26.7366   -3.4223    0.0000 C   0  0  0  0  0  0  0  0  0  0  0  0
   19.2771   -8.0745    0.0000 O   0  0  0  0  0  0  0  0  0  0  0  0
   17.9670   -8.0745    0.0000 C   0  0  0  0  0  0  0  0  0  0  0  0
  1  2  1  0  0  0  0
  2  3  1  0  0  0  0
  3  4  1  0  0  0  0
  4  5  1  0  0  0  0
  5  6  1  0  0  0  0
  6  7  1  0  0  0  0
  7  8  1  0  0  0  0
  8  9  1  0  0  0  0
  9 10  1  0  0  0  0
 10 11  1  0  0  0  0
 11 12  1  0  0  0  0
 12 13  1  0  0  0  0
 13 14  1  0  0  0  0
 14 15  1  0  0  0  0
 15 16  1  0  0  0  0
 16 17  1  0  0  0  0
 17 18  1  0  0  0  0
 18 19  1  0  0  0  0
 19 20  1  0  0  0  0
 20 21  1  0  0  0  0
 21 22  1  0  0  0  0
 21 34  1  1  0  0  0
 22 23  1  0  0  0  0
 23 24  1  0  0  0  0
 24 25  1  0  0  0  0
 24 26  2  0  0  0  0
 24 27  1  0  0  0  0
 27 28  1  0  0  0  0
 28 29  1  0  0  0  0
 29 30  1  0  0  0  0
 30 31  1  0  0  0  0
 30 32  1  0  0  0  0
 30 33  1  0  0  0  0
 34 35  1  0  0  0  0
M  END
> <ID>
11176

> <Formula>
C27H58NO6P

> <FW>
523.7263

> <DSSTox_CID>
25766

> <DSSTox_RID>
81108

> <DSSTox_GSID>
45766

> <DSSTox_FileID_Sort>
5789

> <TS_ChemName>
Edelfosine

> <TS_ChemName_Synonyms>


> <TS_CASRN>
70641-51-9

> <CASRN_ChemName_Relationship>
primary

> <TS_Description>
single chemical compound

> <ChemNote>
stereochem; ammonium

> <STRUCTURE_Shown>
tested chemical

> <STRUCTURE_Formula>
C27H58NO6P

> <STRUCTURE_MW>
523.7263

> <STRUCTURE_ChemType>
defined organic

> <STRUCTURE_DefinedOrganicForm>
parent

> <STRUCTURE_IUPAC>
(2R)-2-methoxy-3-(octadecyloxy)propyl 2-(trimethylammonio)ethyl phosphate

> <STRUCTURE_SMILES>
C[N+](C)(C)CCOP([O-])(=O)OC[C@@H](COCCCCCCCCCCCCCCCCCC)OC

> <STRUCTURE_SMILES_Desalt>
C[N+](C)(C)CCOP(O)(=O)OC[C@@H](COCCCCCCCCCCCCCCCCCC)OC

> <Substance_modify_yyyymmdd>
20110826

$$$$
