70693-59-3
ChemmineR-0915142007XD

 18 19  0  0  0  0  0  0  0  0  1 V2000
    2.2904   -2.6614    0.0000 C   0  0  0  0  0  0  0  0  0  0  0  0
    2.2904   -3.9921    0.0000 C   0  0  0  0  0  0  0  0  0  0  0  0
    1.1371   -4.6534    0.0000 C   0  0  0  0  0  0  0  0  0  0  0  0
    0.0000   -3.9921    0.0000 C   0  0  0  0  0  0  0  0  0  0  0  0
    0.0000   -2.6614    0.0000 C   0  0  0  0  0  0  0  0  0  0  0  0
    1.1371   -1.9920    0.0000 C   0  0  0  0  0  0  0  0  0  0  0  0
    3.4437   -1.9920    0.0000 S   0  0  0  0  0  0  0  0  0  0  0  0
    4.1211   -3.1453    0.0000 O   0  0  0  0  0  0  0  0  0  0  0  0
    2.7904   -0.8387    0.0000 O   0  0  0  0  0  0  0  0  0  0  0  0
    4.6050   -1.3307    0.0000 N   0  0  0  0  0  0  0  0  0  0  0  0
    1.1371   -0.6613    0.0000 N   0  0  0  0  0  0  0  0  0  0  0  0
    5.7583   -1.9920    0.0000 C   0  0  0  0  0  0  0  0  0  0  0  0
    6.9115   -1.3307    0.0000 C   0  0  0  0  0  0  0  0  0  0  0  0
    8.0648   -1.9920    0.0000 C   0  0  0  0  0  0  0  0  0  0  0  0
    8.0648   -3.3227    0.0000 C   0  0  0  0  0  0  0  0  0  0  0  0
    6.9115   -3.9921    0.0000 C   0  0  0  0  0  0  0  0  0  0  0  0
    5.7583   -3.3227    0.0000 C   0  0  0  0  0  0  0  0  0  0  0  0
    4.6050    0.0000    0.0000 C   0  0  0  0  0  0  0  0  0  0  0  0
  1  2  2  0  0  0  0
  1  6  1  0  0  0  0
  1  7  1  0  0  0  0
  2  3  1  0  0  0  0
  3  4  2  0  0  0  0
  4  5  1  0  0  0  0
  5  6  2  0  0  0  0
  6 11  1  0  0  0  0
  7  8  2  0  0  0  0
  7 10  1  0  0  0  0
  7  9  2  0  0  0  0
 10 12  1  0  0  0  0
 10 18  1  0  0  0  0
 12 13  1  0  0  0  0
 12 17  1  0  0  0  0
 13 14  1  0  0  0  0
 14 15  1  0  0  0  0
 15 16  1  0  0  0  0
 16 17  1  0  0  0  0
M  END
> <ID>
10629

> <Formula>
C13H20N2O2S

> <FW>
268.3751

> <DSSTox_CID>
24982

> <DSSTox_RID>
80631

> <DSSTox_GSID>
44982

> <DSSTox_FileID_Sort>
5313

> <TS_ChemName>
2-Amino-N-cyclohexyl-N-methylbenzenesulfonamide

> <TS_ChemName_Synonyms>
2-Amino-N-cyclohexyl-N-methylbenzenesulfonamide (Benzenesulfonamide, 2-amino-N-cyclohexyl-N-methyl-)

> <TS_CASRN>
70693-59-3

> <CASRN_ChemName_Relationship>
primary

> <TS_Description>
single chemical compound

> <ChemNote>


> <STRUCTURE_Shown>
tested chemical

> <STRUCTURE_Formula>
C13H20N2O2S

> <STRUCTURE_MW>
268.3751

> <STRUCTURE_ChemType>
defined organic

> <STRUCTURE_DefinedOrganicForm>
parent

> <STRUCTURE_IUPAC>
2-amino-N-cyclohexyl-N-methylbenzenesulfonamide

> <STRUCTURE_SMILES>
O=S(=O)(N(C)C1CCCCC1)c2ccccc2N

> <STRUCTURE_SMILES_Desalt>
O=S(=O)(N(C)C1CCCCC1)c2ccccc2N

> <Substance_modify_yyyymmdd>
20091116

$$$$
