70797-11-4
ChemmineR-0915142007XD

 44 48  0  0  1  0  0  0  0  0  1 V2000
   11.7438   -4.3079    0.0000 N   0  0  0  0  0  0  0  0  0  0  0  0
   10.1892   -4.3079    0.0000 C   0  0  0  0  0  0  0  0  0  0  0  0
   10.1892   -2.8844    0.0000 C   0  0  0  0  0  0  0  0  0  0  0  0
   11.7438   -2.8844    0.0000 C   0  0  0  0  0  0  0  0  0  0  0  0
   16.5013   -2.9032    0.0000 C   0  0  0  0  0  0  0  0  0  0  0  0
   12.9238   -5.0010    0.0000 C   0  0  0  0  0  0  0  0  0  0  0  0
   17.6251   -2.1914    0.0000 N   0  0  0  0  0  0  0  0  0  0  0  0
   15.4337   -2.1914    0.0000 N   0  0  0  0  0  0  0  0  0  0  0  0
   15.8832   -0.8803    0.0000 N   0  0  0  0  0  0  0  0  0  0  0  0
   17.2130   -0.8803    0.0000 N   0  0  0  0  0  0  0  0  0  0  0  0
    9.0467   -2.8844    0.0000 N   0  0  0  0  0  0  0  0  0  0  0  0
    4.6076   -2.6784    0.0000 C   0  0  0  0  0  0  0  0  0  0  0  0
   12.9238   -2.1914    0.0000 S   0  0  0  0  0  0  0  0  0  0  0  0
    3.4651   -2.0229    0.0000 C   0  0  0  0  0  0  0  0  0  0  0  0
   14.1413   -4.2705    0.0000 C   0  0  0  0  0  0  0  0  0  0  0  0
    7.9603   -2.0978    0.0000 C   0  0  0  0  0  0  0  0  0  0  0  0
    5.7314   -2.0603    0.0000 N   0  0  0  0  0  0  0  0  0  0  0  0
    6.8552   -2.7346    0.0000 C   0  0  0  0  0  0  0  0  0  0  0  0
    2.2851   -2.6784    0.0000 C   0  0  0  0  0  0  0  0  0  0  0  0
   12.9238   -6.2933    0.0000 C   0  0  0  0  0  0  0  0  0  0  0  0
   16.5013   -4.2705    0.0000 S   0  0  0  0  0  0  0  0  0  0  0  0
    3.4651   -0.6743    0.0000 C   0  0  0  0  0  0  0  0  0  0  0  0
    2.3225    0.0000    0.0000 N   0  0  0  0  0  0  0  0  0  0  0  0
   14.1413   -2.8844    0.0000 C   0  0  0  0  0  0  0  0  0  0  0  0
    1.1051   -2.0041    0.0000 C   0  0  0  0  0  0  0  0  0  0  0  0
    9.4025   -5.2444    0.0000 O   0  0  0  0  0  0  0  0  0  0  0  0
   15.3213   -4.8886    0.0000 C   0  0  0  0  0  0  0  0  0  0  0  0
    6.8552   -4.0083    0.0000 C   0  0  0  0  0  0  0  0  0  0  0  0
    4.6076   -4.0083    0.0000 O   0  0  0  0  0  0  0  0  0  0  0  0
    7.9603   -0.6930    0.0000 O   0  0  0  0  0  0  0  0  0  0  0  0
   14.0664   -6.9864    0.0000 O   0  0  0  0  0  0  0  0  0  0  0  0
    1.1051   -0.6743    0.0000 C   0  0  0  0  0  0  0  0  0  0  0  0
    5.7127   -4.6451    0.0000 C   0  0  0  0  0  0  0  0  0  0  0  0
    7.9978   -4.6451    0.0000 C   0  0  0  0  0  0  0  0  0  0  0  0
    2.2851   -4.0457    0.0000 O   0  0  0  0  0  0  0  0  0  0  0  0
   18.7302   -2.6597    0.0000 C   0  0  0  0  0  0  0  0  0  0  0  0
   11.8187   -6.9864    0.0000 O   0  0  0  0  0  0  0  0  0  0  0  0
    6.8552   -6.6305    0.0000 C   0  0  0  0  0  0  0  0  0  0  0  0
    7.9978   -5.9937    0.0000 C   0  0  0  0  0  0  0  0  0  0  0  0
    5.7127   -5.9562    0.0000 C   0  0  0  0  0  0  0  0  0  0  0  0
    6.8552   -7.9790    0.0000 O   0  0  0  0  0  0  0  0  0  0  0  0
    0.0000   -0.0187    0.0000 C   0  0  0  0  0  0  0  0  0  0  0  0
   11.7438   -1.8730    0.0000 H   0  0  0  0  0  0  0  0  0  0  0  0
   10.1892   -1.7419    0.0000 H   0  0  0  0  0  0  0  0  0  0  0  0
  1  2  1  0  0  0  0
  1  4  1  0  0  0  0
  1  6  1  0  0  0  0
  2 26  2  0  0  0  0
  2  3  1  0  0  0  0
  3  4  1  0  0  0  0
  3 11  1  1  0  0  0
  3 44  1  6  0  0  0
  4 13  1  0  0  0  0
  4 43  1  6  0  0  0
  5 21  1  0  0  0  0
  5  7  1  0  0  0  0
  5  8  2  0  0  0  0
  6 15  2  0  0  0  0
  6 20  1  0  0  0  0
  7 10  1  0  0  0  0
  7 36  1  0  0  0  0
  8  9  1  0  0  0  0
  9 10  2  0  0  0  0
 11 16  1  0  0  0  0
 12 17  1  0  0  0  0
 12 14  1  0  0  0  0
 12 29  2  0  0  0  0
 13 24  1  0  0  0  0
 14 19  2  0  0  0  0
 14 22  1  0  0  0  0
 15 24  1  0  0  0  0
 15 27  1  0  0  0  0
 16 18  1  0  0  0  0
 16 30  2  0  0  0  0
 17 18  1  0  0  0  0
 18 28  1  1  0  0  0
 19 25  1  0  0  0  0
 19 35  1  0  0  0  0
 20 31  2  0  0  0  0
 20 37  1  0  0  0  0
 21 27  1  0  0  0  0
 22 23  2  0  0  0  0
 23 32  1  0  0  0  0
 25 32  2  0  0  0  0
 28 33  1  0  0  0  0
 28 34  2  0  0  0  0
 32 42  1  0  0  0  0
 33 40  2  0  0  0  0
 34 39  1  0  0  0  0
 38 39  2  0  0  0  0
 38 41  1  0  0  0  0
 38 40  1  0  0  0  0
M  END
> <ID>
11843

> <Formula>
C25H24N8O7S2

> <FW>
612.6375

> <DSSTox_CID>
26630

> <DSSTox_RID>
81778

> <DSSTox_GSID>
46630

> <DSSTox_FileID_Sort>
6459

> <TS_ChemName>
Cefpiramide acid

> <TS_ChemName_Synonyms>


> <TS_CASRN>
70797-11-4

> <CASRN_ChemName_Relationship>
primary

> <TS_Description>
single chemical compound

> <ChemNote>
stereochem; tautomers

> <STRUCTURE_Shown>
tested chemical

> <STRUCTURE_Formula>
C25H24N8O7S2

> <STRUCTURE_MW>
612.6375

> <STRUCTURE_ChemType>
defined organic

> <STRUCTURE_DefinedOrganicForm>
parent

> <STRUCTURE_IUPAC>
(6R,7R)-7-{[(2R)-2-{[(4-hydroxy-6-methylpyridin-3-yl)carbonyl]amino}-2-(4-hydroxyphenyl)acetyl]amino}-3-{[(1-methyl-1H-tetrazol-5-yl)sulfanyl]methyl}-8-oxo-5-thia-1-azabicyclo[4.2.0]oct-2-ene-2-carboxylic acid

> <STRUCTURE_SMILES>
Oc1cc(C)ncc1C(=O)N[C@H](c2ccc(O)cc2)C(=O)N[C@@H]5C(=O)N4C(=C(CSc3nnnn3C)CS[C@@H]45)C(=O)O

> <STRUCTURE_SMILES_Desalt>
Oc1cc(C)ncc1C(=O)N[C@H](c2ccc(O)cc2)C(=O)N[C@@H]5C(=O)N4C(=C(CSc3nnnn3C)CS[C@@H]45)C(=O)O

> <Substance_modify_yyyymmdd>
20110809

$$$$
