7082-21-5
ChemmineR-0915142007XD

 22 22  0  0  0  0  0  0  0  0  1 V2000
    3.4655   -3.9840    0.0000 C    0  0  0  0  0  0  0  0  0  0  0  0
    6.8898   -4.6590    0.0000 N    0  0  0  0  0  0  0  0  0  0  0  0
    4.6096   -4.6590    0.0000 C    0  0  0  0  0  0  0  0  0  0  0  0
    6.8898   -5.9925    0.0000 C    0  0  0  0  0  0  0  0  0  0  0  0
    3.4655   -2.6752    0.0000 C    0  0  0  0  0  0  0  0  0  0  0  0
    2.3131   -4.6590    0.0000 C    0  0  0  0  0  0  0  0  0  0  0  0
    5.7456   -3.9840    0.0000 C    0  0  0  0  0  0  0  0  0  0  0  0
    5.5480   -5.9925    0.0000 C    0  0  0  0  0  0  0  0  0  0  0  0
    8.2315   -5.9925    0.0000 C    0  0  0  0  0  0  0  0  0  0  0  0
    6.8898   -7.3343    0.0000 C    0  0  0  0  0  0  0  0  0  0  0  0
    2.3131   -2.0085    0.0000 C    0  0  0  0  0  0  0  0  0  0  0  0
    2.3131   -5.9925    0.0000 C    0  0  0  0  0  0  0  0  0  0  0  0
    4.6096   -2.0085    0.0000 C    0  0  0  0  0  0  0  0  0  0  0  0
    1.1359   -3.9840    0.0000 C    0  0  0  0  0  0  0  0  0  0  0  0
    5.7456   -2.6752    0.0000 C    0  0  0  0  0  0  0  0  0  0  0  0
    1.1359   -6.6181    0.0000 C    0  0  0  0  0  0  0  0  0  0  0  0
    4.6096   -0.6668    0.0000 C    0  0  0  0  0  0  0  0  0  0  0  0
    2.3131   -0.6668    0.0000 C    0  0  0  0  0  0  0  0  0  0  0  0
    0.0000   -4.6590    0.0000 C    0  0  0  0  0  0  0  0  0  0  0  0
    0.0000   -5.9925    0.0000 C    0  0  0  0  0  0  0  0  0  0  0  0
    3.4655    0.0000    0.0000 C    0  0  0  0  0  0  0  0  0  0  0  0
    3.0457   -7.6553    0.0000 Cl   0  0  0  0  0  0  0  0  0  0  0  0
  1  3  1  0  0  0  0
  1  5  1  0  0  0  0
  1  6  1  0  0  0  0
  2  7  1  0  0  0  0
  2  4  1  0  0  0  0
  3  7  1  0  0  0  0
  4  8  1  0  0  0  0
  4  9  1  0  0  0  0
  4 10  1  0  0  0  0
  5 11  1  0  0  0  0
  5 13  2  0  0  0  0
  6 12  2  0  0  0  0
  6 14  1  0  0  0  0
  7 15  1  0  0  0  0
 11 18  2  0  0  0  0
 12 16  1  0  0  0  0
 13 17  1  0  0  0  0
 14 19  2  0  0  0  0
 16 20  2  0  0  0  0
 17 21  2  0  0  0  0
 18 21  1  0  0  0  0
 19 20  1  0  0  0  0
M  END
> <ID>
13956

> <Formula>
C20H28ClN

> <FW>
317.8960 (281.4351+36.4609)

> <DSSTox_CID>
28894

> <DSSTox_RID>
83162

> <DSSTox_GSID>
48968

> <DSSTox_FileID_Sort>
7839

> <TS_ChemName>
Terodiline hydrochloride

> <TS_ChemName_Synonyms>


> <TS_CASRN>
7082-21-5

> <CASRN_ChemName_Relationship>
primary

> <TS_Description>
single chemical compound

> <ChemNote>


> <STRUCTURE_Shown>
tested chemical

> <STRUCTURE_Formula>
C20H28ClN

> <STRUCTURE_MW>
317.896

> <STRUCTURE_ChemType>
defined organic

> <STRUCTURE_DefinedOrganicForm>
complex

> <STRUCTURE_IUPAC>
N-tert-butyl-4,4-diphenylbutan-2-amine hydrochloride (1:1)

> <STRUCTURE_SMILES>
Cl.CC(C)(C)NC(C)CC(c1ccccc1)c2ccccc2

> <STRUCTURE_SMILES_Desalt>
CC(C)(C)NC(C)CC(c1ccccc1)c2ccccc2

> <Substance_modify_yyyymmdd>
20111204

$$$$
