70831-56-0
ChemmineR-0915142007XD

 34 35  0  0  1  0  0  0  0  0  1 V2000
   16.0890   -1.9940    0.0000 C   0  0  0  0  0  0  0  0  0  0  0  0
   16.0890   -0.6451    0.0000 C   0  0  0  0  0  0  0  0  0  0  0  0
   17.2424   -2.6587    0.0000 C   0  0  0  0  0  0  0  0  0  0  0  0
   17.2424    0.0000    0.0000 C   0  0  0  0  0  0  0  0  0  0  0  0
   18.3958   -1.9940    0.0000 C   0  0  0  0  0  0  0  0  0  0  0  0
   18.3958   -0.6647    0.0000 C   0  0  0  0  0  0  0  0  0  0  0  0
   14.9356   -2.6587    0.0000 C   0  0  0  0  0  0  0  0  0  0  0  0
   13.7822   -1.9745    0.0000 C   0  0  0  0  0  0  0  0  0  0  0  0
   12.6484   -2.6587    0.0000 C   0  0  0  0  0  0  0  0  0  0  0  0
   12.6484   -3.9880    0.0000 O   0  0  0  0  0  0  0  0  0  0  0  0
   11.4950   -1.9745    0.0000 O   0  0  0  0  0  0  0  0  0  0  0  0
   10.3415   -2.6587    0.0000 C   0  0  0  0  0  0  0  0  0  0  0  0
    9.2077   -1.9940    0.0000 C   0  0  0  0  0  0  0  0  0  0  0  0
    9.1881   -0.6647    0.0000 C   0  0  0  0  0  0  0  0  0  0  0  0
   10.3415   -3.9880    0.0000 C   0  0  0  0  0  0  0  0  0  0  0  0
   11.4950   -4.6527    0.0000 O   0  0  0  0  0  0  0  0  0  0  0  0
    9.1881   -4.6332    0.0000 O   0  0  0  0  0  0  0  0  0  0  0  0
   19.5492    0.0000    0.0000 O   0  0  0  0  0  0  0  0  0  0  0  0
   19.5492   -2.6587    0.0000 O   0  0  0  0  0  0  0  0  0  0  0  0
   10.3415    0.0000    0.0000 O   0  0  0  0  0  0  0  0  0  0  0  0
    8.0543    0.0000    0.0000 O   0  0  0  0  0  0  0  0  0  0  0  0
    8.0543   -2.6587    0.0000 O   0  0  0  0  0  0  0  0  0  0  0  0
    6.9009   -1.9940    0.0000 C   0  0  0  0  0  0  0  0  0  0  0  0
    6.9009   -0.6647    0.0000 O   0  0  0  0  0  0  0  0  0  0  0  0
    5.7475   -2.6587    0.0000 C   0  0  0  0  0  0  0  0  0  0  0  0
    4.5941   -1.9940    0.0000 C   0  0  0  0  0  0  0  0  0  0  0  0
    1.1534   -2.6587    0.0000 C   0  0  0  0  0  0  0  0  0  0  0  0
    1.1534   -3.9880    0.0000 C   0  0  0  0  0  0  0  0  0  0  0  0
    2.3068   -1.9940    0.0000 C   0  0  0  0  0  0  0  0  0  0  0  0
    2.3068   -4.6527    0.0000 C   0  0  0  0  0  0  0  0  0  0  0  0
    3.4602   -2.6587    0.0000 C   0  0  0  0  0  0  0  0  0  0  0  0
    3.4602   -3.9880    0.0000 C   0  0  0  0  0  0  0  0  0  0  0  0
    0.0000   -1.9940    0.0000 O   0  0  0  0  0  0  0  0  0  0  0  0
    0.0000   -4.6527    0.0000 O   0  0  0  0  0  0  0  0  0  0  0  0
  1  2  1  0  0  0  0
  1  3  2  0  0  0  0
  1  7  1  0  0  0  0
  2  4  2  0  0  0  0
  3  5  1  0  0  0  0
  4  6  1  0  0  0  0
  5  6  2  0  0  0  0
  5 19  1  0  0  0  0
  6 18  1  0  0  0  0
  7  8  2  0  0  0  0
  8  9  1  0  0  0  0
  9 10  2  0  0  0  0
  9 11  1  0  0  0  0
 11 12  1  0  0  0  0
 12 13  1  0  0  0  0
 12 15  1  1  0  0  0
 13 14  1  1  0  0  0
 13 22  1  0  0  0  0
 14 20  1  0  0  0  0
 14 21  2  0  0  0  0
 15 16  2  0  0  0  0
 15 17  1  0  0  0  0
 22 23  1  0  0  0  0
 23 24  2  0  0  0  0
 23 25  1  0  0  0  0
 25 26  2  0  0  0  0
 26 31  1  0  0  0  0
 27 28  1  0  0  0  0
 27 29  2  0  0  0  0
 27 33  1  0  0  0  0
 28 30  2  0  0  0  0
 28 34  1  0  0  0  0
 29 31  1  0  0  0  0
 30 32  1  0  0  0  0
 31 32  2  0  0  0  0
M  END
> <ID>
6613

> <Formula>
C22H18O12

> <FW>
474.3711

> <DSSTox_CID>
13332

> <DSSTox_RID>
79064

> <DSSTox_GSID>
33332

> <DSSTox_FileID_Sort>
3746

> <TS_ChemName>
L-Cichoric acid

> <TS_ChemName_Synonyms>


> <TS_CASRN>
70831-56-0

> <CASRN_ChemName_Relationship>
primary

> <TS_Description>
single chemical compound

> <ChemNote>
stereochem

> <STRUCTURE_Shown>
tested chemical

> <STRUCTURE_Formula>
C22H18O12

> <STRUCTURE_MW>
474.3711

> <STRUCTURE_ChemType>
defined organic

> <STRUCTURE_DefinedOrganicForm>
parent

> <STRUCTURE_IUPAC>
(2R,3R)-2,3-bis{[(2E)-3-(3,4-dihydroxyphenyl)prop-2-enoyl]oxy}butanedioic acid

> <STRUCTURE_SMILES>
Oc2ccc(/C=C/C(=O)O[C@@H](C(=O)O)[C@@H](OC(=O)/C=C/c1ccc(O)c(O)c1)C(=O)O)cc2O

> <STRUCTURE_SMILES_Desalt>
Oc2ccc(/C=C/C(=O)O[C@@H](C(=O)O)[C@@H](OC(=O)/C=C/c1ccc(O)c(O)c1)C(=O)O)cc2O

> <Substance_modify_yyyymmdd>
20080429

$$$$
