7085-85-0
ChemmineR-0915142007XD

  9  8  0  0  0  0  0  0  0  0  1 V2000
    3.4534   -3.3221    0.0000 O   0  0  0  0  0  0  0  0  0  0  0  0
    3.4534   -1.9960    0.0000 C   0  0  0  0  0  0  0  0  0  0  0  0
    4.6068   -1.3261    0.0000 O   0  0  0  0  0  0  0  0  0  0  0  0
    5.7533   -1.9960    0.0000 C   0  0  0  0  0  0  0  0  0  0  0  0
    6.9067   -1.3261    0.0000 C   0  0  0  0  0  0  0  0  0  0  0  0
    2.2999   -1.3261    0.0000 C   0  0  0  0  0  0  0  0  0  0  0  0
    2.2999    0.0000    0.0000 C   0  0  0  0  0  0  0  0  0  0  0  0
    1.1534   -1.9960    0.0000 C   0  0  0  0  0  0  0  0  0  0  0  0
    0.0000   -2.6591    0.0000 N   0  0  0  0  0  0  0  0  0  0  0  0
  1  2  2  0  0  0  0
  2  3  1  0  0  0  0
  2  6  1  0  0  0  0
  3  4  1  0  0  0  0
  4  5  1  0  0  0  0
  6  7  2  0  0  0  0
  6  8  1  0  0  0  0
  8  9  3  0  0  0  0
M  END
> <ID>
4117

> <Formula>
C6H7NO2

> <FW>
125.1253

> <DSSTox_CID>
5279

> <DSSTox_RID>
77725

> <DSSTox_GSID>
25279

> <DSSTox_FileID_Sort>
2408

> <TS_ChemName>
Ethyl cyanoacrylate

> <TS_ChemName_Synonyms>


> <TS_CASRN>
7085-85-0

> <CASRN_ChemName_Relationship>
primary

> <TS_Description>
single chemical compound

> <ChemNote>


> <STRUCTURE_Shown>
tested chemical

> <STRUCTURE_Formula>
C6H7NO2

> <STRUCTURE_MW>
125.1253

> <STRUCTURE_ChemType>
defined organic

> <STRUCTURE_DefinedOrganicForm>
parent

> <STRUCTURE_IUPAC>
ethyl 2-cyanoprop-2-enoate

> <STRUCTURE_SMILES>
N#CC(=C)C(=O)OCC

> <STRUCTURE_SMILES_Desalt>
N#CC(=C)C(=O)OCC

> <Substance_modify_yyyymmdd>
20080429

$$$$
