7085-55-4
ChemmineR-0915142007XD

 52 56  0  0  1  0  0  0  0  0  1 V2000
    8.6331   -3.7184    0.0000 C   0  0  0  0  0  0  0  0  0  0  0  0
    8.6331   -2.4897    0.0000 C   0  0  0  0  0  0  0  0  0  0  0  0
    7.5337   -4.3489    0.0000 C   0  0  0  0  0  0  0  0  0  0  0  0
    6.4829   -3.7184    0.0000 C   0  0  0  0  0  0  0  0  0  0  0  0
    7.5337   -1.8430    0.0000 O   0  0  0  0  0  0  0  0  0  0  0  0
    6.4829   -2.4897    0.0000 C   0  0  0  0  0  0  0  0  0  0  0  0
    9.7001   -4.3489    0.0000 O   0  0  0  0  0  0  0  0  0  0  0  0
    5.3997   -4.3489    0.0000 C   0  0  0  0  0  0  0  0  0  0  0  0
    9.7001   -1.8430    0.0000 C   0  0  0  0  0  0  0  0  0  0  0  0
    5.3997   -1.8430    0.0000 C   0  0  0  0  0  0  0  0  0  0  0  0
    4.3165   -3.7184    0.0000 C   0  0  0  0  0  0  0  0  0  0  0  0
   10.7833   -2.4897    0.0000 C   0  0  0  0  0  0  0  0  0  0  0  0
   11.8503   -1.8430    0.0000 C   0  0  0  0  0  0  0  0  0  0  0  0
    7.5337   -5.5937    0.0000 O   0  0  0  0  0  0  0  0  0  0  0  0
    4.3165   -2.4897    0.0000 C   0  0  0  0  0  0  0  0  0  0  0  0
   11.8503   -0.6143    0.0000 C   0  0  0  0  0  0  0  0  0  0  0  0
    9.7001   -0.6143    0.0000 C   0  0  0  0  0  0  0  0  0  0  0  0
   10.7833    0.0000    0.0000 C   0  0  0  0  0  0  0  0  0  0  0  0
    5.3997   -5.5937    0.0000 O   0  0  0  0  0  0  0  0  0  0  0  0
   12.9335   -2.4897    0.0000 O   0  0  0  0  0  0  0  0  0  0  0  0
    3.2495   -1.8430    0.0000 O   0  0  0  0  0  0  0  0  0  0  0  0
   12.9335    0.0000    0.0000 O   0  0  0  0  0  0  0  0  0  0  0  0
   16.1668   -0.6143    0.0000 O   0  0  0  0  0  0  0  0  0  0  0  0
    0.0000   -2.4897    0.0000 O   0  0  0  0  0  0  0  0  0  0  0  0
   16.1668   -1.8430    0.0000 O   0  0  0  0  0  0  0  0  0  0  0  0
   15.0998   -2.4897    0.0000 C   0  0  0  0  0  0  0  0  0  0  0  0
    1.0832   -1.8430    0.0000 C   0  0  0  0  0  0  0  0  0  0  0  0
   15.0998    0.0000    0.0000 C   0  0  0  0  0  0  0  0  0  0  0  0
   14.0166   -1.8430    0.0000 C   0  0  0  0  0  0  0  0  0  0  0  0
   14.0166   -0.6143    0.0000 C   0  0  0  0  0  0  0  0  0  0  0  0
    2.1825   -2.4897    0.0000 C   0  0  0  0  0  0  0  0  0  0  0  0
    9.7001   -5.8039    0.0000 C   0  0  0  0  0  0  0  0  0  0  0  0
   10.9611   -6.5152    0.0000 C   0  0  0  0  0  0  0  0  0  0  0  0
    8.4391   -6.5152    0.0000 O   0  0  0  0  0  0  0  0  0  0  0  0
   10.9611   -7.9702    0.0000 C   0  0  0  0  0  0  0  0  0  0  0  0
    8.4391   -7.9702    0.0000 C   0  0  0  0  0  0  0  0  0  0  0  0
    9.7001   -8.6978    0.0000 C   0  0  0  0  0  0  0  0  0  0  0  0
   12.2221   -5.8039    0.0000 O   0  0  0  0  0  0  0  0  0  0  0  0
   12.2221   -8.6978    0.0000 O   0  0  0  0  0  0  0  0  0  0  0  0
    9.7001  -10.1366    0.0000 O   0  0  0  0  0  0  0  0  0  0  0  0
    7.1942   -8.6978    0.0000 C   0  0  0  0  0  0  0  0  0  0  0  0
    5.9171   -7.9702    0.0000 O   0  0  0  0  0  0  0  0  0  0  0  0
    4.6884   -8.6978    0.0000 C   0  0  0  0  0  0  0  0  0  0  0  0
    4.6884  -10.1366    0.0000 C   0  0  0  0  0  0  0  0  0  0  0  0
    3.4274   -7.9702    0.0000 O   0  0  0  0  0  0  0  0  0  0  0  0
    3.4274  -10.8803    0.0000 C   0  0  0  0  0  0  0  0  0  0  0  0
    2.1825   -8.6978    0.0000 C   0  0  0  0  0  0  0  0  0  0  0  0
    2.1825  -10.1366    0.0000 C   0  0  0  0  0  0  0  0  0  0  0  0
    5.9171  -10.8803    0.0000 O   0  0  0  0  0  0  0  0  0  0  0  0
    3.4274  -12.3191    0.0000 O   0  0  0  0  0  0  0  0  0  0  0  0
    0.9377  -10.8803    0.0000 O   0  0  0  0  0  0  0  0  0  0  0  0
    0.9377   -7.9702    0.0000 C   0  0  0  0  0  0  0  0  0  0  0  0
  1  2  2  0  0  0  0
  1  3  1  0  0  0  0
  1  7  1  0  0  0  0
  2  5  1  0  0  0  0
  2  9  1  0  0  0  0
  3  4  1  0  0  0  0
  3 14  2  0  0  0  0
  4  6  2  0  0  0  0
  4  8  1  0  0  0  0
  5  6  1  0  0  0  0
  6 10  1  0  0  0  0
 32  7  1  1  0  0  0
  8 11  2  0  0  0  0
  8 19  1  0  0  0  0
  9 12  1  0  0  0  0
  9 17  2  0  0  0  0
 10 15  2  0  0  0  0
 11 15  1  0  0  0  0
 12 13  2  0  0  0  0
 13 20  1  0  0  0  0
 13 16  1  0  0  0  0
 15 21  1  0  0  0  0
 16 18  2  0  0  0  0
 16 22  1  0  0  0  0
 17 18  1  0  0  0  0
 20 29  1  0  0  0  0
 21 31  1  0  0  0  0
 22 30  1  0  0  0  0
 23 28  1  0  0  0  0
 24 27  1  0  0  0  0
 25 26  1  0  0  0  0
 26 29  1  0  0  0  0
 27 31  1  0  0  0  0
 28 30  1  0  0  0  0
 32 33  1  0  0  0  0
 32 34  1  0  0  0  0
 33 35  1  0  0  0  0
 33 38  1  6  0  0  0
 34 36  1  0  0  0  0
 35 37  1  0  0  0  0
 35 39  1  1  0  0  0
 36 37  1  0  0  0  0
 36 41  1  1  0  0  0
 37 40  1  6  0  0  0
 41 42  1  0  0  0  0
 43 42  1  1  0  0  0
 43 44  1  0  0  0  0
 43 45  1  0  0  0  0
 44 46  1  0  0  0  0
 44 49  1  6  0  0  0
 45 47  1  0  0  0  0
 46 48  1  0  0  0  0
 46 50  1  6  0  0  0
 47 48  1  0  0  0  0
 47 52  1  6  0  0  0
 48 51  1  1  0  0  0
M  END
> <ID>
11298

> <Formula>
C33H42O19

> <FW>
742.6752

> <DSSTox_CID>
25929

> <DSSTox_RID>
81230

> <DSSTox_GSID>
45929

> <DSSTox_FileID_Sort>
5911

> <TS_ChemName>
Troxerutin

> <TS_ChemName_Synonyms>


> <TS_CASRN>
7085-55-4

> <CASRN_ChemName_Relationship>
primary

> <TS_Description>
single chemical compound

> <ChemNote>
stereochem

> <STRUCTURE_Shown>
tested chemical

> <STRUCTURE_Formula>
C33H42O19

> <STRUCTURE_MW>
742.6752

> <STRUCTURE_ChemType>
defined organic

> <STRUCTURE_DefinedOrganicForm>
parent

> <STRUCTURE_IUPAC>
2-[3,4-bis(2-hydroxyethoxy)phenyl]-5-hydroxy-7-(2-hydroxyethoxy)-4-oxo-4H-chromen-3-yl 6-O-(6-deoxy-alpha-L-mannopyranosyl)-beta-D-glucopyranoside

> <STRUCTURE_SMILES>
OCCOc1ccc(cc1OCCO)C=4Oc5cc(OCCO)cc(O)c5C(=O)C=4O[C@@H]3O[C@H](CO[C@@H]2O[C@@H](C)[C@H](O)[C@@H](O)[C@H]2O)[C@@H](O)[C@H](O)[C@H]3O

> <STRUCTURE_SMILES_Desalt>
OCCOc1ccc(cc1OCCO)C=4Oc5cc(OCCO)cc(O)c5C(=O)C=4O[C@@H]3O[C@H](CO[C@@H]2O[C@@H](C)[C@H](O)[C@@H](O)[C@H]2O)[C@@H](O)[C@H](O)[C@H]3O

> <Substance_modify_yyyymmdd>
20110930

$$$$
