70862-65-6
ChemmineR-0915142007XD

 27 26  0  0  0  0  0  0  0  0  2 V2000
   19.4934    0.0000    0.0000 C    0  0  0  0  0  0  0  0  0  0  0  0
    2.8070  -16.9398    0.0000 C    0  0  0  0  0  0  0  0  0  0  0  0
    9.1619   -8.1092    0.0000 C    0  0  0  0  0  0  0  0  0  0  0  0
   18.8306   -1.1501    0.0000 C    0  0  0  0  0  0  0  0  0  0  0  0
    2.6706  -15.6142    0.0000 C    0  0  0  0  0  0  0  0  0  0  0  0
   17.5051   -1.1501    0.0000 C    0  0  0  0  0  0  0  0  0  0  0  0
    3.7427  -14.8345    0.0000 C    0  0  0  0  0  0  0  0  0  0  0  0
   16.8423   -2.3002    0.0000 C    0  0  0  0  0  0  0  0  0  0  0  0
    3.6063  -13.5089    0.0000 C    0  0  0  0  0  0  0  0  0  0  0  0
   15.4972   -2.3002    0.0000 C    0  0  0  0  0  0  0  0  0  0  0  0
    4.6784  -12.7292    0.0000 C    0  0  0  0  0  0  0  0  0  0  0  0
   14.8345   -3.4503    0.0000 C    0  0  0  0  0  0  0  0  0  0  0  0
    4.5420  -11.4036    0.0000 C    0  0  0  0  0  0  0  0  0  0  0  0
   13.5089   -3.4503    0.0000 C    0  0  0  0  0  0  0  0  0  0  0  0
    5.6141  -10.6239    0.0000 C    0  0  0  0  0  0  0  0  0  0  0  0
   12.8461   -4.6199    0.0000 C    0  0  0  0  0  0  0  0  0  0  0  0
    5.4776   -9.3178    0.0000 C    0  0  0  0  0  0  0  0  0  0  0  0
   11.5206   -4.6199    0.0000 C    0  0  0  0  0  0  0  0  0  0  0  0
    6.5498   -8.5381    0.0000 C    0  0  0  0  0  0  0  0  0  0  0  0
   10.8578   -5.7700    0.0000 C    0  0  0  0  0  0  0  0  0  0  0  0
    6.4133   -7.2126    0.0000 C    0  0  0  0  0  0  0  0  0  0  0  0
    8.7525   -4.6784    0.0000 C    0  0  0  0  0  0  0  0  0  0  0  0
    7.4855   -5.0878    0.0000 C    0  0  0  0  0  0  0  0  0  0  0  0
    8.7525   -6.8422    0.0000 C    0  0  0  0  0  0  0  0  0  0  0  0
    9.5323   -5.7700    0.0000 N    0  3  0  0  0  0  0  0  0  0  0  0
    7.4855   -6.4328    0.0000 N    0  0  0  0  0  0  0  0  0  0  0  0
    0.0000   -5.7700    0.0000 Cl   0  5  0  0  0  0  0  0  0  0  0  0
  1  4  1  0  0  0  0
  2  5  1  0  0  0  0
  3 24  1  0  0  0  0
  4  6  1  0  0  0  0
  5  7  1  0  0  0  0
  6  8  1  0  0  0  0
  7  9  1  0  0  0  0
  8 10  1  0  0  0  0
  9 11  1  0  0  0  0
 10 12  1  0  0  0  0
 11 13  1  0  0  0  0
 12 14  1  0  0  0  0
 13 15  1  0  0  0  0
 14 16  1  0  0  0  0
 15 17  1  0  0  0  0
 16 18  1  0  0  0  0
 17 19  1  0  0  0  0
 18 20  1  0  0  0  0
 19 21  1  0  0  0  0
 20 25  1  0  0  0  0
 21 26  1  0  0  0  0
 22 23  2  0  0  0  0
 22 25  1  0  0  0  0
 23 26  1  0  0  0  0
 24 25  2  0  0  0  0
 24 26  1  0  0  0  0
M  END
> <ID>
14216

> <Formula>
C24H47ClN2

> <FW>
399.0964 (363.6428+35.4535)

> <DSSTox_CID>
29311

> <DSSTox_RID>
83427

> <DSSTox_GSID>
49352

> <DSSTox_FileID_Sort>
8102

> <TS_ChemName>
1,3-Didecyl-2-methylimidazolium chloride

> <TS_ChemName_Synonyms>


> <TS_CASRN>
70862-65-6

> <CASRN_ChemName_Relationship>
primary

> <TS_Description>
single chemical compound

> <ChemNote>


> <STRUCTURE_Shown>
tested chemical

> <STRUCTURE_Formula>
C24H47ClN2

> <STRUCTURE_MW>
399.0964

> <STRUCTURE_ChemType>
defined organic

> <STRUCTURE_DefinedOrganicForm>
salt

> <STRUCTURE_IUPAC>
1,3-didecyl-2-methyl-1H-imidazol-3-ium chloride

> <STRUCTURE_SMILES>
[Cl-].CCCCCCCCCC[n+]1ccn(CCCCCCCCCC)c1C

> <STRUCTURE_SMILES_Desalt>
CCCCCCCCCC[n+]1ccn(CCCCCCCCCC)c1C

> <Substance_modify_yyyymmdd>
20111204

$$$$
