70989-04-7
ChemmineR-0915142007XD

 16 17  0  0  1  0  0  0  0  0  1 V2000
    5.4607   -1.2732    0.0000 C   0  0  0  0  0  0  0  0  0  0  0  0
    4.1329   -1.1303    0.0000 C   0  0  0  0  0  0  0  0  0  0  0  0
    3.3567   -2.2061    0.0000 C   0  0  0  0  0  0  0  0  0  0  0  0
    2.8120   -3.4248    0.0000 N   0  0  0  0  0  0  0  0  0  0  0  0
    1.4911   -3.2818    0.0000 C   0  0  0  0  0  0  0  0  0  0  0  0
    0.5992   -4.2759    0.0000 O   0  0  0  0  0  0  0  0  0  0  0  0
    1.2120   -1.9814    0.0000 N   0  0  0  0  0  0  0  0  0  0  0  0
    0.0000   -1.4435    0.0000 C   0  0  0  0  0  0  0  0  0  0  0  0
    2.3695   -1.3209    0.0000 C   0  0  0  0  0  0  0  0  0  0  0  0
    2.5056    0.0000    0.0000 O   0  0  0  0  0  0  0  0  0  0  0  0
    4.5074   -2.8733    0.0000 C   0  0  0  0  0  0  0  0  0  0  0  0
    5.6581   -2.2061    0.0000 C   0  0  0  0  0  0  0  0  0  0  0  0
    6.8088   -2.8733    0.0000 C   0  0  0  0  0  0  0  0  0  0  0  0
    6.8088   -4.2010    0.0000 C   0  0  0  0  0  0  0  0  0  0  0  0
    5.6581   -4.8683    0.0000 C   0  0  0  0  0  0  0  0  0  0  0  0
    4.5074   -4.2010    0.0000 C   0  0  0  0  0  0  0  0  0  0  0  0
  1  2  1  0  0  0  0
  3  2  1  1  0  0  0
  3  4  1  0  0  0  0
  3  9  1  0  0  0  0
  3 11  1  6  0  0  0
  4  5  1  0  0  0  0
  5  6  2  0  0  0  0
  5  7  1  0  0  0  0
  7  8  1  0  0  0  0
  7  9  1  0  0  0  0
  9 10  2  0  0  0  0
 11 12  2  0  0  0  0
 11 16  1  0  0  0  0
 12 13  1  0  0  0  0
 13 14  2  0  0  0  0
 14 15  1  0  0  0  0
 15 16  2  0  0  0  0
M  END
> <ID>
11428

> <Formula>
C12H14N2O2

> <FW>
218.2518

> <DSSTox_CID>
26126

> <DSSTox_RID>
81360

> <DSSTox_GSID>
46126

> <DSSTox_FileID_Sort>
6041

> <TS_ChemName>
(S)-Mephenytoin

> <TS_ChemName_Synonyms>


> <TS_CASRN>
70989-04-7

> <CASRN_ChemName_Relationship>
primary

> <TS_Description>
single chemical compound

> <ChemNote>
absolute stereochem; rotation (+)

> <STRUCTURE_Shown>
tested chemical

> <STRUCTURE_Formula>
C12H14N2O2

> <STRUCTURE_MW>
218.2518

> <STRUCTURE_ChemType>
defined organic

> <STRUCTURE_DefinedOrganicForm>
parent

> <STRUCTURE_IUPAC>
(5S)-5-ethyl-3-methyl-5-phenylimidazolidine-2,4-dione

> <STRUCTURE_SMILES>
CC[C@]1(NC(=O)N(C)C1=O)c2ccccc2

> <STRUCTURE_SMILES_Desalt>
CC[C@]1(NC(=O)N(C)C1=O)c2ccccc2

> <Substance_modify_yyyymmdd>
20110818

$$$$
