71-27-2
ChemmineR-0915142007XD

 22 19  0  0  0  0  0  0  0  0  2 V2000
   13.2028   -3.1428    0.0000 C    0  0  0  0  0  0  0  0  0  0  0  0
   14.5411   -0.8421    0.0000 C    0  0  0  0  0  0  0  0  0  0  0  0
   13.8644   -1.9849    0.0000 N    0  3  0  0  0  0  0  0  0  0  0  0
   12.7065   -1.3383    0.0000 C    0  0  0  0  0  0  0  0  0  0  0  0
   11.5487   -1.9849    0.0000 C    0  0  0  0  0  0  0  0  0  0  0  0
   10.4058   -1.3383    0.0000 O    0  0  0  0  0  0  0  0  0  0  0  0
    0.0000   -0.6616    0.0000 C    0  0  0  0  0  0  0  0  0  0  0  0
    0.4962   -2.4962    0.0000 C    0  0  0  0  0  0  0  0  0  0  0  0
    1.8346   -0.1804    0.0000 C    0  0  0  0  0  0  0  0  0  0  0  0
    9.2480   -3.3232    0.0000 O    0  0  0  0  0  0  0  0  0  0  0  0
    9.2480   -1.9849    0.0000 C    0  0  0  0  0  0  0  0  0  0  0  0
    8.1051   -1.3383    0.0000 C    0  0  0  0  0  0  0  0  0  0  0  0
    6.9472   -1.9849    0.0000 C    0  0  0  0  0  0  0  0  0  0  0  0
    5.7894   -1.3383    0.0000 C    0  0  0  0  0  0  0  0  0  0  0  0
    5.7894    0.0000    0.0000 O    0  0  0  0  0  0  0  0  0  0  0  0
    4.6315   -1.9849    0.0000 O    0  0  0  0  0  0  0  0  0  0  0  0
    3.4887   -1.3383    0.0000 C    0  0  0  0  0  0  0  0  0  0  0  0
    2.3308   -1.9849    0.0000 C    0  0  0  0  0  0  0  0  0  0  0  0
    1.1729   -1.3383    0.0000 N    0  3  0  0  0  0  0  0  0  0  0  0
   15.0373   -2.6616    0.0000 C    0  0  0  0  0  0  0  0  0  0  0  0
    1.9248   -3.1879    0.0000 Cl   0  5  0  0  0  0  0  0  0  0  0  0
   13.5185   -0.2406    0.0000 Cl   0  5  0  0  0  0  0  0  0  0  0  0
  1  3  1  0  0  0  0
  2  3  1  0  0  0  0
  3  4  1  0  0  0  0
  3 20  1  0  0  0  0
  4  5  1  0  0  0  0
  5  6  1  0  0  0  0
  6 11  1  0  0  0  0
  7 19  1  0  0  0  0
  8 19  1  0  0  0  0
  9 19  1  0  0  0  0
 10 11  2  0  0  0  0
 11 12  1  0  0  0  0
 12 13  1  0  0  0  0
 13 14  1  0  0  0  0
 14 15  2  0  0  0  0
 14 16  1  0  0  0  0
 16 17  1  0  0  0  0
 17 18  1  0  0  0  0
 18 19  1  0  0  0  0
M  END
> <ID>
3222

> <Formula>
C14H30Cl2N2O4

> <FW>
361.3050 (290.3979+35.4535+35.4535)

> <DSSTox_CID>
3603

> <DSSTox_RID>
77103

> <DSSTox_GSID>
23603

> <DSSTox_FileID_Sort>
1786

> <TS_ChemName>
Succinylcholine chloride

> <TS_ChemName_Synonyms>
Succinylcholine

> <TS_CASRN>
71-27-2

> <CASRN_ChemName_Relationship>
primary

> <TS_Description>
single chemical compound

> <ChemNote>
ammonium; parent [306-40-1]

> <STRUCTURE_Shown>
tested chemical

> <STRUCTURE_Formula>
C14H30Cl2N2O4

> <STRUCTURE_MW>
361.305

> <STRUCTURE_ChemType>
defined organic

> <STRUCTURE_DefinedOrganicForm>
salt

> <STRUCTURE_IUPAC>
2,2'-[(1,4-dioxobutane-1,4-diyl)bis(oxy)]bis(N,N,N-trimethylethanaminium) dichloride

> <STRUCTURE_SMILES>
[Cl-].[Cl-].C[N+](C)(C)CCOC(=O)CCC(=O)OCC[N+](C)(C)C

> <STRUCTURE_SMILES_Desalt>
C[N+](C)(C)CCOC(=O)CCC(=O)OCC[N+](C)(C)C

> <Substance_modify_yyyymmdd>
20080429

$$$$
