71-36-3
ChemmineR-0915142007XD

  5  4  0  0  0  0  0  0  0  0  1 V2000
    0.0000   -0.6638    0.0000 C   0  0  0  0  0  0  0  0  0  0  0  0
    1.1525    0.0000    0.0000 C   0  0  0  0  0  0  0  0  0  0  0  0
    2.3050   -0.6638    0.0000 C   0  0  0  0  0  0  0  0  0  0  0  0
    3.4575    0.0000    0.0000 C   0  0  0  0  0  0  0  0  0  0  0  0
    4.6099   -0.6638    0.0000 O   0  0  0  0  0  0  0  0  0  0  0  0
  1  2  1  0  0  0  0
  2  3  1  0  0  0  0
  3  4  1  0  0  0  0
  4  5  1  0  0  0  0
M  END
> <ID>
1660

> <Formula>
C4H10O

> <FW>
74.1216

> <DSSTox_CID>
1740

> <DSSTox_RID>
76300

> <DSSTox_GSID>
21740

> <DSSTox_FileID_Sort>
984

> <TS_ChemName>
1-Butanol

> <TS_ChemName_Synonyms>
n-Butanol; n-Butyl alcohol

> <TS_CASRN>
71-36-3

> <CASRN_ChemName_Relationship>
primary

> <TS_Description>
single chemical compound

> <ChemNote>


> <STRUCTURE_Shown>
tested chemical

> <STRUCTURE_Formula>
C4H10O

> <STRUCTURE_MW>
74.1216

> <STRUCTURE_ChemType>
defined organic

> <STRUCTURE_DefinedOrganicForm>
parent

> <STRUCTURE_IUPAC>
butan-1-ol

> <STRUCTURE_SMILES>
CCCCO

> <STRUCTURE_SMILES_Desalt>
CCCCO

> <Substance_modify_yyyymmdd>
20080429

$$$$
