71-30-7
ChemmineR-0915142007XD

  8  8  0  0  0  0  0  0  0  0  1 V2000
    2.3040   -1.9965    0.0000 N   0  0  0  0  0  0  0  0  0  0  0  0
    2.3040   -0.6589    0.0000 C   0  0  0  0  0  0  0  0  0  0  0  0
    1.1420   -2.6554    0.0000 C   0  0  0  0  0  0  0  0  0  0  0  0
    0.0000   -1.9965    0.0000 C   0  0  0  0  0  0  0  0  0  0  0  0
    1.1420    0.0000    0.0000 N   0  0  0  0  0  0  0  0  0  0  0  0
    0.0000   -0.6589    0.0000 C   0  0  0  0  0  0  0  0  0  0  0  0
    3.4460    0.0000    0.0000 O   0  0  0  0  0  0  0  0  0  0  0  0
    1.1420   -3.9931    0.0000 N   0  0  0  0  0  0  0  0  0  0  0  0
  1  2  1  0  0  0  0
  1  3  2  0  0  0  0
  2  5  1  0  0  0  0
  2  7  2  0  0  0  0
  3  4  1  0  0  0  0
  3  8  1  0  0  0  0
  4  6  2  0  0  0  0
  5  6  1  0  0  0  0
M  END
> <ID>
10113

> <Formula>
C4H5N3O

> <FW>
111.102

> <DSSTox_CID>
24456

> <DSSTox_RID>
80242

> <DSSTox_GSID>
44456

> <DSSTox_FileID_Sort>
4924

> <TS_ChemName>
Cytosine

> <TS_ChemName_Synonyms>
Cytosine (2(1H)-Pyrimidinone, 4-amino-)

> <TS_CASRN>
71-30-7

> <CASRN_ChemName_Relationship>
primary

> <TS_Description>
single chemical compound

> <ChemNote>
tautomers

> <STRUCTURE_Shown>
tested chemical

> <STRUCTURE_Formula>
C4H5N3O

> <STRUCTURE_MW>
111.102

> <STRUCTURE_ChemType>
defined organic

> <STRUCTURE_DefinedOrganicForm>
parent

> <STRUCTURE_IUPAC>
4-aminopyrimidin-2(1H)-one

> <STRUCTURE_SMILES>
NC=1C=CNC(=O)N=1

> <STRUCTURE_SMILES_Desalt>
NC=1C=CNC(=O)N=1

> <Substance_modify_yyyymmdd>
20091116

$$$$
