71-41-0
ChemmineR-0915142007XD

  6  5  0  0  0  0  0  0  0  0  1 V2000
    0.0000   -0.6630    0.0000 C   0  0  0  0  0  0  0  0  0  0  0  0
    1.1530    0.0000    0.0000 C   0  0  0  0  0  0  0  0  0  0  0  0
    2.3060   -0.6630    0.0000 C   0  0  0  0  0  0  0  0  0  0  0  0
    3.4590    0.0000    0.0000 C   0  0  0  0  0  0  0  0  0  0  0  0
    4.6119   -0.6630    0.0000 C   0  0  0  0  0  0  0  0  0  0  0  0
    5.7649    0.0000    0.0000 O   0  0  0  0  0  0  0  0  0  0  0  0
  1  2  1  0  0  0  0
  2  3  1  0  0  0  0
  3  4  1  0  0  0  0
  4  5  1  0  0  0  0
  5  6  1  0  0  0  0
M  END
> <ID>
1661

> <Formula>
C5H12O

> <FW>
88.1482

> <DSSTox_CID>
1741

> <DSSTox_RID>
76301

> <DSSTox_GSID>
21741

> <DSSTox_FileID_Sort>
985

> <TS_ChemName>
1-Pentanol

> <TS_ChemName_Synonyms>


> <TS_CASRN>
71-41-0

> <CASRN_ChemName_Relationship>
primary

> <TS_Description>
single chemical compound

> <ChemNote>


> <STRUCTURE_Shown>
tested chemical

> <STRUCTURE_Formula>
C5H12O

> <STRUCTURE_MW>
88.1482

> <STRUCTURE_ChemType>
defined organic

> <STRUCTURE_DefinedOrganicForm>
parent

> <STRUCTURE_IUPAC>
pentan-1-ol

> <STRUCTURE_SMILES>
CCCCCO

> <STRUCTURE_SMILES_Desalt>
CCCCCO

> <Substance_modify_yyyymmdd>
20080429

$$$$
