71-48-7
ChemmineR-0915142007XD

  9  6  0  0  0  0  0  0  0  0  2 V2000
    1.1628   -0.6616    0.0000 C    0  0  0  0  0  0  0  0  0  0  0  0
    1.1628   -1.9847    0.0000 O    0  0  0  0  0  0  0  0  0  0  0  0
    2.3155    0.0000    0.0000 O    0  5  0  0  0  0  0  0  0  0  0  0
    0.0000    0.0000    0.0000 C    0  0  0  0  0  0  0  0  0  0  0  0
    4.4906   -0.4511    0.0000 Co   0  2  0  0  0  0  0  0  0  0  0  0
    8.8710   -0.7117    0.0000 C    0  0  0  0  0  0  0  0  0  0  0  0
    8.8710   -2.0348    0.0000 O    0  0  0  0  0  0  0  0  0  0  0  0
   10.0237   -0.0501    0.0000 O    0  5  0  0  0  0  0  0  0  0  0  0
    7.7083   -0.0501    0.0000 C    0  0  0  0  0  0  0  0  0  0  0  0
  1  2  2  0  0  0  0
  1  3  1  0  0  0  0
  1  4  1  0  0  0  0
  6  7  2  0  0  0  0
  6  8  1  0  0  0  0
  6  9  1  0  0  0  0
M  END
> <ID>
4662

> <Formula>
C4H6CoO4

> <FW>
177.0212 (59.0446+58.9321+59.0446)

> <DSSTox_CID>
6373

> <DSSTox_RID>
78107

> <DSSTox_GSID>
26373

> <DSSTox_FileID_Sort>
2790

> <TS_ChemName>
Cobalt(II) acetate

> <TS_ChemName_Synonyms>
Cobalt(II) acetate (Acetic acid, cobalt(2+) salt)

> <TS_CASRN>
71-48-7

> <CASRN_ChemName_Relationship>
primary

> <TS_Description>
single chemical compound

> <ChemNote>


> <STRUCTURE_Shown>
tested chemical

> <STRUCTURE_Formula>
C4H6CoO4

> <STRUCTURE_MW>
177.0212

> <STRUCTURE_ChemType>
organometallic

> <STRUCTURE_DefinedOrganicForm>


> <STRUCTURE_IUPAC>
cobalt(2+) diacetate

> <STRUCTURE_SMILES>
[Co+2].[O-]C(C)=O.[O-]C(C)=O

> <STRUCTURE_SMILES_Desalt>
CC(=O)O

> <Substance_modify_yyyymmdd>
20080429

$$$$
