71-43-2
ChemmineR-0915142007XD

  6  6  0  0  0  0  0  0  0  0  1 V2000
    2.3036   -1.9950    0.0000 C   0  0  0  0  0  0  0  0  0  0  0  0
    1.1518   -2.6600    0.0000 C   0  0  0  0  0  0  0  0  0  0  0  0
    0.0000   -1.9950    0.0000 C   0  0  0  0  0  0  0  0  0  0  0  0
    0.0000   -0.6650    0.0000 C   0  0  0  0  0  0  0  0  0  0  0  0
    1.1518    0.0000    0.0000 C   0  0  0  0  0  0  0  0  0  0  0  0
    2.3036   -0.6650    0.0000 C   0  0  0  0  0  0  0  0  0  0  0  0
  1  2  2  0  0  0  0
  1  6  1  0  0  0  0
  2  3  1  0  0  0  0
  3  4  2  0  0  0  0
  4  5  1  0  0  0  0
  5  6  2  0  0  0  0
M  END
> <ID>
132

> <Formula>
C6H6

> <FW>
78.1118

> <DSSTox_CID>
135

> <DSSTox_RID>
79433

> <DSSTox_GSID>
39242

> <DSSTox_FileID_Sort>
4115

> <TS_ChemName>
Benzene

> <TS_ChemName_Synonyms>


> <TS_CASRN>
71-43-2

> <CASRN_ChemName_Relationship>
primary

> <TS_Description>
single chemical compound

> <ChemNote>


> <STRUCTURE_Shown>
tested chemical

> <STRUCTURE_Formula>
C6H6

> <STRUCTURE_MW>
78.1118

> <STRUCTURE_ChemType>
defined organic

> <STRUCTURE_DefinedOrganicForm>
parent

> <STRUCTURE_IUPAC>
benzene

> <STRUCTURE_SMILES>
c1ccccc1

> <STRUCTURE_SMILES_Desalt>
c1ccccc1

> <Substance_modify_yyyymmdd>
20080429

$$$$
