71-58-9
ChemmineR-0915142007XD

 31 34  0  0  1  0  0  0  0  0  1 V2000
    3.5164   -4.5144    0.0000 C   0  0  0  0  0  0  0  0  0  0  0  0
    6.9980   -2.4603    0.0000 C   0  0  0  0  0  0  0  0  0  0  0  0
    8.3094   -2.0657    0.0000 C   0  0  0  0  0  0  0  0  0  0  0  0
    3.5164   -5.8723    0.0000 C   0  0  0  0  0  0  0  0  0  0  0  0
    5.8491   -4.5144    0.0000 C   0  0  0  0  0  0  0  0  0  0  0  0
    4.6769   -3.8297    0.0000 C   0  0  0  0  0  0  0  0  0  0  0  0
    6.9980   -3.8297    0.0000 C   0  0  0  0  0  0  0  0  0  0  0  0
    5.8491   -5.8723    0.0000 C   0  0  0  0  0  0  0  0  0  0  0  0
    2.3443   -6.5338    0.0000 C   0  0  0  0  0  0  0  0  0  0  0  0
    4.6769   -6.5338    0.0000 C   0  0  0  0  0  0  0  0  0  0  0  0
    5.8491   -1.8220    0.0000 C   0  0  0  0  0  0  0  0  0  0  0  0
    9.0985   -3.1450    0.0000 C   0  0  0  0  0  0  0  0  0  0  0  0
    9.9689   -2.0657    0.0000 O   0  0  0  0  0  0  0  0  0  0  0  0
    4.6769   -2.4603    0.0000 C   0  0  0  0  0  0  0  0  0  0  0  0
    8.3094   -4.2591    0.0000 C   0  0  0  0  0  0  0  0  0  0  0  0
    2.3443   -3.8297    0.0000 C   0  0  0  0  0  0  0  0  0  0  0  0
    8.3094   -0.8472    0.0000 C   0  0  0  0  0  0  0  0  0  0  0  0
   10.5144   -3.0406    0.0000 C   0  0  0  0  0  0  0  0  0  0  0  0
    1.1721   -5.8723    0.0000 C   0  0  0  0  0  0  0  0  0  0  0  0
   11.6053   -3.0406    0.0000 O   0  0  0  0  0  0  0  0  0  0  0  0
    6.9980   -0.0232    0.0000 O   0  0  0  0  0  0  0  0  0  0  0  0
    0.0000   -6.5338    0.0000 O   0  0  0  0  0  0  0  0  0  0  0  0
    1.1721   -4.5144    0.0000 C   0  0  0  0  0  0  0  0  0  0  0  0
    3.5164   -3.1682    0.0000 C   0  0  0  0  0  0  0  0  0  0  0  0
    6.9980   -1.1257    0.0000 C   0  0  0  0  0  0  0  0  0  0  0  0
    4.6769   -7.5318    0.0000 C   0  0  0  0  0  0  0  0  0  0  0  0
    9.9689   -3.9922    0.0000 C   0  0  0  0  0  0  0  0  0  0  0  0
    9.4583    0.0000    0.0000 C   0  0  0  0  0  0  0  0  0  0  0  0
    5.8491   -3.1914    0.0000 H   0  0  0  0  0  0  0  0  0  0  0  0
    4.6769   -5.1643    0.0000 H   0  0  0  0  0  0  0  0  0  0  0  0
    6.9980   -5.1643    0.0000 H   0  0  0  0  0  0  0  0  0  0  0  0
  1  4  1  0  0  0  0
  1  6  1  0  0  0  0
  1 16  1  0  0  0  0
  1 24  1  1  0  0  0
  2 11  1  0  0  0  0
  2  3  1  0  0  0  0
  2 25  1  1  0  0  0
  2  7  1  0  0  0  0
  3 13  1  6  0  0  0
  3 17  1  1  0  0  0
  3 12  1  0  0  0  0
  4  9  2  0  0  0  0
  4 10  1  0  0  0  0
  5  6  1  0  0  0  0
  5  7  1  0  0  0  0
  5  8  1  0  0  0  0
  5 29  1  1  0  0  0
  6 14  1  0  0  0  0
  6 30  1  6  0  0  0
  7 15  1  0  0  0  0
  7 31  1  6  0  0  0
  8 10  1  0  0  0  0
  9 19  1  0  0  0  0
 10 26  1  6  0  0  0
 11 14  1  0  0  0  0
 12 15  1  0  0  0  0
 13 18  1  0  0  0  0
 16 23  1  0  0  0  0
 17 21  2  0  0  0  0
 17 28  1  0  0  0  0
 18 20  2  0  0  0  0
 18 27  1  0  0  0  0
 19 23  1  0  0  0  0
 19 22  2  0  0  0  0
M  END
> <ID>
4245

> <Formula>
C24H34O4

> <FW>
386.5244

> <DSSTox_CID>
5527

> <DSSTox_RID>
77819

> <DSSTox_GSID>
25527

> <DSSTox_FileID_Sort>
2502

> <TS_ChemName>
Medroxyprogesterone acetate

> <TS_ChemName_Synonyms>
Medroxyprogesterone 17-acetate (Medroxyprogesterone acetate) (MPA) (6alpha-Methyl-17alpha-hydroxyprogesterone acetate)

> <TS_CASRN>
71-58-9

> <CASRN_ChemName_Relationship>
primary

> <TS_Description>
single chemical compound

> <ChemNote>
stereochem

> <STRUCTURE_Shown>
tested chemical

> <STRUCTURE_Formula>
C24H34O4

> <STRUCTURE_MW>
386.5244

> <STRUCTURE_ChemType>
defined organic

> <STRUCTURE_DefinedOrganicForm>
parent

> <STRUCTURE_IUPAC>
(6alpha)-6-methyl-3,20-dioxopregn-4-en-17-yl acetate

> <STRUCTURE_SMILES>
CC(=O)[C@@]3(OC(C)=O)CC[C@H]2[C@@H]4C[C@H](C)C1=CC(=O)CC[C@]1(C)[C@H]4CC[C@@]23C

> <STRUCTURE_SMILES_Desalt>
CC(=O)[C@@]3(OC(C)=O)CC[C@H]2[C@@H]4C[C@H](C)C1=CC(=O)CC[C@]1(C)[C@H]4CC[C@@]23C

> <Substance_modify_yyyymmdd>
20080429

$$$$
