71-91-0
ChemmineR-0915142007XD

 10  8  0  0  0  0  0  0  0  0  2 V2000
    1.9992   -2.0183    0.0000 N    0  3  0  0  0  0  0  0  0  0  0  0
    1.9992   -3.3447    0.0000 C    0  0  0  0  0  0  0  0  0  0  0  0
    0.6585   -2.0183    0.0000 C    0  0  0  0  0  0  0  0  0  0  0  0
    3.3447   -2.0183    0.0000 C    0  0  0  0  0  0  0  0  0  0  0  0
    1.9992   -0.6585    0.0000 C    0  0  0  0  0  0  0  0  0  0  0  0
    0.8827   -4.0032    0.0000 C    0  0  0  0  0  0  0  0  0  0  0  0
    4.0032   -3.1396    0.0000 C    0  0  0  0  0  0  0  0  0  0  0  0
    3.1539    0.0000    0.0000 C    0  0  0  0  0  0  0  0  0  0  0  0
    0.0000   -0.8493    0.0000 C    0  0  0  0  0  0  0  0  0  0  0  0
    4.7714   -1.6318    0.0000 Br   0  5  0  0  0  0  0  0  0  0  0  0
  1  2  1  0  0  0  0
  1  3  1  0  0  0  0
  1  4  1  0  0  0  0
  1  5  1  0  0  0  0
  2  6  1  0  0  0  0
  3  9  1  0  0  0  0
  4  7  1  0  0  0  0
  5  8  1  0  0  0  0
M  END
> <ID>
10114

> <Formula>
C8H20BrN

> <FW>
210.1551 (130.2506+79.9045)

> <DSSTox_CID>
24457

> <DSSTox_RID>
80243

> <DSSTox_GSID>
44457

> <DSSTox_FileID_Sort>
4925

> <TS_ChemName>
Tetraethylammonium bromide

> <TS_ChemName_Synonyms>
Tetraethylammonium bromide (Ethanaminium, N,N,N-triethyl-, bromide)

> <TS_CASRN>
71-91-0

> <CASRN_ChemName_Relationship>
primary

> <TS_Description>
single chemical compound

> <ChemNote>
parent [66-40-0]

> <STRUCTURE_Shown>
tested chemical

> <STRUCTURE_Formula>
C8H20BrN

> <STRUCTURE_MW>
210.1551

> <STRUCTURE_ChemType>
defined organic

> <STRUCTURE_DefinedOrganicForm>
salt

> <STRUCTURE_IUPAC>
N,N,N-triethylethanaminium bromide

> <STRUCTURE_SMILES>
[Br-].CC[N+](CC)(CC)CC

> <STRUCTURE_SMILES_Desalt>
CC[N+](CC)(CC)CC

> <Substance_modify_yyyymmdd>
20091116

$$$$
