7104-38-3
ChemmineR-0915142007XD

 31 32  0  0  1  0  0  0  0  0  1 V2000
    3.4646   -3.2990    0.0000 N   0  0  0  0  0  0  0  0  0  0  0  0
    4.5982   -3.9740    0.0000 C   0  0  0  0  0  0  0  0  0  0  0  0
    3.4646   -5.9611    0.0000 S   0  0  0  0  0  0  0  0  0  0  0  0
    2.2927   -3.9740    0.0000 C   0  0  0  0  0  0  0  0  0  0  0  0
    4.5982   -5.3115    0.0000 C   0  0  0  0  0  0  0  0  0  0  0  0
    2.2927   -5.3115    0.0000 C   0  0  0  0  0  0  0  0  0  0  0  0
    3.4646   -1.9870    0.0000 C   0  0  0  0  0  0  0  0  0  0  0  0
    5.7318   -3.2990    0.0000 C   0  0  0  0  0  0  0  0  0  0  0  0
    4.6237   -1.3247    0.0000 C   0  0  0  0  0  0  0  0  0  0  0  0
    5.7318   -5.9611    0.0000 C   0  0  0  0  0  0  0  0  0  0  0  0
    6.9036   -3.9740    0.0000 C   0  0  0  0  0  0  0  0  0  0  0  0
    5.7445   -1.9870    0.0000 C   0  0  0  0  0  0  0  0  0  0  0  0
    6.9164   -1.3247    0.0000 N   0  0  0  0  0  0  0  0  0  0  0  0
    6.9036   -5.3115    0.0000 C   0  0  0  0  0  0  0  0  0  0  0  0
    1.1591   -3.2990    0.0000 C   0  0  0  0  0  0  0  0  0  0  0  0
    8.0373   -3.2990    0.0000 O   0  0  0  0  0  0  0  0  0  0  0  0
    1.1591   -5.9611    0.0000 C   0  0  0  0  0  0  0  0  0  0  0  0
    4.6237    0.0000    0.0000 C   0  0  0  0  0  0  0  0  0  0  0  0
    6.9164    0.0000    0.0000 C   0  0  0  0  0  0  0  0  0  0  0  0
    8.0500   -1.9870    0.0000 C   0  0  0  0  0  0  0  0  0  0  0  0
    9.1709   -3.9740    0.0000 C   0  0  0  0  0  0  0  0  0  0  0  0
    0.0000   -3.9740    0.0000 C   0  0  0  0  0  0  0  0  0  0  0  0
    0.0000   -5.3115    0.0000 C   0  0  0  0  0  0  0  0  0  0  0  0
   11.3872   -7.0183    0.0000 C   0  0  0  0  0  0  0  0  0  0  0  0
    8.6996   -7.0183    0.0000 C   0  0  0  0  0  0  0  0  0  0  0  0
    9.3492   -5.8719    0.0000 C   0  0  0  0  0  0  0  0  0  0  0  0
   10.7376   -5.8719    0.0000 C   0  0  0  0  0  0  0  0  0  0  0  0
   10.7376   -8.1774    0.0000 O   0  0  0  0  0  0  0  0  0  0  0  0
    9.3492   -8.1774    0.0000 O   0  0  0  0  0  0  0  0  0  0  0  0
   12.7373   -7.0437    0.0000 O   0  0  0  0  0  0  0  0  0  0  0  0
    7.3494   -7.0437    0.0000 O   0  0  0  0  0  0  0  0  0  0  0  0
  1  2  1  0  0  0  0
  1  4  1  0  0  0  0
  1  7  1  0  0  0  0
  2  5  2  0  0  0  0
  2  8  1  0  0  0  0
  3  6  1  0  0  0  0
  3  5  1  0  0  0  0
  4  6  2  0  0  0  0
  4 15  1  0  0  0  0
  5 10  1  0  0  0  0
  6 17  1  0  0  0  0
  7  9  1  0  0  0  0
  8 11  2  0  0  0  0
  9 12  1  0  0  0  0
  9 18  1  6  0  0  0
 10 14  2  0  0  0  0
 11 14  1  0  0  0  0
 11 16  1  0  0  0  0
 12 13  1  0  0  0  0
 13 19  1  0  0  0  0
 13 20  1  0  0  0  0
 15 22  2  0  0  0  0
 16 21  1  0  0  0  0
 17 23  2  0  0  0  0
 22 23  1  0  0  0  0
 24 27  1  0  0  0  0
 24 28  2  0  0  0  0
 24 30  1  0  0  0  0
 25 26  1  0  0  0  0
 25 29  2  0  0  0  0
 25 31  1  0  0  0  0
 26 27  2  0  0  0  0
M  END
> <ID>
10924

> <Formula>
C23H28N2O5S

> <FW>
444.5438 (328.4717+116.0722)

> <DSSTox_CID>
25399

> <DSSTox_RID>
80853

> <DSSTox_GSID>
45399

> <DSSTox_FileID_Sort>
5534

> <TS_ChemName>
Methotrimeprazine maleate

> <TS_ChemName_Synonyms>


> <TS_CASRN>
7104-38-3

> <CASRN_ChemName_Relationship>
primary

> <TS_Description>
single chemical compound

> <ChemNote>
stereochem; parent ([60-99-1]

> <STRUCTURE_Shown>
tested chemical

> <STRUCTURE_Formula>
C23H28N2O5S

> <STRUCTURE_MW>
444.5438

> <STRUCTURE_ChemType>
defined organic

> <STRUCTURE_DefinedOrganicForm>
complex

> <STRUCTURE_IUPAC>
(2R)-3-(2-methoxy-10H-phenothiazin-10-yl)-N,N,2-trimethylpropan-1-amine (2Z)-but-2-enedioate (1:1)

> <STRUCTURE_SMILES>
O=C(O)/C=C\C(=O)O.CN(C)C[C@@H](C)CN1c3ccccc3Sc2ccc(OC)cc12

> <STRUCTURE_SMILES_Desalt>
CN(C)C[C@@H](C)CN1c3ccccc3Sc2ccc(OC)cc12

> <Substance_modify_yyyymmdd>
20100107

$$$$
