71109-09-6
ChemmineR-0915142007XD

 21 23  0  0  0  0  0  0  0  0  1 V2000
    4.5806   -6.6419    0.0000 C   0  0  0  0  0  0  0  0  0  0  0  0
    5.7756   -5.9747    0.0000 C   0  0  0  0  0  0  0  0  0  0  0  0
    5.7756   -4.6404    0.0000 C   0  0  0  0  0  0  0  0  0  0  0  0
    4.5806   -3.9832    0.0000 C   0  0  0  0  0  0  0  0  0  0  0  0
    3.4554   -5.9747    0.0000 C   0  0  0  0  0  0  0  0  0  0  0  0
    3.4554   -4.6404    0.0000 C   0  0  0  0  0  0  0  0  0  0  0  0
    2.3202   -3.9832    0.0000 C   0  0  0  0  0  0  0  0  0  0  0  0
    1.1651   -4.6404    0.0000 C   0  0  0  0  0  0  0  0  0  0  0  0
    1.1651   -5.9747    0.0000 C   0  0  0  0  0  0  0  0  0  0  0  0
    2.3202   -6.6419    0.0000 C   0  0  0  0  0  0  0  0  0  0  0  0
    2.3202   -2.6588    0.0000 C   0  0  0  0  0  0  0  0  0  0  0  0
    3.4554   -2.0215    0.0000 C   0  0  0  0  0  0  0  0  0  0  0  0
    3.4554   -0.6572    0.0000 C   0  0  0  0  0  0  0  0  0  0  0  0
    2.3202    0.0000    0.0000 C   0  0  0  0  0  0  0  0  0  0  0  0
    1.1651   -0.6572    0.0000 C   0  0  0  0  0  0  0  0  0  0  0  0
    1.1651   -2.0215    0.0000 C   0  0  0  0  0  0  0  0  0  0  0  0
    2.3202   -7.9763    0.0000 C   0  0  0  0  0  0  0  0  0  0  0  0
    3.4554   -8.6335    0.0000 C   0  0  0  0  0  0  0  0  0  0  0  0
    1.1651   -8.6335    0.0000 C   0  0  0  0  0  0  0  0  0  0  0  0
    1.1651   -9.9579    0.0000 O   0  0  0  0  0  0  0  0  0  0  0  0
    0.0000   -7.9763    0.0000 O   0  0  0  0  0  0  0  0  0  0  0  0
  1  2  2  0  0  0  0
  1  5  1  0  0  0  0
  2  3  1  0  0  0  0
  3  4  2  0  0  0  0
  4  6  1  0  0  0  0
  5 10  1  0  0  0  0
  5  6  2  0  0  0  0
  6  7  1  0  0  0  0
  7 11  1  0  0  0  0
  7  8  2  0  0  0  0
  8  9  1  0  0  0  0
  9 10  2  0  0  0  0
 10 17  1  0  0  0  0
 11 12  1  0  0  0  0
 11 16  1  0  0  0  0
 12 13  1  0  0  0  0
 13 14  1  0  0  0  0
 14 15  1  0  0  0  0
 15 16  1  0  0  0  0
 17 18  1  0  0  0  0
 17 19  1  0  0  0  0
 19 20  1  0  0  0  0
 19 21  2  0  0  0  0
M  END
> <ID>
14061

> <Formula>
C19H22O2

> <FW>
282.3768

> <DSSTox_CID>
29003

> <DSSTox_RID>
83268

> <DSSTox_GSID>
49077

> <DSSTox_FileID_Sort>
7943

> <TS_ChemName>
Quadrisol

> <TS_ChemName_Synonyms>


> <TS_CASRN>
71109-09-6

> <CASRN_ChemName_Relationship>
primary

> <TS_Description>
single chemical compound

> <ChemNote>


> <STRUCTURE_Shown>
tested chemical

> <STRUCTURE_Formula>
C19H22O2

> <STRUCTURE_MW>
282.3768

> <STRUCTURE_ChemType>
defined organic

> <STRUCTURE_DefinedOrganicForm>
parent

> <STRUCTURE_IUPAC>
2-(4-cyclohexylnaphthalen-1-yl)propanoic acid

> <STRUCTURE_SMILES>
O=C(O)C(C)c2ccc(c1ccccc12)C3CCCCC3

> <STRUCTURE_SMILES_Desalt>
O=C(O)C(C)c2ccc(c1ccccc12)C3CCCCC3

> <Substance_modify_yyyymmdd>
20111204

$$$$
