71119-11-4
ChemmineR-0915142007XD

 27 29  0  0  0  0  0  0  0  0  1 V2000
    2.1989   -4.7666    0.0000 C   0  0  0  0  0  0  0  0  0  0  0  0
    3.2779   -3.9744    0.0000 C   0  0  0  0  0  0  0  0  0  0  0  0
    2.6087   -6.0368    0.0000 C   0  0  0  0  0  0  0  0  0  0  0  0
    0.9014   -4.5071    0.0000 C   0  0  0  0  0  0  0  0  0  0  0  0
    3.2779   -2.6633    0.0000 C   0  0  0  0  0  0  0  0  0  0  0  0
    4.3569   -4.7666    0.0000 C   0  0  0  0  0  0  0  0  0  0  0  0
    3.9335   -6.0368    0.0000 N   0  0  0  0  0  0  0  0  0  0  0  0
    1.7209   -7.0338    0.0000 C   0  0  0  0  0  0  0  0  0  0  0  0
    0.0000   -5.4768    0.0000 C   0  0  0  0  0  0  0  0  0  0  0  0
    4.4251   -1.9667    0.0000 C   0  0  0  0  0  0  0  0  0  0  0  0
    0.3961   -6.7470    0.0000 C   0  0  0  0  0  0  0  0  0  0  0  0
    5.5861   -1.3248    0.0000 N   0  0  0  0  0  0  0  0  0  0  0  0
    6.7333   -1.9667    0.0000 C   0  0  0  0  0  0  0  0  0  0  0  0
    7.8942   -1.3248    0.0000 C   0  0  0  0  0  0  0  0  0  0  0  0
    9.0415   -1.9667    0.0000 C   0  0  0  0  0  0  0  0  0  0  0  0
    7.8942    0.0000    0.0000 O   0  0  0  0  0  0  0  0  0  0  0  0
   10.2024   -1.3248    0.0000 O   0  0  0  0  0  0  0  0  0  0  0  0
   11.3497   -1.9667    0.0000 C   0  0  0  0  0  0  0  0  0  0  0  0
   11.3497   -3.3189    0.0000 C   0  0  0  0  0  0  0  0  0  0  0  0
   12.4970   -1.3248    0.0000 C   0  0  0  0  0  0  0  0  0  0  0  0
   12.4970   -3.9744    0.0000 C   0  0  0  0  0  0  0  0  0  0  0  0
   10.2024   -3.9744    0.0000 C   0  0  0  0  0  0  0  0  0  0  0  0
   13.6579   -1.9667    0.0000 C   0  0  0  0  0  0  0  0  0  0  0  0
   13.6579   -3.3189    0.0000 C   0  0  0  0  0  0  0  0  0  0  0  0
    9.0415   -4.6573    0.0000 N   0  0  0  0  0  0  0  0  0  0  0  0
    5.1080   -3.1413    0.0000 C   0  0  0  0  0  0  0  0  0  0  0  0
    3.7696   -0.8468    0.0000 C   0  0  0  0  0  0  0  0  0  0  0  0
  1  2  1  0  0  0  0
  1  3  2  0  0  0  0
  1  4  1  0  0  0  0
  2  5  1  0  0  0  0
  2  6  2  0  0  0  0
  3  7  1  0  0  0  0
  3  8  1  0  0  0  0
  4  9  2  0  0  0  0
  5 10  1  0  0  0  0
  6  7  1  0  0  0  0
  8 11  2  0  0  0  0
  9 11  1  0  0  0  0
 10 12  1  0  0  0  0
 10 26  1  0  0  0  0
 10 27  1  0  0  0  0
 12 13  1  0  0  0  0
 13 14  1  0  0  0  0
 14 15  1  0  0  0  0
 14 16  1  0  0  0  0
 15 17  1  0  0  0  0
 17 18  1  0  0  0  0
 18 19  2  0  0  0  0
 18 20  1  0  0  0  0
 19 21  1  0  0  0  0
 19 22  1  0  0  0  0
 20 23  2  0  0  0  0
 21 24  2  0  0  0  0
 22 25  3  0  0  0  0
 23 24  1  0  0  0  0
M  END
> <ID>
11936

> <Formula>
C22H25N3O2

> <FW>
363.4528

> <DSSTox_CID>
26744

> <DSSTox_RID>
81872

> <DSSTox_GSID>
46744

> <DSSTox_FileID_Sort>
6553

> <TS_ChemName>
Bucindolol

> <TS_ChemName_Synonyms>


> <TS_CASRN>
71119-11-4

> <CASRN_ChemName_Relationship>
primary

> <TS_Description>
single chemical compound

> <ChemNote>


> <STRUCTURE_Shown>
tested chemical

> <STRUCTURE_Formula>
C22H25N3O2

> <STRUCTURE_MW>
363.4528

> <STRUCTURE_ChemType>
defined organic

> <STRUCTURE_DefinedOrganicForm>
parent

> <STRUCTURE_IUPAC>
2-(2-hydroxy-3-{[1-(1H-indol-3-yl)-2-methylpropan-2-yl]amino}propoxy)benzonitrile

> <STRUCTURE_SMILES>
N#Cc3ccccc3OCC(O)CNC(C)(C)Cc2cnc1ccccc12

> <STRUCTURE_SMILES_Desalt>
N#Cc3ccccc3OCC(O)CNC(C)(C)Cc2cnc1ccccc12

> <Substance_modify_yyyymmdd>
20110803

$$$$
