71125-38-7
ChemmineR-0915142007XD

 23 25  0  0  0  0  0  0  0  0  1 V2000
    2.2743   -2.3657    0.0000 C   0  0  0  0  0  0  0  0  0  0  0  0
    2.2743   -3.7143    0.0000 C   0  0  0  0  0  0  0  0  0  0  0  0
    3.4057   -1.7028    0.0000 C   0  0  0  0  0  0  0  0  0  0  0  0
    1.0857   -1.7028    0.0000 C   0  0  0  0  0  0  0  0  0  0  0  0
    3.4057   -4.4228    0.0000 S   0  0  0  0  0  0  0  0  0  0  0  0
    1.0857   -4.3771    0.0000 C   0  0  0  0  0  0  0  0  0  0  0  0
    4.5600   -2.3657    0.0000 C   0  0  0  0  0  0  0  0  0  0  0  0
    3.4057   -0.3429    0.0000 O   0  0  0  0  0  0  0  0  0  0  0  0
    0.0000   -2.3657    0.0000 C   0  0  0  0  0  0  0  0  0  0  0  0
    4.5600   -3.7600    0.0000 N   0  0  0  0  0  0  0  0  0  0  0  0
    4.0228   -5.5543    0.0000 O   0  0  0  0  0  0  0  0  0  0  0  0
    2.7200   -5.5543    0.0000 O   0  0  0  0  0  0  0  0  0  0  0  0
    0.0000   -3.7143    0.0000 C   0  0  0  0  0  0  0  0  0  0  0  0
    5.7371   -1.7028    0.0000 C   0  0  0  0  0  0  0  0  0  0  0  0
    5.7371   -4.3771    0.0000 C   0  0  0  0  0  0  0  0  0  0  0  0
    6.9142   -2.3657    0.0000 N   0  0  0  0  0  0  0  0  0  0  0  0
    5.7371   -0.3429    0.0000 O   0  0  0  0  0  0  0  0  0  0  0  0
    8.0571   -1.7028    0.0000 C   0  0  0  0  0  0  0  0  0  0  0  0
    8.0685   -0.3657    0.0000 N   0  0  0  0  0  0  0  0  0  0  0  0
    9.2799   -2.1028    0.0000 S   0  0  0  0  0  0  0  0  0  0  0  0
    9.3142    0.0000    0.0000 C   0  0  0  0  0  0  0  0  0  0  0  0
   10.1142   -1.0629    0.0000 C   0  0  0  0  0  0  0  0  0  0  0  0
   11.4285   -1.0286    0.0000 C   0  0  0  0  0  0  0  0  0  0  0  0
  1  2  2  0  0  0  0
  1  3  1  0  0  0  0
  1  4  1  0  0  0  0
  2  5  1  0  0  0  0
  2  6  1  0  0  0  0
  3  7  2  0  0  0  0
  3  8  1  0  0  0  0
  4  9  2  0  0  0  0
  5 10  1  0  0  0  0
  5 11  2  0  0  0  0
  5 12  2  0  0  0  0
  6 13  2  0  0  0  0
  7 14  1  0  0  0  0
  7 10  1  0  0  0  0
  9 13  1  0  0  0  0
 10 15  1  0  0  0  0
 14 16  1  0  0  0  0
 14 17  2  0  0  0  0
 16 18  1  0  0  0  0
 18 19  2  0  0  0  0
 18 20  1  0  0  0  0
 19 21  1  0  0  0  0
 20 22  1  0  0  0  0
 21 22  2  0  0  0  0
 22 23  1  0  0  0  0
M  END
> <ID>
769

> <Formula>
C14H13N3O4S2

> <FW>
351.4007

> <DSSTox_CID>
803

> <DSSTox_RID>
75796

> <DSSTox_GSID>
20803

> <DSSTox_FileID_Sort>
480

> <TS_ChemName>
Meloxicam

> <TS_ChemName_Synonyms>


> <TS_CASRN>
71125-38-7

> <CASRN_ChemName_Relationship>
primary

> <TS_Description>
single chemical compound

> <ChemNote>


> <STRUCTURE_Shown>
tested chemical

> <STRUCTURE_Formula>
C14H13N3O4S2

> <STRUCTURE_MW>
351.4007

> <STRUCTURE_ChemType>
defined organic

> <STRUCTURE_DefinedOrganicForm>
parent

> <STRUCTURE_IUPAC>
4-hydroxy-2-methyl-N-(5-methyl-1,3-thiazol-2-yl)-2H-1,2-benzothiazine-3-carboxamide 1,1-dioxide

> <STRUCTURE_SMILES>
Cc3cnc(NC(=O)C2=C(O)c1ccccc1S(=O)(=O)N2C)s3

> <STRUCTURE_SMILES_Desalt>
Cc3cnc(NC(=O)C2=C(O)c1ccccc1S(=O)(=O)N2C)s3

> <Substance_modify_yyyymmdd>
20080429

$$$$
