71133-14-7
ChemmineR-0915142007XD

  7  6  0  0  0  0  0  0  0  0  1 V2000
    0.6724   -1.3282    0.0000 C    0  0  0  0  0  0  0  0  0  0  0  0
    0.0000   -0.1764    0.0000 O    0  0  0  0  0  0  0  0  0  0  0  0
    0.0000   -2.4799    0.0000 O    0  0  0  0  0  0  0  0  0  0  0  0
    2.0006   -1.3282    0.0000 C    0  0  0  0  0  0  0  0  0  0  0  0
    2.0006   -2.6563    0.0000 Br   0  0  0  0  0  0  0  0  0  0  0  0
    2.0006    0.0000    0.0000 Cl   0  0  0  0  0  0  0  0  0  0  0  0
    3.3287   -1.3282    0.0000 Cl   0  0  0  0  0  0  0  0  0  0  0  0
  1  2  2  0  0  0  0
  1  3  1  0  0  0  0
  1  4  1  0  0  0  0
  4  5  1  0  0  0  0
  4  6  1  0  0  0  0
  4  7  1  0  0  0  0
M  END
> <ID>
3785

> <Formula>
C2HBrCl2O2

> <FW>
207.8381

> <DSSTox_CID>
4644

> <DSSTox_RID>
77482

> <DSSTox_GSID>
24644

> <DSSTox_FileID_Sort>
2165

> <TS_ChemName>
Bromodichloroacetic acid

> <TS_ChemName_Synonyms>


> <TS_CASRN>
71133-14-7

> <CASRN_ChemName_Relationship>
primary

> <TS_Description>
single chemical compound

> <ChemNote>


> <STRUCTURE_Shown>
tested chemical

> <STRUCTURE_Formula>
C2HBrCl2O2

> <STRUCTURE_MW>
207.8381

> <STRUCTURE_ChemType>
defined organic

> <STRUCTURE_DefinedOrganicForm>
parent

> <STRUCTURE_IUPAC>
bromo(dichloro)acetic acid

> <STRUCTURE_SMILES>
BrC(Cl)(Cl)C(=O)O

> <STRUCTURE_SMILES_Desalt>
BrC(Cl)(Cl)C(=O)O

> <Substance_modify_yyyymmdd>
20080429

$$$$
