712-50-5
ChemmineR-0915142007XD

 14 15  0  0  0  0  0  0  0  0  1 V2000
    2.3066   -2.0027    0.0000 C   0  0  0  0  0  0  0  0  0  0  0  0
    2.3066   -3.3356    0.0000 C   0  0  0  0  0  0  0  0  0  0  0  0
    1.1533   -1.3328    0.0000 C   0  0  0  0  0  0  0  0  0  0  0  0
    1.1533   -3.9916    0.0000 C   0  0  0  0  0  0  0  0  0  0  0  0
    0.0000   -2.0027    0.0000 C   0  0  0  0  0  0  0  0  0  0  0  0
    0.0000   -3.3356    0.0000 C   0  0  0  0  0  0  0  0  0  0  0  0
    3.4599   -1.3328    0.0000 C   0  0  0  0  0  0  0  0  0  0  0  0
    4.6132   -1.9889    0.0000 C   0  0  0  0  0  0  0  0  0  0  0  0
    5.7664   -1.3328    0.0000 C   0  0  0  0  0  0  0  0  0  0  0  0
    4.6132   -3.3356    0.0000 C   0  0  0  0  0  0  0  0  0  0  0  0
    6.9059   -2.0027    0.0000 C   0  0  0  0  0  0  0  0  0  0  0  0
    5.7664   -3.9916    0.0000 C   0  0  0  0  0  0  0  0  0  0  0  0
    6.9059   -3.3356    0.0000 C   0  0  0  0  0  0  0  0  0  0  0  0
    3.4599    0.0000    0.0000 O   0  0  0  0  0  0  0  0  0  0  0  0
  1  2  1  0  0  0  0
  1  3  2  0  0  0  0
  1  7  1  0  0  0  0
  2  4  2  0  0  0  0
  3  5  1  0  0  0  0
  4  6  1  0  0  0  0
  5  6  2  0  0  0  0
  7  8  1  0  0  0  0
  7 14  2  0  0  0  0
  8  9  1  0  0  0  0
  8 10  1  0  0  0  0
  9 11  1  0  0  0  0
 10 12  1  0  0  0  0
 11 13  1  0  0  0  0
 12 13  1  0  0  0  0
M  END
> <ID>
13243

> <Formula>
C13H16O

> <FW>
188.2655

> <DSSTox_CID>
28156

> <DSSTox_RID>
82718

> <DSSTox_GSID>
48182

> <DSSTox_FileID_Sort>
7395

> <TS_ChemName>
Cyclohexylphenylketone

> <TS_ChemName_Synonyms>


> <TS_CASRN>
712-50-5

> <CASRN_ChemName_Relationship>
primary

> <TS_Description>
single chemical compound

> <ChemNote>


> <STRUCTURE_Shown>
tested chemical

> <STRUCTURE_Formula>
C13H16O

> <STRUCTURE_MW>
188.2655

> <STRUCTURE_ChemType>
defined organic

> <STRUCTURE_DefinedOrganicForm>
parent

> <STRUCTURE_IUPAC>
cyclohexyl(phenyl)methanone

> <STRUCTURE_SMILES>
O=C(c1ccccc1)C2CCCCC2

> <STRUCTURE_SMILES_Desalt>
O=C(c1ccccc1)C2CCCCC2

> <Substance_modify_yyyymmdd>
20110618

$$$$
