71283-80-2
ChemmineR-0915142007XD

 25 27  0  0  1  0  0  0  0  0  1 V2000
    9.5063   -8.2491    0.0000 C    0  0  0  0  0  0  0  0  0  0  0  0
    8.8392   -7.0945    0.0000 C    0  0  0  0  0  0  0  0  0  0  0  0
    7.5050   -7.0945    0.0000 C    0  0  0  0  0  0  0  0  0  0  0  0
    8.8392   -9.3909    0.0000 O    0  0  0  0  0  0  0  0  0  0  0  0
   10.8406   -8.2491    0.0000 O    0  0  0  0  0  0  0  0  0  0  0  0
    9.5063   -5.9399    0.0000 O    0  0  0  0  0  0  0  0  0  0  0  0
    8.8392   -4.7724    0.0000 C    0  0  0  0  0  0  0  0  0  0  0  0
    7.5050   -4.7724    0.0000 C    0  0  0  0  0  0  0  0  0  0  0  0
    9.5063   -3.6306    0.0000 C    0  0  0  0  0  0  0  0  0  0  0  0
    6.8507   -3.6306    0.0000 C    0  0  0  0  0  0  0  0  0  0  0  0
    8.8392   -2.4760    0.0000 C    0  0  0  0  0  0  0  0  0  0  0  0
    7.5050   -2.4760    0.0000 C    0  0  0  0  0  0  0  0  0  0  0  0
    6.8507   -1.3214    0.0000 O    0  0  0  0  0  0  0  0  0  0  0  0
    4.7211   -0.2566    0.0000 N    0  0  0  0  0  0  0  0  0  0  0  0
    5.5165   -1.3214    0.0000 C    0  0  0  0  0  0  0  0  0  0  0  0
    4.7211   -2.3990    0.0000 O    0  0  0  0  0  0  0  0  0  0  0  0
    3.4510   -0.6671    0.0000 C    0  0  0  0  0  0  0  0  0  0  0  0
    3.4510   -2.0013    0.0000 C    0  0  0  0  0  0  0  0  0  0  0  0
    2.3092   -2.6556    0.0000 C    0  0  0  0  0  0  0  0  0  0  0  0
    1.1546   -2.0013    0.0000 C    0  0  0  0  0  0  0  0  0  0  0  0
    1.1546   -0.6671    0.0000 C    0  0  0  0  0  0  0  0  0  0  0  0
    2.3092    0.0000    0.0000 C    0  0  0  0  0  0  0  0  0  0  0  0
    0.0000   -2.6556    0.0000 Cl   0  0  0  0  0  0  0  0  0  0  0  0
   11.4948   -9.3909    0.0000 C    0  0  0  0  0  0  0  0  0  0  0  0
   12.8291   -9.3909    0.0000 C    0  0  0  0  0  0  0  0  0  0  0  0
  1  2  1  0  0  0  0
  1  5  1  0  0  0  0
  1  4  2  0  0  0  0
  2  3  1  1  0  0  0
  2  6  1  0  0  0  0
  5 24  1  0  0  0  0
  6  7  1  0  0  0  0
  7  8  2  0  0  0  0
  7  9  1  0  0  0  0
  8 10  1  0  0  0  0
  9 11  2  0  0  0  0
 10 12  2  0  0  0  0
 11 12  1  0  0  0  0
 12 13  1  0  0  0  0
 13 15  1  0  0  0  0
 14 15  2  0  0  0  0
 14 17  1  0  0  0  0
 15 16  1  0  0  0  0
 16 18  1  0  0  0  0
 17 18  2  0  0  0  0
 17 22  1  0  0  0  0
 18 19  1  0  0  0  0
 19 20  2  0  0  0  0
 20 21  1  0  0  0  0
 20 23  1  0  0  0  0
 21 22  2  0  0  0  0
 24 25  1  0  0  0  0
M  END
> <ID>
6841

> <Formula>
C18H16ClNO5

> <FW>
361.7763

> <DSSTox_CID>
14598

> <DSSTox_RID>
79174

> <DSSTox_GSID>
34598

> <DSSTox_FileID_Sort>
3856

> <TS_ChemName>
Fenoxaprop-P-ethyl

> <TS_ChemName_Synonyms>
Fenoxaprop-P-ethyl (Propanoic acid, 2-{4-{(6-chloro-2-benzoxazolyl)oxy}phenoxy}-, ethyl ester, (R)-)

> <TS_CASRN>
71283-80-2

> <CASRN_ChemName_Relationship>
primary

> <TS_Description>
single chemical compound

> <ChemNote>
stereochem

> <STRUCTURE_Shown>
tested chemical

> <STRUCTURE_Formula>
C18H16ClNO5

> <STRUCTURE_MW>
361.7763

> <STRUCTURE_ChemType>
defined organic

> <STRUCTURE_DefinedOrganicForm>
parent

> <STRUCTURE_IUPAC>
ethyl (2R)-2-{4-[(6-chloro-1,3-benzoxazol-2-yl)oxy]phenoxy}propanoate

> <STRUCTURE_SMILES>
O=C(OCC)[C@@H](C)Oc1ccc(cc1)Oc2nc3ccc(Cl)cc3o2

> <STRUCTURE_SMILES_Desalt>
O=C(OCC)[C@@H](C)Oc1ccc(cc1)Oc2nc3ccc(Cl)cc3o2

> <Substance_modify_yyyymmdd>
20080429

$$$$
