71320-77-9
ChemmineR-0915142007XD

 18 19  0  0  0  0  0  0  0  0  1 V2000
    6.8972   -0.6768    0.0000 C    0  0  0  0  0  0  0  0  0  0  0  0
    2.2964   -0.6768    0.0000 N    0  0  0  0  0  0  0  0  0  0  0  0
    6.8972   -2.0063    0.0000 C    0  0  0  0  0  0  0  0  0  0  0  0
    8.0575    0.0000    0.0000 O    0  0  0  0  0  0  0  0  0  0  0  0
    5.7450   -0.0081    0.0000 N    0  0  0  0  0  0  0  0  0  0  0  0
    0.0000   -2.0063    0.0000 O    0  0  0  0  0  0  0  0  0  0  0  0
    5.7450   -2.6670    0.0000 C    0  0  0  0  0  0  0  0  0  0  0  0
    8.0494   -2.6670    0.0000 C    0  0  0  0  0  0  0  0  0  0  0  0
    6.8972   -4.6653    0.0000 C    0  0  0  0  0  0  0  0  0  0  0  0
    8.0494   -3.9965    0.0000 C    0  0  0  0  0  0  0  0  0  0  0  0
    5.7450   -3.9965    0.0000 C    0  0  0  0  0  0  0  0  0  0  0  0
    6.8972   -5.9948    0.0000 Cl   0  0  0  0  0  0  0  0  0  0  0  0
    4.6008   -0.6768    0.0000 C    0  0  0  0  0  0  0  0  0  0  0  0
    3.4486   -0.0081    0.0000 C    0  0  0  0  0  0  0  0  0  0  0  0
    2.2964   -2.0063    0.0000 C    0  0  0  0  0  0  0  0  0  0  0  0
    1.1522   -0.0081    0.0000 C    0  0  0  0  0  0  0  0  0  0  0  0
    0.0000   -0.6768    0.0000 C    0  0  0  0  0  0  0  0  0  0  0  0
    1.1522   -2.6670    0.0000 C    0  0  0  0  0  0  0  0  0  0  0  0
  1  3  1  0  0  0  0
  1  4  2  0  0  0  0
  1  5  1  0  0  0  0
  2 14  1  0  0  0  0
  2 15  1  0  0  0  0
  2 16  1  0  0  0  0
  3  7  2  0  0  0  0
  3  8  1  0  0  0  0
  5 13  1  0  0  0  0
  6 17  1  0  0  0  0
  6 18  1  0  0  0  0
  7 11  1  0  0  0  0
  8 10  2  0  0  0  0
  9 10  1  0  0  0  0
  9 12  1  0  0  0  0
  9 11  2  0  0  0  0
 13 14  1  0  0  0  0
 15 18  1  0  0  0  0
 16 17  1  0  0  0  0
M  END
> <ID>
7801

> <Formula>
C13H17ClN2O2

> <FW>
268.7393

> <DSSTox_CID>
20554

> <DSSTox_RID>
79506

> <DSSTox_GSID>
40554

> <DSSTox_FileID_Sort>
4188

> <TS_ChemName>
Moclobemide

> <TS_ChemName_Synonyms>


> <TS_CASRN>
71320-77-9

> <CASRN_ChemName_Relationship>
primary

> <TS_Description>
single chemical compound

> <ChemNote>


> <STRUCTURE_Shown>
tested chemical

> <STRUCTURE_Formula>
C13H17ClN2O2

> <STRUCTURE_MW>
268.7393

> <STRUCTURE_ChemType>
defined organic

> <STRUCTURE_DefinedOrganicForm>
parent

> <STRUCTURE_IUPAC>
4-chloro-N-[2-(morpholin-4-yl)ethyl]benzamide

> <STRUCTURE_SMILES>
Clc1ccc(cc1)C(=O)NCCN2CCOCC2

> <STRUCTURE_SMILES_Desalt>
Clc1ccc(cc1)C(=O)NCCN2CCOCC2

> <Substance_modify_yyyymmdd>
20080429

$$$$
