71422-67-8
ChemmineR-0915142007XD

 34 36  0  0  0  0  0  0  0  0  1 V2000
    3.4742   -2.6618    0.0000 C    0  0  0  0  0  0  0  0  0  0  0  0
    3.4742   -3.9928    0.0000 O    0  0  0  0  0  0  0  0  0  0  0  0
    2.3161   -2.0050    0.0000 C    0  0  0  0  0  0  0  0  0  0  0  0
    2.3161   -0.6741    0.0000 C    0  0  0  0  0  0  0  0  0  0  0  0
    1.1581   -2.6618    0.0000 C    0  0  0  0  0  0  0  0  0  0  0  0
    1.1581    0.0000    0.0000 C    0  0  0  0  0  0  0  0  0  0  0  0
    0.0000   -2.0050    0.0000 C    0  0  0  0  0  0  0  0  0  0  0  0
    0.0000   -0.6741    0.0000 C    0  0  0  0  0  0  0  0  0  0  0  0
    4.5977   -2.0050    0.0000 N    0  0  0  0  0  0  0  0  0  0  0  0
    5.7558   -2.6618    0.0000 C    0  0  0  0  0  0  0  0  0  0  0  0
    5.7558   -3.9928    0.0000 O    0  0  0  0  0  0  0  0  0  0  0  0
    6.9139   -1.9877    0.0000 N    0  0  0  0  0  0  0  0  0  0  0  0
    8.0547   -2.6618    0.0000 C    0  0  0  0  0  0  0  0  0  0  0  0
    9.2127   -2.0050    0.0000 C    0  0  0  0  0  0  0  0  0  0  0  0
    8.0547   -3.9928    0.0000 C    0  0  0  0  0  0  0  0  0  0  0  0
   10.3708   -2.6791    0.0000 C    0  0  0  0  0  0  0  0  0  0  0  0
    9.2127   -4.6496    0.0000 C    0  0  0  0  0  0  0  0  0  0  0  0
   10.3708   -3.9928    0.0000 C    0  0  0  0  0  0  0  0  0  0  0  0
   11.5116   -2.0050    0.0000 Cl   0  0  0  0  0  0  0  0  0  0  0  0
    9.2127   -5.9805    0.0000 Cl   0  0  0  0  0  0  0  0  0  0  0  0
   11.5289   -4.6496    0.0000 O    0  0  0  0  0  0  0  0  0  0  0  0
   12.6697   -2.6791    0.0000 N    0  0  0  0  0  0  0  0  0  0  0  0
   13.8105   -2.0050    0.0000 C    0  0  0  0  0  0  0  0  0  0  0  0
   12.6697   -4.0100    0.0000 C    0  0  0  0  0  0  0  0  0  0  0  0
   13.8105   -4.6669    0.0000 C    0  0  0  0  0  0  0  0  0  0  0  0
   14.9685   -2.6791    0.0000 C    0  0  0  0  0  0  0  0  0  0  0  0
   14.9685   -4.0100    0.0000 C    0  0  0  0  0  0  0  0  0  0  0  0
   13.8277   -5.9805    0.0000 Cl   0  0  0  0  0  0  0  0  0  0  0  0
   16.1266   -2.0050    0.0000 C    0  0  0  0  0  0  0  0  0  0  0  0
   15.4525   -0.8469    0.0000 F    0  0  0  0  0  0  0  0  0  0  0  0
   16.7834   -3.1631    0.0000 F    0  0  0  0  0  0  0  0  0  0  0  0
   17.2847   -1.3309    0.0000 F    0  0  0  0  0  0  0  0  0  0  0  0
    3.4742    0.0000    0.0000 F    0  0  0  0  0  0  0  0  0  0  0  0
    1.1581   -3.9928    0.0000 F    0  0  0  0  0  0  0  0  0  0  0  0
  1  2  2  0  0  0  0
  1  3  1  0  0  0  0
  1  9  1  0  0  0  0
  3  4  2  0  0  0  0
  3  5  1  0  0  0  0
  4  6  1  0  0  0  0
  4 33  1  0  0  0  0
  5  7  2  0  0  0  0
  5 34  1  0  0  0  0
  6  8  2  0  0  0  0
  7  8  1  0  0  0  0
  9 10  1  0  0  0  0
 10 11  2  0  0  0  0
 10 12  1  0  0  0  0
 12 13  1  0  0  0  0
 13 14  2  0  0  0  0
 13 15  1  0  0  0  0
 14 16  1  0  0  0  0
 15 17  2  0  0  0  0
 16 18  2  0  0  0  0
 16 19  1  0  0  0  0
 17 18  1  0  0  0  0
 17 20  1  0  0  0  0
 18 21  1  0  0  0  0
 21 24  1  0  0  0  0
 22 23  1  0  0  0  0
 22 24  2  0  0  0  0
 23 26  2  0  0  0  0
 24 25  1  0  0  0  0
 25 27  2  0  0  0  0
 25 28  1  0  0  0  0
 26 27  1  0  0  0  0
 26 29  1  0  0  0  0
 29 30  1  0  0  0  0
 29 31  1  0  0  0  0
 29 32  1  0  0  0  0
M  END
> <ID>
8724

> <Formula>
C20H9Cl3F5N3O3

> <FW>
540.6548

> <DSSTox_CID>
21772

> <DSSTox_RID>
79839

> <DSSTox_GSID>
41772

> <DSSTox_FileID_Sort>
4521

> <TS_ChemName>
Chlorfluazuron

> <TS_ChemName_Synonyms>


> <TS_CASRN>
71422-67-8

> <CASRN_ChemName_Relationship>
primary

> <TS_Description>
single chemical compound

> <ChemNote>


> <STRUCTURE_Shown>
tested chemical

> <STRUCTURE_Formula>
C20H9Cl3F5N3O3

> <STRUCTURE_MW>
540.6548

> <STRUCTURE_ChemType>
defined organic

> <STRUCTURE_DefinedOrganicForm>
parent

> <STRUCTURE_IUPAC>
N-[(3,5-dichloro-4-{[3-chloro-5-(trifluoromethyl)pyridin-2-yl]oxy}phenyl)carbamoyl]-2,6-difluorobenzamide

> <STRUCTURE_SMILES>
Fc1cccc(F)c1C(=O)NC(=O)Nc3cc(Cl)c(Oc2ncc(cc2Cl)C(F)(F)F)c(Cl)c3

> <STRUCTURE_SMILES_Desalt>
Fc1cccc(F)c1C(=O)NC(=O)Nc3cc(Cl)c(Oc2ncc(cc2Cl)C(F)(F)F)c(Cl)c3

> <Substance_modify_yyyymmdd>
20080825

$$$$
