71475-35-9
ChemmineR-0915142007XD

 14 14  0  0  0  0  0  0  0  0  1 V2000
    1.1558   -3.3215    0.0000 C    0  0  0  0  0  0  0  0  0  0  0  0
    1.1558   -1.9887    0.0000 C    0  0  0  0  0  0  0  0  0  0  0  0
    2.3011   -1.3432    0.0000 C    0  0  0  0  0  0  0  0  0  0  0  0
    3.4777   -1.9887    0.0000 C    0  0  0  0  0  0  0  0  0  0  0  0
    3.4777   -3.3215    0.0000 C    0  0  0  0  0  0  0  0  0  0  0  0
    2.3011   -3.9983    0.0000 C    0  0  0  0  0  0  0  0  0  0  0  0
    0.0000   -1.3432    0.0000 Cl   0  0  0  0  0  0  0  0  0  0  0  0
    4.6230   -1.3432    0.0000 C    0  0  0  0  0  0  0  0  0  0  0  0
    5.7892   -1.9887    0.0000 N    0  0  0  0  0  0  0  0  0  0  0  0
    6.9345   -1.3432    0.0000 C    0  0  0  0  0  0  0  0  0  0  0  0
    8.1111   -1.9887    0.0000 N    0  0  0  0  0  0  0  0  0  0  0  0
    9.2564   -1.3432    0.0000 C    0  0  0  0  0  0  0  0  0  0  0  0
   10.4122   -1.9887    0.0000 C    0  0  0  0  0  0  0  0  0  0  0  0
    6.9345    0.0000    0.0000 O    0  0  0  0  0  0  0  0  0  0  0  0
  1  6  1  0  0  0  0
  1  2  2  0  0  0  0
  2  7  1  0  0  0  0
  2  3  1  0  0  0  0
  3  4  2  0  0  0  0
  4  8  1  0  0  0  0
  4  5  1  0  0  0  0
  5  6  2  0  0  0  0
  8  9  1  0  0  0  0
  9 10  1  0  0  0  0
 10 11  1  0  0  0  0
 10 14  2  0  0  0  0
 11 12  1  0  0  0  0
 12 13  1  0  0  0  0
M  END
> <ID>
11462

> <Formula>
C10H13ClN2O

> <FW>
212.676

> <DSSTox_CID>
26163

> <DSSTox_RID>
81394

> <DSSTox_GSID>
46163

> <DSSTox_FileID_Sort>
6075

> <TS_ChemName>
Lozilurea

> <TS_ChemName_Synonyms>


> <TS_CASRN>
71475-35-9

> <CASRN_ChemName_Relationship>
primary

> <TS_Description>
single chemical compound

> <ChemNote>


> <STRUCTURE_Shown>
tested chemical

> <STRUCTURE_Formula>
C10H13ClN2O

> <STRUCTURE_MW>
212.676

> <STRUCTURE_ChemType>
defined organic

> <STRUCTURE_DefinedOrganicForm>
parent

> <STRUCTURE_IUPAC>
1-(3-chlorobenzyl)-3-ethylurea

> <STRUCTURE_SMILES>
Clc1cc(CNC(=O)NCC)ccc1

> <STRUCTURE_SMILES_Desalt>
Clc1cc(CNC(=O)NCC)ccc1

> <Substance_modify_yyyymmdd>
20110818

$$$$
