7149-26-0
ChemmineR-0915142007XD

 20 20  0  0  0  0  0  0  0  0  1 V2000
    5.7570   -3.4563    0.0000 C   0  0  0  0  0  0  0  0  0  0  0  0
    5.0907   -4.6119    0.0000 C   0  0  0  0  0  0  0  0  0  0  0  0
    6.9126   -4.1226    0.0000 C   0  0  0  0  0  0  0  0  0  0  0  0
    8.0577   -3.4563    0.0000 C   0  0  0  0  0  0  0  0  0  0  0  0
    6.4233   -2.3111    0.0000 C   0  0  0  0  0  0  0  0  0  0  0  0
    7.7558   -2.3111    0.0000 C   0  0  0  0  0  0  0  0  0  0  0  0
    8.4117   -1.1556    0.0000 C   0  0  0  0  0  0  0  0  0  0  0  0
    9.7442   -1.1556    0.0000 C   0  0  0  0  0  0  0  0  0  0  0  0
   10.4105    0.0000    0.0000 C   0  0  0  0  0  0  0  0  0  0  0  0
   10.4105   -2.3111    0.0000 C   0  0  0  0  0  0  0  0  0  0  0  0
    4.6014   -2.7900    0.0000 O   0  0  0  0  0  0  0  0  0  0  0  0
    3.4563   -3.4563    0.0000 C   0  0  0  0  0  0  0  0  0  0  0  0
    3.4563   -4.7888    0.0000 O   0  0  0  0  0  0  0  0  0  0  0  0
    2.3007   -2.7900    0.0000 C   0  0  0  0  0  0  0  0  0  0  0  0
    1.1556   -3.4563    0.0000 C   0  0  0  0  0  0  0  0  0  0  0  0
    0.0000   -2.7900    0.0000 C   0  0  0  0  0  0  0  0  0  0  0  0
    0.0000   -1.4679    0.0000 C   0  0  0  0  0  0  0  0  0  0  0  0
    1.1556   -0.8016    0.0000 C   0  0  0  0  0  0  0  0  0  0  0  0
    2.3007   -1.4679    0.0000 C   0  0  0  0  0  0  0  0  0  0  0  0
    3.4563   -0.8016    0.0000 N   0  0  0  0  0  0  0  0  0  0  0  0
  1  2  1  0  0  0  0
  1  3  1  0  0  0  0
  1  5  1  0  0  0  0
  1 11  1  0  0  0  0
  3  4  2  0  0  0  0
  5  6  1  0  0  0  0
  6  7  1  0  0  0  0
  7  8  2  0  0  0  0
  8  9  1  0  0  0  0
  8 10  1  0  0  0  0
 11 12  1  0  0  0  0
 12 13  2  0  0  0  0
 12 14  1  0  0  0  0
 14 15  2  0  0  0  0
 14 19  1  0  0  0  0
 15 16  1  0  0  0  0
 16 17  2  0  0  0  0
 17 18  1  0  0  0  0
 18 19  2  0  0  0  0
 19 20  1  0  0  0  0
M  END
> <ID>
4235

> <Formula>
C17H23NO2

> <FW>
273.37

> <DSSTox_CID>
5503

> <DSSTox_RID>
77813

> <DSSTox_GSID>
25503

> <DSSTox_FileID_Sort>
2496

> <TS_ChemName>
Linalyl anthranilate

> <TS_ChemName_Synonyms>


> <TS_CASRN>
7149-26-0

> <CASRN_ChemName_Relationship>
primary

> <TS_Description>
single chemical compound

> <ChemNote>


> <STRUCTURE_Shown>
tested chemical

> <STRUCTURE_Formula>
C17H23NO2

> <STRUCTURE_MW>
273.37

> <STRUCTURE_ChemType>
defined organic

> <STRUCTURE_DefinedOrganicForm>
parent

> <STRUCTURE_IUPAC>
3,7-dimethylocta-1,6-dien-3-yl 2-aminobenzoate

> <STRUCTURE_SMILES>
Nc1ccccc1C(=O)OC(C)(C=C)CC\C=C(/C)C

> <STRUCTURE_SMILES_Desalt>
Nc1ccccc1C(=O)OC(C)(C=C)CC\C=C(/C)C

> <Substance_modify_yyyymmdd>
20080429

$$$$
