71609-19-3
ChemmineR-0915142007XD

 33 34  0  0  0  0  0  0  0  0  1 V2000
    3.4471    0.0000    0.0000 C   0  0  0  0  0  0  0  0  0  0  0  0
    3.4471   -1.3269    0.0000 C   0  0  0  0  0  0  0  0  0  0  0  0
    2.2933   -2.0048    0.0000 C   0  0  0  0  0  0  0  0  0  0  0  0
    1.1538   -1.3269    0.0000 N   0  0  0  0  0  0  0  0  0  0  0  0
    0.0000   -2.0048    0.0000 C   0  0  0  0  0  0  0  0  0  0  0  0
    1.1538    0.0000    0.0000 C   0  0  0  0  0  0  0  0  0  0  0  0
    4.6009   -2.0048    0.0000 C   0  0  0  0  0  0  0  0  0  0  0  0
    4.6009   -3.3317    0.0000 N   0  0  0  0  0  0  0  0  0  0  0  0
    3.4471   -3.9952    0.0000 C   0  0  0  0  0  0  0  0  0  0  0  0
    3.4471   -5.3221    0.0000 C   0  0  0  0  0  0  0  0  0  0  0  0
    4.6009   -5.9856    0.0000 S   0  0  0  0  0  0  0  0  0  0  0  0
    5.7548   -5.3221    0.0000 C   0  0  0  0  0  0  0  0  0  0  0  0
    5.7548   -3.9952    0.0000 C   0  0  0  0  0  0  0  0  0  0  0  0
    6.8942   -3.3317    0.0000 C   0  0  0  0  0  0  0  0  0  0  0  0
    8.0481   -3.9952    0.0000 C   0  0  0  0  0  0  0  0  0  0  0  0
    8.0481   -5.3221    0.0000 C   0  0  0  0  0  0  0  0  0  0  0  0
    6.8942   -5.9856    0.0000 C   0  0  0  0  0  0  0  0  0  0  0  0
    9.2019   -3.3317    0.0000 C   0  0  0  0  0  0  0  0  0  0  0  0
    9.8509   -4.4856    0.0000 F   0  0  0  0  0  0  0  0  0  0  0  0
    8.5240   -2.1779    0.0000 F   0  0  0  0  0  0  0  0  0  0  0  0
   10.3557   -2.6538    0.0000 F   0  0  0  0  0  0  0  0  0  0  0  0
    2.2933   -5.9856    0.0000 C   0  0  0  0  0  0  0  0  0  0  0  0
    1.1538   -5.3221    0.0000 C   0  0  0  0  0  0  0  0  0  0  0  0
    1.1538   -3.9952    0.0000 C   0  0  0  0  0  0  0  0  0  0  0  0
    2.2933   -3.3317    0.0000 C   0  0  0  0  0  0  0  0  0  0  0  0
   13.0817   -7.2548    0.0000 C   0  0  0  0  0  0  0  0  0  0  0  0
   10.3990   -7.2548    0.0000 C   0  0  0  0  0  0  0  0  0  0  0  0
   11.0480   -6.1154    0.0000 C   0  0  0  0  0  0  0  0  0  0  0  0
   12.4327   -6.1154    0.0000 C   0  0  0  0  0  0  0  0  0  0  0  0
   12.4327   -8.4086    0.0000 O   0  0  0  0  0  0  0  0  0  0  0  0
   11.0480   -8.4086    0.0000 O   0  0  0  0  0  0  0  0  0  0  0  0
   14.4230   -7.2692    0.0000 O   0  0  0  0  0  0  0  0  0  0  0  0
    9.0577   -7.2692    0.0000 O   0  0  0  0  0  0  0  0  0  0  0  0
  1  2  1  0  0  0  0
  2  3  1  0  0  0  0
  2  7  1  0  0  0  0
  3  4  1  0  0  0  0
  4  5  1  0  0  0  0
  4  6  1  0  0  0  0
  7  8  1  0  0  0  0
  8  9  1  0  0  0  0
  8 13  1  0  0  0  0
  9 10  2  0  0  0  0
  9 25  1  0  0  0  0
 10 11  1  0  0  0  0
 10 22  1  0  0  0  0
 11 12  1  0  0  0  0
 12 13  2  0  0  0  0
 12 17  1  0  0  0  0
 13 14  1  0  0  0  0
 14 15  2  0  0  0  0
 15 16  1  0  0  0  0
 15 18  1  0  0  0  0
 16 17  2  0  0  0  0
 18 19  1  0  0  0  0
 18 20  1  0  0  0  0
 18 21  1  0  0  0  0
 22 23  2  0  0  0  0
 23 24  1  0  0  0  0
 24 25  2  0  0  0  0
 26 29  1  0  0  0  0
 26 30  2  0  0  0  0
 26 32  1  0  0  0  0
 27 28  1  0  0  0  0
 27 31  2  0  0  0  0
 27 33  1  0  0  0  0
 28 29  2  3  0  0  0
M  END
> <ID>
12052

> <Formula>
C23H25F3N2O4S

> <FW>
482.5158 (366.4436+116.0722)

> <DSSTox_CID>
26886

> <DSSTox_RID>
81989

> <DSSTox_GSID>
46886

> <DSSTox_FileID_Sort>
6670

> <TS_ChemName>
Trifluomeprazine 2-butenedioate

> <TS_ChemName_Synonyms>


> <TS_CASRN>
71609-19-3

> <CASRN_ChemName_Relationship>
primary

> <TS_Description>
single chemical compound

> <ChemNote>
parent [2622-37-9]

> <STRUCTURE_Shown>
tested chemical

> <STRUCTURE_Formula>
C23H25F3N2O4S

> <STRUCTURE_MW>
482.5158

> <STRUCTURE_ChemType>
defined organic

> <STRUCTURE_DefinedOrganicForm>
complex

> <STRUCTURE_IUPAC>
N,N,2-trimethyl-3-[2-(trifluoromethyl)-10H-phenothiazin-10-yl]propan-1-amine but-2-enedioate (1:1)

> <STRUCTURE_SMILES>
O=C(O)C=CC(=O)O.FC(F)(F)c1cc2N(CC(C)CN(C)C)c3ccccc3Sc2cc1

> <STRUCTURE_SMILES_Desalt>
FC(F)(F)c1cc2N(CC(C)CN(C)C)c3ccccc3Sc2cc1

> <Substance_modify_yyyymmdd>
20110727

$$$$
