71626-11-4
ChemmineR-0915142007XD

 24 25  0  0  0  0  0  0  0  0  1 V2000
    3.4643   -4.6478    0.0000 N   0  0  0  0  0  0  0  0  0  0  0  0
    4.5960   -3.9913    0.0000 C   0  0  0  0  0  0  0  0  0  0  0  0
    3.4643   -5.9783    0.0000 C   0  0  0  0  0  0  0  0  0  0  0  0
    2.3066   -3.9913    0.0000 C   0  0  0  0  0  0  0  0  0  0  0  0
    2.3066   -2.6608    0.0000 C   0  0  0  0  0  0  0  0  0  0  0  0
    4.5960   -2.6608    0.0000 C   0  0  0  0  0  0  0  0  0  0  0  0
    5.7536   -4.6478    0.0000 O   0  0  0  0  0  0  0  0  0  0  0  0
    4.5960   -6.6521    0.0000 C   0  0  0  0  0  0  0  0  0  0  0  0
    2.3066   -6.6521    0.0000 C   0  0  0  0  0  0  0  0  0  0  0  0
    3.4643   -1.9870    0.0000 O   0  0  0  0  0  0  0  0  0  0  0  0
    1.1576   -1.9870    0.0000 O   0  0  0  0  0  0  0  0  0  0  0  0
    5.7536   -1.9870    0.0000 C   0  0  0  0  0  0  0  0  0  0  0  0
    1.1576   -4.6478    0.0000 C   0  0  0  0  0  0  0  0  0  0  0  0
    3.4643   -8.6391    0.0000 C   0  0  0  0  0  0  0  0  0  0  0  0
    2.3066   -7.9825    0.0000 C   0  0  0  0  0  0  0  0  0  0  0  0
    4.5960   -7.9825    0.0000 C   0  0  0  0  0  0  0  0  0  0  0  0
    1.1576   -5.9783    0.0000 C   0  0  0  0  0  0  0  0  0  0  0  0
    5.7536   -5.9783    0.0000 C   0  0  0  0  0  0  0  0  0  0  0  0
    0.0000   -2.6608    0.0000 C   0  0  0  0  0  0  0  0  0  0  0  0
    5.7536   -0.6566    0.0000 C   0  0  0  0  0  0  0  0  0  0  0  0
    6.9113   -2.6608    0.0000 C   0  0  0  0  0  0  0  0  0  0  0  0
    8.0603   -1.9870    0.0000 C   0  0  0  0  0  0  0  0  0  0  0  0
    6.9113    0.0000    0.0000 C   0  0  0  0  0  0  0  0  0  0  0  0
    8.0603   -0.6566    0.0000 C   0  0  0  0  0  0  0  0  0  0  0  0
  1  2  1  0  0  0  0
  1  3  1  0  0  0  0
  1  4  1  0  0  0  0
  2  6  1  0  0  0  0
  2  7  2  0  0  0  0
  3  8  2  0  0  0  0
  3  9  1  0  0  0  0
  4  5  1  0  0  0  0
  4 13  1  0  0  0  0
  5 10  2  0  0  0  0
  5 11  1  0  0  0  0
  6 12  1  0  0  0  0
  8 16  1  0  0  0  0
  8 18  1  0  0  0  0
  9 15  2  0  0  0  0
  9 17  1  0  0  0  0
 11 19  1  0  0  0  0
 12 20  2  0  0  0  0
 12 21  1  0  0  0  0
 14 15  1  0  0  0  0
 14 16  2  0  0  0  0
 20 23  1  0  0  0  0
 21 22  2  0  0  0  0
 22 24  1  0  0  0  0
 23 24  2  0  0  0  0
M  END
> <ID>
8579

> <Formula>
C20H23NO3

> <FW>
325.4015

> <DSSTox_CID>
21619

> <DSSTox_RID>
79789

> <DSSTox_GSID>
41619

> <DSSTox_FileID_Sort>
4471

> <TS_ChemName>
Benalaxyl

> <TS_ChemName_Synonyms>


> <TS_CASRN>
71626-11-4

> <CASRN_ChemName_Relationship>
primary

> <TS_Description>
single chemical compound

> <ChemNote>


> <STRUCTURE_Shown>
tested chemical

> <STRUCTURE_Formula>
C20H23NO3

> <STRUCTURE_MW>
325.4015

> <STRUCTURE_ChemType>
defined organic

> <STRUCTURE_DefinedOrganicForm>
parent

> <STRUCTURE_IUPAC>
methyl N-(2,6-dimethylphenyl)-N-(phenylacetyl)alaninate

> <STRUCTURE_SMILES>
CC(N(C(=O)Cc1ccccc1)c2c(C)cccc2C)C(=O)OC

> <STRUCTURE_SMILES_Desalt>
CC(N(C(=O)Cc1ccccc1)c2c(C)cccc2C)C(=O)OC

> <Substance_modify_yyyymmdd>
20080825

$$$$
