71653-63-9
ChemmineR-0915142007XD

 26 27  0  0  0  0  0  0  0  0  1 V2000
    3.3730   -0.6386    0.0000 C   0  0  0  0  0  0  0  0  0  0  0  0
    3.3730   -1.9519    0.0000 C   0  0  0  0  0  0  0  0  0  0  0  0
    4.4974   -2.5905    0.0000 C   0  0  0  0  0  0  0  0  0  0  0  0
    5.6217   -1.9519    0.0000 C   0  0  0  0  0  0  0  0  0  0  0  0
    5.6217   -0.6476    0.0000 C   0  0  0  0  0  0  0  0  0  0  0  0
    4.5154    0.0000    0.0000 C   0  0  0  0  0  0  0  0  0  0  0  0
    6.7460   -2.5995    0.0000 O   0  0  0  0  0  0  0  0  0  0  0  0
    7.8704   -1.9609    0.0000 C   0  0  0  0  0  0  0  0  0  0  0  0
    7.8704   -0.6656    0.0000 F   0  0  0  0  0  0  0  0  0  0  0  0
    8.9947   -2.6355    0.0000 F   0  0  0  0  0  0  0  0  0  0  0  0
    4.4974   -4.7762    0.0000 C   0  0  0  0  0  0  0  0  0  0  0  0
    3.3550   -5.4148    0.0000 C   0  0  0  0  0  0  0  0  0  0  0  0
    3.3550   -6.7101    0.0000 C   0  0  0  0  0  0  0  0  0  0  0  0
    4.4794   -7.3667    0.0000 N   0  0  0  0  0  0  0  0  0  0  0  0
    5.6037   -6.7101    0.0000 C   0  0  0  0  0  0  0  0  0  0  0  0
    5.6037   -5.4148    0.0000 C   0  0  0  0  0  0  0  0  0  0  0  0
    6.7281   -4.7762    0.0000 C   0  0  0  0  0  0  0  0  0  0  0  0
    6.7460   -3.4810    0.0000 O   0  0  0  0  0  0  0  0  0  0  0  0
    7.8524   -5.4328    0.0000 O   0  0  0  0  0  0  0  0  0  0  0  0
    8.9767   -4.7942    0.0000 C   0  0  0  0  0  0  0  0  0  0  0  0
    6.7191   -7.3667    0.0000 C   0  0  0  0  0  0  0  0  0  0  0  0
    2.2307   -7.3487    0.0000 C   0  0  0  0  0  0  0  0  0  0  0  0
    2.2307   -4.7582    0.0000 C   0  0  0  0  0  0  0  0  0  0  0  0
    2.2307   -3.4630    0.0000 O   0  0  0  0  0  0  0  0  0  0  0  0
    1.1064   -5.3968    0.0000 O   0  0  0  0  0  0  0  0  0  0  0  0
    0.0000   -4.7312    0.0000 C   0  0  0  0  0  0  0  0  0  0  0  0
  1  2  2  0  0  0  0
  1  6  1  0  0  0  0
  2  3  1  0  0  0  0
  3  4  2  0  0  0  0
  3 11  1  0  0  0  0
  4  7  1  0  0  0  0
  4  5  1  0  0  0  0
  5  6  2  0  0  0  0
  7  8  1  0  0  0  0
  8  9  1  0  0  0  0
  8 10  1  0  0  0  0
 11 16  1  0  0  0  0
 11 12  1  0  0  0  0
 12 13  2  0  0  0  0
 12 23  1  0  0  0  0
 13 14  1  0  0  0  0
 13 22  1  0  0  0  0
 14 15  1  0  0  0  0
 15 16  2  0  0  0  0
 15 21  1  0  0  0  0
 16 17  1  0  0  0  0
 17 18  2  0  0  0  0
 17 19  1  0  0  0  0
 19 20  1  0  0  0  0
 23 24  2  0  0  0  0
 23 25  1  0  0  0  0
 25 26  1  0  0  0  0
M  END
> <ID>
11448

> <Formula>
C18H19F2NO5

> <FW>
367.344

> <DSSTox_CID>
26148

> <DSSTox_RID>
81380

> <DSSTox_GSID>
46148

> <DSSTox_FileID_Sort>
6061

> <TS_ChemName>
Riodipine

> <TS_ChemName_Synonyms>


> <TS_CASRN>
71653-63-9

> <CASRN_ChemName_Relationship>
primary

> <TS_Description>
single chemical compound

> <ChemNote>


> <STRUCTURE_Shown>
tested chemical

> <STRUCTURE_Formula>
C18H19F2NO5

> <STRUCTURE_MW>
367.344

> <STRUCTURE_ChemType>
defined organic

> <STRUCTURE_DefinedOrganicForm>
parent

> <STRUCTURE_IUPAC>
dimethyl 4-[2-(difluoromethoxy)phenyl]-2,6-dimethyl-1,4-dihydropyridine-3,5-dicarboxylate

> <STRUCTURE_SMILES>
CC=1NC(C)=C(C(C=1C(=O)OC)c2ccccc2OC(F)F)C(=O)OC

> <STRUCTURE_SMILES_Desalt>
CC=1NC(C)=C(C(C=1C(=O)OC)c2ccccc2OC(F)F)C(=O)OC

> <Substance_modify_yyyymmdd>
20110817

$$$$
