71675-85-9
ChemmineR-0915142007XD

 25 26  0  0  0  0  0  0  0  0  1 V2000
    2.6765   -4.3343    0.0000 C   0  0  0  0  0  0  0  0  0  0  0  0
    1.9974   -3.1958    0.0000 S   0  0  0  0  0  0  0  0  0  0  0  0
    4.6739   -5.5028    0.0000 C   0  0  0  0  0  0  0  0  0  0  0  0
    4.0048   -4.3343    0.0000 C   0  0  0  0  0  0  0  0  0  0  0  0
    1.9974   -5.5028    0.0000 C   0  0  0  0  0  0  0  0  0  0  0  0
    6.0221   -5.5028    0.0000 C   0  0  0  0  0  0  0  0  0  0  0  0
    4.0048   -6.6413    0.0000 C   0  0  0  0  0  0  0  0  0  0  0  0
    2.6765   -6.6413    0.0000 C   0  0  0  0  0  0  0  0  0  0  0  0
    6.6613   -4.3343    0.0000 N   0  0  0  0  0  0  0  0  0  0  0  0
    0.8489   -3.8450    0.0000 O   0  0  0  0  0  0  0  0  0  0  0  0
    3.1559   -2.5167    0.0000 O   0  0  0  0  0  0  0  0  0  0  0  0
    6.6613   -2.0473    0.0000 C   0  0  0  0  0  0  0  0  0  0  0  0
    6.6613   -6.6413    0.0000 O   0  0  0  0  0  0  0  0  0  0  0  0
    6.0221   -3.1958    0.0000 C   0  0  0  0  0  0  0  0  0  0  0  0
    0.6691   -5.5028    0.0000 N   0  0  0  0  0  0  0  0  0  0  0  0
    1.3283   -2.0274    0.0000 C   0  0  0  0  0  0  0  0  0  0  0  0
    4.6739   -7.8098    0.0000 O   0  0  0  0  0  0  0  0  0  0  0  0
    6.0221   -7.8098    0.0000 C   0  0  0  0  0  0  0  0  0  0  0  0
    0.0000   -2.0274    0.0000 C   0  0  0  0  0  0  0  0  0  0  0  0
    7.9996   -2.0473    0.0000 N   0  0  0  0  0  0  0  0  0  0  0  0
    6.2718   -0.7690    0.0000 C   0  0  0  0  0  0  0  0  0  0  0  0
    7.3504    0.0000    0.0000 C   0  0  0  0  0  0  0  0  0  0  0  0
    8.3990   -0.7790    0.0000 C   0  0  0  0  0  0  0  0  0  0  0  0
    8.6587   -3.1958    0.0000 C   0  0  0  0  0  0  0  0  0  0  0  0
    9.9870   -3.1958    0.0000 C   0  0  0  0  0  0  0  0  0  0  0  0
  1  2  1  0  0  0  0
  1  4  1  0  0  0  0
  1  5  2  0  0  0  0
  2 10  2  0  0  0  0
  2 11  2  0  0  0  0
  2 16  1  0  0  0  0
  3  4  2  0  0  0  0
  3  6  1  0  0  0  0
  3  7  1  0  0  0  0
  5  8  1  0  0  0  0
  5 15  1  0  0  0  0
  6  9  1  0  0  0  0
  6 13  2  0  0  0  0
  7  8  2  0  0  0  0
  7 17  1  0  0  0  0
  9 14  1  0  0  0  0
 12 14  1  0  0  0  0
 12 21  1  0  0  0  0
 12 20  1  0  0  0  0
 16 19  1  0  0  0  0
 17 18  1  0  0  0  0
 20 23  1  0  0  0  0
 20 24  1  0  0  0  0
 21 22  1  0  0  0  0
 22 23  1  0  0  0  0
 24 25  1  0  0  0  0
M  END
> <ID>
9482

> <Formula>
C17H27N3O4S

> <FW>
369.479

> <DSSTox_CID>
22613

> <DSSTox_RID>
80058

> <DSSTox_GSID>
42613

> <DSSTox_FileID_Sort>
4740

> <TS_ChemName>
Amisulpride

> <TS_ChemName_Synonyms>


> <TS_CASRN>
71675-85-9

> <CASRN_ChemName_Relationship>
primary

> <TS_Description>
single chemical compound

> <ChemNote>


> <STRUCTURE_Shown>
tested chemical

> <STRUCTURE_Formula>
C17H27N3O4S

> <STRUCTURE_MW>
369.479

> <STRUCTURE_ChemType>
defined organic

> <STRUCTURE_DefinedOrganicForm>
parent

> <STRUCTURE_IUPAC>
4-amino-N-[(1-ethylpyrrolidin-2-yl)methyl]-5-(ethylsulfonyl)-2-methoxybenzamide

> <STRUCTURE_SMILES>
CCN2CCCC2CNC(=O)c1cc(c(N)cc1OC)S(=O)(=O)CC

> <STRUCTURE_SMILES_Desalt>
CCN2CCCC2CNC(=O)c1cc(c(N)cc1OC)S(=O)(=O)CC

> <Substance_modify_yyyymmdd>
20081003

$$$$
