717-74-8
ChemmineR-0915142007XD

 15 15  0  0  0  0  0  0  0  0  1 V2000
    3.4617   -1.9870    0.0000 C   0  0  0  0  0  0  0  0  0  0  0  0
    4.6178   -2.6585    0.0000 C   0  0  0  0  0  0  0  0  0  0  0  0
    4.6178   -3.9878    0.0000 C   0  0  0  0  0  0  0  0  0  0  0  0
    3.4617   -4.6455    0.0000 C   0  0  0  0  0  0  0  0  0  0  0  0
    2.3055   -3.9878    0.0000 C   0  0  0  0  0  0  0  0  0  0  0  0
    2.3055   -2.6585    0.0000 C   0  0  0  0  0  0  0  0  0  0  0  0
    3.4617   -0.6508    0.0000 C   0  0  0  0  0  0  0  0  0  0  0  0
    2.3055    0.0000    0.0000 C   0  0  0  0  0  0  0  0  0  0  0  0
    4.6178    0.0000    0.0000 C   0  0  0  0  0  0  0  0  0  0  0  0
    1.1562   -4.6455    0.0000 C   0  0  0  0  0  0  0  0  0  0  0  0
    1.1562   -5.9748    0.0000 C   0  0  0  0  0  0  0  0  0  0  0  0
    0.0000   -3.9878    0.0000 C   0  0  0  0  0  0  0  0  0  0  0  0
    5.7671   -4.6455    0.0000 C   0  0  0  0  0  0  0  0  0  0  0  0
    6.9233   -3.9878    0.0000 C   0  0  0  0  0  0  0  0  0  0  0  0
    5.7671   -5.9748    0.0000 C   0  0  0  0  0  0  0  0  0  0  0  0
  1  2  2  0  0  0  0
  1  6  1  0  0  0  0
  1  7  1  0  0  0  0
  2  3  1  0  0  0  0
  3  4  2  0  0  0  0
  3 13  1  0  0  0  0
  4  5  1  0  0  0  0
  5  6  2  0  0  0  0
  5 10  1  0  0  0  0
  7  8  1  0  0  0  0
  7  9  1  0  0  0  0
 10 11  1  0  0  0  0
 10 12  1  0  0  0  0
 13 14  1  0  0  0  0
 13 15  1  0  0  0  0
M  END
> <ID>
8205

> <Formula>
C15H24

> <FW>
204.3511

> <DSSTox_CID>
21232

> <DSSTox_RID>
79655

> <DSSTox_GSID>
41232

> <DSSTox_FileID_Sort>
4337

> <TS_ChemName>
1,3,5-Triisopropylbenzene

> <TS_ChemName_Synonyms>


> <TS_CASRN>
717-74-8

> <CASRN_ChemName_Relationship>
primary

> <TS_Description>
single chemical compound

> <ChemNote>


> <STRUCTURE_Shown>
tested chemical

> <STRUCTURE_Formula>
C15H24

> <STRUCTURE_MW>
204.3511

> <STRUCTURE_ChemType>
defined organic

> <STRUCTURE_DefinedOrganicForm>
parent

> <STRUCTURE_IUPAC>
1,3,5-tri(propan-2-yl)benzene

> <STRUCTURE_SMILES>
CC(C)c1cc(cc(c1)C(C)C)C(C)C

> <STRUCTURE_SMILES_Desalt>
CC(C)c1cc(cc(c1)C(C)C)C(C)C

> <Substance_modify_yyyymmdd>
20080825

$$$$
