71731-58-3
ChemmineR-0915142007XD

 24 26  0  0  1  0  0  0  0  0  2 V2000
    2.2962   -2.7104    0.0000 C    0  0  0  0  0  0  0  0  0  0  0  0
    2.2962   -4.0520    0.0000 N    0  3  0  0  0  0  0  0  0  0  0  0
    1.1436   -3.3857    0.0000 C    0  0  0  0  0  0  0  0  0  0  0  0
    0.0000   -4.0520    0.0000 C    0  0  0  0  0  0  0  0  0  0  0  0
    0.0000   -5.3847    0.0000 C    0  0  0  0  0  0  0  0  0  0  0  0
    1.1436   -6.0420    0.0000 C    0  0  0  0  0  0  0  0  0  0  0  0
    2.2962   -5.3847    0.0000 C    0  0  0  0  0  0  0  0  0  0  0  0
    3.4397   -6.0420    0.0000 C    0  0  0  0  0  0  0  0  0  0  0  0
    4.6013   -5.3847    0.0000 C    0  0  0  0  0  0  0  0  0  0  0  0
    4.6013   -4.0520    0.0000 C    0  0  0  0  0  0  0  0  0  0  0  0
    3.4397   -3.3857    0.0000 C    0  0  0  0  0  0  0  0  0  0  0  0
    5.7539   -3.3857    0.0000 C    0  0  0  0  0  0  0  0  0  0  0  0
    6.9155   -4.0520    0.0000 C    0  0  0  0  0  0  0  0  0  0  0  0
    7.0416   -5.3667    0.0000 C    0  0  0  0  0  0  0  0  0  0  0  0
    8.3472   -5.6368    0.0000 C    0  0  0  0  0  0  0  0  0  0  0  0
    9.0045   -4.5023    0.0000 C    0  0  0  0  0  0  0  0  0  0  0  0
    8.1221   -3.5028    0.0000 S    0  0  0  0  0  0  0  0  0  0  0  0
    5.7539   -2.0530    0.0000 C    0  0  0  0  0  0  0  0  0  0  0  0
    6.8344   -1.2696    0.0000 C    0  0  0  0  0  0  0  0  0  0  0  0
    6.4112    0.0000    0.0000 C    0  0  0  0  0  0  0  0  0  0  0  0
    5.0786    0.0000    0.0000 C    0  0  0  0  0  0  0  0  0  0  0  0
    4.6824   -1.2696    0.0000 S    0  0  0  0  0  0  0  0  0  0  0  0
    2.2962   -6.7174    0.0000 H    0  0  0  0  0  0  0  0  0  0  0  0
    2.5933   -1.3147    0.0000 Br   0  5  0  0  0  0  0  0  0  0  0  0
  2  1  1  1  0  0  0
  2  3  1  0  0  0  0
  2  7  1  0  0  0  0
  2 11  1  0  0  0  0
  3  4  1  0  0  0  0
  4  5  1  0  0  0  0
  5  6  1  0  0  0  0
  6  7  1  0  0  0  0
  7  8  1  0  0  0  0
  7 23  1  6  0  0  0
  8  9  1  0  0  0  0
  9 10  1  0  0  0  0
 10 11  1  0  0  0  0
 10 12  2  0  0  0  0
 12 13  1  0  0  0  0
 12 18  1  0  0  0  0
 13 14  2  0  0  0  0
 13 17  1  0  0  0  0
 14 15  1  0  0  0  0
 15 16  2  0  0  0  0
 16 17  1  0  0  0  0
 18 19  2  0  0  0  0
 18 22  1  0  0  0  0
 19 20  1  0  0  0  0
 20 21  2  0  0  0  0
 21 22  1  0  0  0  0
M  END
> <ID>
11945

> <Formula>
C19H24BrNS2

> <FW>
410.4346 (330.5300+79.9045)

> <DSSTox_CID>
26757

> <DSSTox_RID>
81881

> <DSSTox_GSID>
46757

> <DSSTox_FileID_Sort>
6562

> <TS_ChemName>
Tiquizium bromide

> <TS_ChemName_Synonyms>


> <TS_CASRN>
71731-58-3

> <CASRN_ChemName_Relationship>
primary

> <TS_Description>
single chemical compound

> <ChemNote>
ammonium; relative stereochem; parent [149755-23-7]

> <STRUCTURE_Shown>
tested chemical

> <STRUCTURE_Formula>
C19H24BrNS2

> <STRUCTURE_MW>
410.4346

> <STRUCTURE_ChemType>
defined organic

> <STRUCTURE_DefinedOrganicForm>
salt

> <STRUCTURE_IUPAC>
(5R,9aR)-3-[di(thiophen-2-yl)methylidene]-5-methyloctahydro-2H-quinolizinium bromide

> <STRUCTURE_SMILES>
[Br-].C[N@@+]14CCCC[C@@H]4CC\C(C1)=C(/c2sccc2)c3cccs3

> <STRUCTURE_SMILES_Desalt>
C[N@@+]14CCCC[C@@H]4CC\C(C1)=C(/c2sccc2)c3cccs3

> <Substance_modify_yyyymmdd>
20110803

$$$$
