71751-41-2
ChemmineR-0915142007XD

 69 75  0  0  1  0  0  0  0  0  1 V2000
   14.1224  -12.7722    0.0000 C   0  0  0  0  0  0  0  0  0  0  0  0
   14.1224  -14.1224    0.0000 C   0  0  0  0  0  0  0  0  0  0  0  0
   15.2292  -12.1081    0.0000 C   0  0  0  0  0  0  0  0  0  0  0  0
   12.9271  -12.1302    0.0000 C   0  0  0  0  0  0  0  0  0  0  0  0
   14.0782  -11.4440    0.0000 O   0  0  0  0  0  0  0  0  0  0  0  0
   11.7982  -14.1224    0.0000 O   0  0  0  0  0  0  0  0  0  0  0  0
   15.2292  -14.7422    0.0000 C   0  0  0  0  0  0  0  0  0  0  0  0
   15.2292  -10.8243    0.0000 C   0  0  0  0  0  0  0  0  0  0  0  0
   16.3581  -12.7722    0.0000 C   0  0  0  0  0  0  0  0  0  0  0  0
   11.7982  -12.7722    0.0000 C   0  0  0  0  0  0  0  0  0  0  0  0
   12.9271  -10.8243    0.0000 C   0  0  0  0  0  0  0  0  0  0  0  0
   16.3581  -14.1224    0.0000 C   0  0  0  0  0  0  0  0  0  0  0  0
   15.2292  -16.0704    0.0000 O   0  0  0  0  0  0  0  0  0  0  0  0
   16.3803  -10.1602    0.0000 O   0  0  0  0  0  0  0  0  0  0  0  0
   14.1224  -10.1381    0.0000 O   0  0  0  0  0  0  0  0  0  0  0  0
   11.8425  -10.1602    0.0000 C   0  0  0  0  0  0  0  0  0  0  0  0
   17.5092  -14.7422    0.0000 C   0  0  0  0  0  0  0  0  0  0  0  0
   16.4024   -8.8542    0.0000 C   0  0  0  0  0  0  0  0  0  0  0  0
   11.8425   -8.8542    0.0000 C   0  0  0  0  0  0  0  0  0  0  0  0
   17.5977   -8.2344    0.0000 C   0  0  0  0  0  0  0  0  0  0  0  0
   15.2956   -8.1459    0.0000 C   0  0  0  0  0  0  0  0  0  0  0  0
   10.7136   -8.1901    0.0000 C   0  0  0  0  0  0  0  0  0  0  0  0
   17.5977   -6.9284    0.0000 C   0  0  0  0  0  0  0  0  0  0  0  0
   15.2956   -6.8620    0.0000 C   0  0  0  0  0  0  0  0  0  0  0  0
   10.7136   -6.8841    0.0000 C   0  0  0  0  0  0  0  0  0  0  0  0
    9.5847   -8.8542    0.0000 C   0  0  0  0  0  0  0  0  0  0  0  0
   16.4688   -6.2643    0.0000 O   0  0  0  0  0  0  0  0  0  0  0  0
   18.7045   -7.5703    0.0000 O   0  0  0  0  0  0  0  0  0  0  0  0
   17.5977   -5.6003    0.0000 C   0  0  0  0  0  0  0  0  0  0  0  0
   14.1888   -6.1758    0.0000 C   0  0  0  0  0  0  0  0  0  0  0  0
    9.5847   -6.0873    0.0000 O   0  0  0  0  0  0  0  0  0  0  0  0
   11.8646   -6.2643    0.0000 C   0  0  0  0  0  0  0  0  0  0  0  0
   19.8555   -6.9284    0.0000 C   0  0  0  0  0  0  0  0  0  0  0  0
   18.7045   -4.9362    0.0000 C   0  0  0  0  0  0  0  0  0  0  0  0
   12.9714   -6.9284    0.0000 C   0  0  0  0  0  0  0  0  0  0  0  0
    8.2344   -6.0873    0.0000 C   0  0  0  0  0  0  0  0  0  0  0  0
   11.8646   -4.9362    0.0000 C   0  0  0  0  0  0  0  0  0  0  0  0
   19.8555   -5.6003    0.0000 C   0  0  0  0  0  0  0  0  0  0  0  0
   20.9844   -7.5703    0.0000 C   0  0  0  0  0  0  0  0  0  0  0  0
    8.2344   -4.6263    0.0000 C   0  0  0  0  0  0  0  0  0  0  0  0
    7.1055   -6.6185    0.0000 O   0  0  0  0  0  0  0  0  0  0  0  0
   20.9844   -4.9362    0.0000 C   0  0  0  0  0  0  0  0  0  0  0  0
   20.9844   -8.8763    0.0000 C   0  0  0  0  0  0  0  0  0  0  0  0
   22.1355   -6.9284    0.0000 C   0  0  0  0  0  0  0  0  0  0  0  0
    7.1055   -3.9844    0.0000 C   0  0  0  0  0  0  0  0  0  0  0  0
    5.9544   -5.9544    0.0000 C   0  0  0  0  0  0  0  0  0  0  0  0
   19.8555   -9.5404    0.0000 C   0  0  0  0  0  0  0  0  0  0  0  0
    5.9544   -4.6263    0.0000 C   0  0  0  0  0  0  0  0  0  0  0  0
    7.1055   -2.6563    0.0000 O   0  0  0  0  0  0  0  0  0  0  0  0
    4.8034   -6.6185    0.0000 C   0  0  0  0  0  0  0  0  0  0  0  0
    4.8034   -3.9844    0.0000 O   0  0  0  0  0  0  0  0  0  0  0  0
    8.2344   -1.9922    0.0000 C   0  0  0  0  0  0  0  0  0  0  0  0
    3.3867   -3.9623    0.0000 C   0  0  0  0  0  0  0  0  0  0  0  0
    3.3867   -2.6341    0.0000 C   0  0  0  0  0  0  0  0  0  0  0  0
    2.2578   -4.6263    0.0000 O   0  0  0  0  0  0  0  0  0  0  0  0
    2.2578   -1.9701    0.0000 C   0  0  0  0  0  0  0  0  0  0  0  0
    1.1068   -3.9623    0.0000 C   0  0  0  0  0  0  0  0  0  0  0  0
    1.1068   -2.6341    0.0000 C   0  0  0  0  0  0  0  0  0  0  0  0
    2.2578   -0.6641    0.0000 O   0  0  0  0  0  0  0  0  0  0  0  0
    0.0000   -4.6263    0.0000 C   0  0  0  0  0  0  0  0  0  0  0  0
    0.0000   -1.9922    0.0000 O   0  0  0  0  0  0  0  0  0  0  0  0
    3.3867    0.0000    0.0000 C   0  0  0  0  0  0  0  0  0  0  0  0
   14.0782  -15.4063    0.0000 H   0  0  0  0  0  0  0  0  0  0  0  0
   16.3581  -11.4440    0.0000 H   0  0  0  0  0  0  0  0  0  0  0  0
   15.2956   -5.5339    0.0000 H   0  0  0  0  0  0  0  0  0  0  0  0
   19.8555   -8.2344    0.0000 H   0  0  0  0  0  0  0  0  0  0  0  0
    8.2123   -7.2826    0.0000 H   0  0  0  0  0  0  0  0  0  0  0  0
   22.1355   -8.2344    0.0000 H   0  0  0  0  0  0  0  0  0  0  0  0
    3.3646   -5.2904    0.0000 H   0  0  0  0  0  0  0  0  0  0  0  0
  1  2  1  0  0  0  0
  1  3  1  0  0  0  0
  1  4  1  0  0  0  0
  1  5  1  6  0  0  0
  2  6  1  0  0  0  0
  2  7  1  0  0  0  0
  2 63  1  6  0  0  0
  3  8  1  0  0  0  0
  3  9  1  0  0  0  0
  3 64  1  1  0  0  0
  4 10  1  0  0  0  0
  4 11  2  0  0  0  0
  6 10  1  0  0  0  0
  7 12  1  0  0  0  0
  7 13  1  1  0  0  0
  8 14  1  0  0  0  0
  8 15  2  0  0  0  0
  9 12  2  0  0  0  0
 11 16  1  0  0  0  0
 12 17  1  0  0  0  0
 18 14  1  1  0  0  0
 16 19  2  0  0  0  0
 18 20  1  0  0  0  0
 18 21  1  0  0  0  0
 19 22  1  0  0  0  0
 20 23  1  0  0  0  0
 21 24  1  0  0  0  0
 22 25  1  0  0  0  0
 22 26  1  6  0  0  0
 23 27  1  0  0  0  0
 23 28  1  6  0  0  0
 23 29  1  1  0  0  0
 24 30  1  0  0  0  0
 24 27  1  0  0  0  0
 24 65  1  6  0  0  0
 25 31  1  6  0  0  0
 25 32  1  0  0  0  0
 28 33  1  0  0  0  0
 29 34  2  0  0  0  0
 30 35  1  0  0  0  0
 31 36  1  0  0  0  0
 32 37  1  0  0  0  0
 32 35  2  0  0  0  0
 33 38  1  0  0  0  0
 33 39  1  0  0  0  0
 33 66  1  6  0  0  0
 34 38  1  0  0  0  0
 36 40  1  0  0  0  0
 36 41  1  0  0  0  0
 36 67  1  1  0  0  0
 38 42  1  6  0  0  0
 39 43  1  0  0  0  0
 39 44  1  0  0  0  0
 39 68  1  6  0  0  0
 40 45  1  0  0  0  0
 41 46  1  0  0  0  0
 43 47  1  0  0  0  0
 45 48  1  0  0  0  0
 45 49  1  1  0  0  0
 46 50  1  1  0  0  0
 46 48  1  0  0  0  0
 48 51  1  6  0  0  0
 49 52  1  0  0  0  0
 53 51  1  6  0  0  0
 53 54  1  0  0  0  0
 53 55  1  0  0  0  0
 53 69  1  1  0  0  0
 54 56  1  0  0  0  0
 55 57  1  0  0  0  0
 56 58  1  0  0  0  0
 56 59  1  1  0  0  0
 57 60  1  1  0  0  0
 57 58  1  0  0  0  0
 58 61  1  6  0  0  0
 59 62  1  0  0  0  0
M  END
> <ID>
3411

> <Formula>
C48H72O14

> <FW>
873.0769

> <DSSTox_CID>
3892

> <DSSTox_RID>
77221

> <DSSTox_GSID>
23892

> <DSSTox_FileID_Sort>
1904

> <TS_ChemName>
Abamectin

> <TS_ChemName_Synonyms>
Abamectin (Avermectin B1)

> <TS_CASRN>
71751-41-2

> <CASRN_ChemName_Relationship>
primary

> <TS_Description>
mixture or formulation

> <ChemNote>
mixture of B1a [65195-55-3] ethyl form and B1b [65195-56-4] methyl form (4:1); structure shown B1a; stereochem

> <STRUCTURE_Shown>
representative component

> <STRUCTURE_Formula>
C48H72O14

> <STRUCTURE_MW>
873.0769

> <STRUCTURE_ChemType>
defined organic

> <STRUCTURE_DefinedOrganicForm>
parent

> <STRUCTURE_IUPAC>
(2aE,4E,5'S,6S,6'R,7S,8E,11R,13S,15S,17aR,20R,20aR,20bS)-6'-[(2S)-butan-2-yl]-20,20b-dihydroxy-5',6,8,19-tetramethyl-17-oxo-5',6,6',10,11,14,15,17,17a,20,20a,20b-dodecahydro-2H,7H-spiro[11,15-methanofuro[4,3,2-pq][2,6]benzodioxacyclooctadecine-13,2'-pyran

> <STRUCTURE_SMILES>
CO[C@H]1C[C@@H](O[C@@H](C)[C@@H]1O)O[C@@H]2[C@@H](OC)C[C@@H](O[C@H]2C)O[C@@H]3C(C)=CC[C@@H]6C[C@H](OC(=O)[C@@H]4C=C(C)[C@@H](O)[C@H]5OCC(=CC=C[C@@H]3C)[C@@]45O)C[C@@]7(O6)C=C[C@H](C)[C@H](O7)[C@@H](C)CC

> <STRUCTURE_SMILES_Desalt>
CO[C@H]1C[C@@H](O[C@@H](C)[C@@H]1O)O[C@@H]2[C@@H](OC)C[C@@H](O[C@H]2C)O[C@@H]3C(C)=CC[C@@H]6C[C@H](OC(=O)[C@@H]4C=C(C)[C@@H](O)[C@H]5OCC(=CC=C[C@@H]3C)[C@@]45O)C[C@@]7(O6)C=C[C@H](C)[C@H](O7)[C@@H](C)CC

> <Substance_modify_yyyymmdd>
20080429

$$$$
