71771-90-9
ChemmineR-0915142007XD

 23 24  0  0  1  0  0  0  0  0  1 V2000
    1.1365   -5.3089    0.0000 C   0  0  0  0  0  0  0  0  0  0  0  0
    1.1365   -3.9779    0.0000 O   0  0  0  0  0  0  0  0  0  0  0  0
    2.2880   -3.3199    0.0000 C   0  0  0  0  0  0  0  0  0  0  0  0
    3.4395   -3.9779    0.0000 C   0  0  0  0  0  0  0  0  0  0  0  0
    4.5910   -3.3199    0.0000 C   0  0  0  0  0  0  0  0  0  0  0  0
    4.5910   -1.9890    0.0000 C   0  0  0  0  0  0  0  0  0  0  0  0
    5.7425   -1.3160    0.0000 C   0  0  0  0  0  0  0  0  0  0  0  0
    6.8940   -1.9890    0.0000 C   0  0  0  0  0  0  0  0  0  0  0  0
    8.0605   -1.3160    0.0000 N   0  0  0  0  0  0  0  0  0  0  0  0
    9.2120   -1.9890    0.0000 C   0  0  0  0  0  0  0  0  0  0  0  0
   10.3635   -1.3160    0.0000 C   0  0  0  0  0  0  0  0  0  0  0  0
   10.3635    0.0000    0.0000 O   0  0  0  0  0  0  0  0  0  0  0  0
   11.5000   -1.9890    0.0000 C   0  0  0  0  0  0  0  0  0  0  0  0
   11.5000   -3.3199    0.0000 C   0  0  0  0  0  0  0  0  0  0  0  0
   12.6515   -3.9779    0.0000 C   0  0  0  0  0  0  0  0  0  0  0  0
   13.8030   -3.3199    0.0000 C   0  0  0  0  0  0  0  0  0  0  0  0
   14.9545   -3.9779    0.0000 O   0  0  0  0  0  0  0  0  0  0  0  0
   13.8030   -1.9890    0.0000 C   0  0  0  0  0  0  0  0  0  0  0  0
   12.6515   -1.3160    0.0000 C   0  0  0  0  0  0  0  0  0  0  0  0
    3.4395   -1.3160    0.0000 C   0  0  0  0  0  0  0  0  0  0  0  0
    2.2880   -1.9890    0.0000 C   0  0  0  0  0  0  0  0  0  0  0  0
    1.1365   -1.3160    0.0000 O   0  0  0  0  0  0  0  0  0  0  0  0
    0.0000   -1.9890    0.0000 C   0  0  0  0  0  0  0  0  0  0  0  0
  1  2  1  0  0  0  0
  2  3  1  0  0  0  0
  3  4  2  0  0  0  0
  3 21  1  0  0  0  0
  4  5  1  0  0  0  0
  5  6  2  0  0  0  0
  6  7  1  0  0  0  0
  6 20  1  0  0  0  0
  7  8  1  0  0  0  0
  8  9  1  0  0  0  0
  9 10  1  0  0  0  0
 10 11  1  0  0  0  0
 11 12  1  6  0  0  0
 11 13  1  0  0  0  0
 13 14  2  0  0  0  0
 13 19  1  0  0  0  0
 14 15  1  0  0  0  0
 15 16  2  0  0  0  0
 16 17  1  0  0  0  0
 16 18  1  0  0  0  0
 18 19  2  0  0  0  0
 20 21  2  0  0  0  0
 21 22  1  0  0  0  0
 22 23  1  0  0  0  0
M  END
> <ID>
11206

> <Formula>
C18H23NO4

> <FW>
317.3795

> <DSSTox_CID>
25800

> <DSSTox_RID>
81138

> <DSSTox_GSID>
45800

> <DSSTox_FileID_Sort>
5819

> <TS_ChemName>
Denopamine

> <TS_ChemName_Synonyms>


> <TS_CASRN>
71771-90-9

> <CASRN_ChemName_Relationship>
primary

> <TS_Description>
single chemical compound

> <ChemNote>
stereochem

> <STRUCTURE_Shown>
tested chemical

> <STRUCTURE_Formula>
C18H23NO4

> <STRUCTURE_MW>
317.3795

> <STRUCTURE_ChemType>
defined organic

> <STRUCTURE_DefinedOrganicForm>
parent

> <STRUCTURE_IUPAC>
4-[(1R)-2-{[2-(3,4-dimethoxyphenyl)ethyl]amino}-1-hydroxyethyl]phenol

> <STRUCTURE_SMILES>
COc1cc(ccc1OC)CCNC[C@H](O)c2ccc(O)cc2

> <STRUCTURE_SMILES_Desalt>
COc1cc(ccc1OC)CCNC[C@H](O)c2ccc(O)cc2

> <Substance_modify_yyyymmdd>
20110902

$$$$
