7177-50-6
ChemmineR-0915142007XD

 33 34  0  0  1  0  0  0  0  0  2 V2000
    0.0000   -4.4293    0.0000 O    0  0  0  0  0  0  0  0  0  0  0  0
   11.4364   -9.3186    0.0000 Na   0  3  0  0  0  0  0  0  0  0  0  0
    8.8708   -5.8090    0.0000 N    0  0  0  0  0  0  0  0  0  0  0  0
    8.8708   -4.4535    0.0000 C    0  0  0  0  0  0  0  0  0  0  0  0
    7.4548   -5.8090    0.0000 C    0  0  0  0  0  0  0  0  0  0  0  0
    7.4548   -4.4535    0.0000 C    0  0  0  0  0  0  0  0  0  0  0  0
   10.2262   -6.2083    0.0000 C    0  0  0  0  0  0  0  0  0  0  0  0
   10.2625   -3.9211    0.0000 S    0  0  0  0  0  0  0  0  0  0  0  0
    5.3128   -3.3160    0.0000 C    0  0  0  0  0  0  0  0  0  0  0  0
   11.0491   -5.1313    0.0000 C    0  0  0  0  0  0  0  0  0  0  0  0
    5.9542   -4.4535    0.0000 N    0  0  0  0  0  0  0  0  0  0  0  0
    4.0300   -3.3160    0.0000 C    0  0  0  0  0  0  0  0  0  0  0  0
   10.6619   -7.5880    0.0000 C    0  0  0  0  0  0  0  0  0  0  0  0
    3.3886   -4.4535    0.0000 C    0  0  0  0  0  0  0  0  0  0  0  0
    6.6198   -6.6924    0.0000 O    0  0  0  0  0  0  0  0  0  0  0  0
    3.3886   -2.2268    0.0000 C    0  0  0  0  0  0  0  0  0  0  0  0
    5.9542   -2.2268    0.0000 O    0  0  0  0  0  0  0  0  0  0  0  0
    9.7421   -8.7135    0.0000 O    0  5  0  0  0  0  0  0  0  0  0  0
   12.1020   -7.9147    0.0000 O    0  0  0  0  0  0  0  0  0  0  0  0
    2.1179   -4.4535    0.0000 C    0  0  0  0  0  0  0  0  0  0  0  0
    2.1179   -2.2268    0.0000 C    0  0  0  0  0  0  0  0  0  0  0  0
    1.4643   -3.3160    0.0000 C    0  0  0  0  0  0  0  0  0  0  0  0
   11.8963   -3.9211    0.0000 C    0  0  0  0  0  0  0  0  0  0  0  0
   11.9689   -6.1841    0.0000 C    0  0  0  0  0  0  0  0  0  0  0  0
    4.0300   -1.1134    0.0000 O    0  0  0  0  0  0  0  0  0  0  0  0
    4.0300   -5.5427    0.0000 C    0  0  0  0  0  0  0  0  0  0  0  0
    1.4643   -5.5427    0.0000 C    0  0  0  0  0  0  0  0  0  0  0  0
    3.3886    0.0000    0.0000 C    0  0  0  0  0  0  0  0  0  0  0  0
    3.3886   -6.6561    0.0000 C    0  0  0  0  0  0  0  0  0  0  0  0
    2.1179    0.0000    0.0000 C    0  0  0  0  0  0  0  0  0  0  0  0
    2.1179   -6.6561    0.0000 C    0  0  0  0  0  0  0  0  0  0  0  0
    7.4669   -3.3523    0.0000 H    0  0  0  0  0  0  0  0  0  0  0  0
    8.8708   -3.3160    0.0000 H    0  0  0  0  0  0  0  0  0  0  0  0
  3  4  1  0  0  0  0
  3  5  1  0  0  0  0
  3  7  1  0  0  0  0
  4  8  1  0  0  0  0
  4 33  1  6  0  0  0
  4  6  1  0  0  0  0
  5  6  1  0  0  0  0
  5 15  2  0  0  0  0
  6 11  1  1  0  0  0
  6 32  1  6  0  0  0
  7 10  1  0  0  0  0
  7 13  1  6  0  0  0
  8 10  1  0  0  0  0
  9 11  1  0  0  0  0
  9 12  1  0  0  0  0
  9 17  2  0  0  0  0
 10 23  1  0  0  0  0
 10 24  1  0  0  0  0
 12 14  1  0  0  0  0
 12 16  2  0  0  0  0
 13 18  1  0  0  0  0
 13 19  2  0  0  0  0
 14 20  2  0  0  0  0
 14 26  1  0  0  0  0
 16 21  1  0  0  0  0
 16 25  1  0  0  0  0
 20 27  1  0  0  0  0
 20 22  1  0  0  0  0
 21 22  2  0  0  0  0
 25 28  1  0  0  0  0
 26 29  2  0  0  0  0
 27 31  2  0  0  0  0
 28 30  1  0  0  0  0
 29 31  1  0  0  0  0
M  END
> <ID>
11035

> <Formula>
C21H23N2NaO6S

> <FW>
454.4719 (18.0153+22.9892+413.4674)

> <DSSTox_CID>
25570

> <DSSTox_RID>
80967

> <DSSTox_GSID>
45570

> <DSSTox_FileID_Sort>
5648

> <TS_ChemName>
Nafcillin sodium monohydrate

> <TS_ChemName_Synonyms>


> <TS_CASRN>
7177-50-6

> <CASRN_ChemName_Relationship>
primary

> <TS_Description>
single chemical compound

> <ChemNote>
stereochem; parent [147-52-4]

> <STRUCTURE_Shown>
tested chemical

> <STRUCTURE_Formula>
C21H23N2NaO6S

> <STRUCTURE_MW>
454.4719

> <STRUCTURE_ChemType>
defined organic

> <STRUCTURE_DefinedOrganicForm>
salt complex

> <STRUCTURE_IUPAC>
sodium (2S,5R,6R)-6-{[(2-ethoxynaphthalen-1-yl)carbonyl]amino}-3,3-dimethyl-7-oxo-4-thia-1-azabicyclo[3.2.0]heptane-2-carboxylate hydrate (1:1:1)

> <STRUCTURE_SMILES>
[Na+].O.O=C([O-])[C@@H]3N4C(=O)[C@@H](NC(=O)c1c2ccccc2ccc1OCC)[C@H]4SC3(C)C

> <STRUCTURE_SMILES_Desalt>
OC(=O)[C@@H]3N4C(=O)[C@@H](NC(=O)c1c2ccccc2ccc1OCC)[C@H]4SC3(C)C

> <Substance_modify_yyyymmdd>
20100107

$$$$
