71868-10-5
ChemmineR-0915142007XD

 19 20  0  0  0  0  0  0  0  0  1 V2000
    5.7573   -1.3358    0.0000 C   0  0  0  0  0  0  0  0  0  0  0  0
    6.9067   -1.9881    0.0000 C   0  0  0  0  0  0  0  0  0  0  0  0
    7.5694   -0.8387    0.0000 C   0  0  0  0  0  0  0  0  0  0  0  0
    5.7573    0.0000    0.0000 O   0  0  0  0  0  0  0  0  0  0  0  0
    6.2336   -3.1375    0.0000 C   0  0  0  0  0  0  0  0  0  0  0  0
    3.4482   -3.9970    0.0000 C   0  0  0  0  0  0  0  0  0  0  0  0
    2.2884   -3.3239    0.0000 C   0  0  0  0  0  0  0  0  0  0  0  0
    2.2884   -1.9881    0.0000 C   0  0  0  0  0  0  0  0  0  0  0  0
    3.4482   -1.3358    0.0000 C   0  0  0  0  0  0  0  0  0  0  0  0
    4.5975   -1.9881    0.0000 C   0  0  0  0  0  0  0  0  0  0  0  0
    4.5975   -3.3239    0.0000 C   0  0  0  0  0  0  0  0  0  0  0  0
    1.1390   -3.9970    0.0000 S   0  0  0  0  0  0  0  0  0  0  0  0
    0.0000   -3.3239    0.0000 C   0  0  0  0  0  0  0  0  0  0  0  0
    8.0664   -2.6612    0.0000 N   0  0  0  0  0  0  0  0  0  0  0  0
   10.3548   -3.9970    0.0000 O   0  0  0  0  0  0  0  0  0  0  0  0
    9.2158   -1.9881    0.0000 C   0  0  0  0  0  0  0  0  0  0  0  0
    8.0664   -3.9970    0.0000 C   0  0  0  0  0  0  0  0  0  0  0  0
    9.2158   -4.6493    0.0000 C   0  0  0  0  0  0  0  0  0  0  0  0
   10.3548   -2.6612    0.0000 C   0  0  0  0  0  0  0  0  0  0  0  0
  1  2  1  0  0  0  0
  1  4  2  0  0  0  0
  1 10  1  0  0  0  0
  2  3  1  0  0  0  0
  2  5  1  0  0  0  0
  2 14  1  0  0  0  0
  6 11  2  0  0  0  0
  6  7  1  0  0  0  0
  7  8  2  0  0  0  0
  7 12  1  0  0  0  0
  8  9  1  0  0  0  0
  9 10  2  0  0  0  0
 10 11  1  0  0  0  0
 12 13  1  0  0  0  0
 14 16  1  0  0  0  0
 14 17  1  0  0  0  0
 15 18  1  0  0  0  0
 15 19  1  0  0  0  0
 16 19  1  0  0  0  0
 17 18  1  0  0  0  0
M  END
> <ID>
7526

> <Formula>
C15H21NO2S

> <FW>
279.3977

> <DSSTox_CID>
18857

> <DSSTox_RID>
79410

> <DSSTox_GSID>
38857

> <DSSTox_FileID_Sort>
4092

> <TS_ChemName>
1-Propanone, 2-methyl-1-[4-(methylthio)phenyl]-2-(4-4-morpholinyl)-

> <TS_ChemName_Synonyms>


> <TS_CASRN>
71868-10-5

> <CASRN_ChemName_Relationship>
primary

> <TS_Description>
single chemical compound

> <ChemNote>


> <STRUCTURE_Shown>
tested chemical

> <STRUCTURE_Formula>
C15H21NO2S

> <STRUCTURE_MW>
279.3977

> <STRUCTURE_ChemType>
defined organic

> <STRUCTURE_DefinedOrganicForm>
parent

> <STRUCTURE_IUPAC>
2-methyl-1-[4-(methylsulfanyl)phenyl]-2-(morpholin-4-yl)propan-1-one

> <STRUCTURE_SMILES>
CC(C)(N1CCOCC1)C(=O)c2ccc(SC)cc2

> <STRUCTURE_SMILES_Desalt>
CC(C)(N1CCOCC1)C(=O)c2ccc(SC)cc2

> <Substance_modify_yyyymmdd>
20080429

$$$$
