71888-89-6
ChemmineR-0915142007XD

 26 26  0  0  0  0  0  0  0  0  1 V2000
    2.3021   -2.0028    0.0000 C   0  0  0  0  0  0  0  0  0  0  0  0
    2.3021   -3.3265    0.0000 C   0  0  0  0  0  0  0  0  0  0  0  0
    3.4531   -1.3352    0.0000 C   0  0  0  0  0  0  0  0  0  0  0  0
    3.4531   -3.9826    0.0000 C   0  0  0  0  0  0  0  0  0  0  0  0
    3.4531    0.0000    0.0000 O   0  0  0  0  0  0  0  0  0  0  0  0
    4.6157   -3.3265    0.0000 O   0  0  0  0  0  0  0  0  0  0  0  0
    4.6157   -2.0028    0.0000 O   0  0  0  0  0  0  0  0  0  0  0  0
    3.4531   -5.3178    0.0000 O   0  0  0  0  0  0  0  0  0  0  0  0
    1.1510   -1.3352    0.0000 C   0  0  0  0  0  0  0  0  0  0  0  0
    1.1510   -3.9826    0.0000 C   0  0  0  0  0  0  0  0  0  0  0  0
    0.0000   -2.0028    0.0000 C   0  0  0  0  0  0  0  0  0  0  0  0
    0.0000   -3.3265    0.0000 C   0  0  0  0  0  0  0  0  0  0  0  0
    5.7437   -1.3352    0.0000 C   0  0  0  0  0  0  0  0  0  0  0  0
    6.8947   -2.0028    0.0000 C   0  0  0  0  0  0  0  0  0  0  0  0
    8.0573   -1.3352    0.0000 C   0  0  0  0  0  0  0  0  0  0  0  0
    9.2083   -2.0028    0.0000 C   0  0  0  0  0  0  0  0  0  0  0  0
   10.3594   -1.3352    0.0000 C   0  0  0  0  0  0  0  0  0  0  0  0
   11.5104   -2.0028    0.0000 C   0  0  0  0  0  0  0  0  0  0  0  0
   10.3594    0.0000    0.0000 C   0  0  0  0  0  0  0  0  0  0  0  0
    4.6157   -5.9854    0.0000 C   0  0  0  0  0  0  0  0  0  0  0  0
    4.6157   -7.3206    0.0000 C   0  0  0  0  0  0  0  0  0  0  0  0
    5.7437   -7.9767    0.0000 C   0  0  0  0  0  0  0  0  0  0  0  0
    5.7437   -9.3004    0.0000 C   0  0  0  0  0  0  0  0  0  0  0  0
    6.8947   -9.9795    0.0000 C   0  0  0  0  0  0  0  0  0  0  0  0
    6.8947  -11.3032    0.0000 C   0  0  0  0  0  0  0  0  0  0  0  0
    8.0573   -9.3004    0.0000 C   0  0  0  0  0  0  0  0  0  0  0  0
  1  2  2  0  0  0  0
  1  3  1  0  0  0  0
  1  9  1  0  0  0  0
  2  4  1  0  0  0  0
  2 10  1  0  0  0  0
  3  5  2  0  0  0  0
  3  7  1  0  0  0  0
  4  6  2  0  0  0  0
  4  8  1  0  0  0  0
  7 13  1  0  0  0  0
  8 20  1  0  0  0  0
  9 11  2  0  0  0  0
 10 12  2  0  0  0  0
 11 12  1  0  0  0  0
 13 14  1  0  0  0  0
 14 15  1  0  0  0  0
 15 16  1  0  0  0  0
 16 17  1  0  0  0  0
 17 18  1  0  0  0  0
 17 19  1  0  0  0  0
 20 21  1  0  0  0  0
 21 22  1  0  0  0  0
 22 23  1  0  0  0  0
 23 24  1  0  0  0  0
 24 25  1  0  0  0  0
 24 26  1  0  0  0  0
M  END
> <ID>
5767

> <Formula>
C22H34O4

> <FW>
362.503

> <DSSTox_CID>
9017

> <DSSTox_RID>
78662

> <DSSTox_GSID>
29017

> <DSSTox_FileID_Sort>
3344

> <TS_ChemName>
1,2-Benzenedicarboxylic acid, di-C6-8-branched alkyl esters, C7-rich

> <TS_ChemName_Synonyms>


> <TS_CASRN>
71888-89-6

> <CASRN_ChemName_Relationship>
primary

> <TS_Description>
mixture or formulation

> <ChemNote>
mixture of phthalic esters; structure shown 5-methyhexyl

> <STRUCTURE_Shown>
representative component

> <STRUCTURE_Formula>
C22H34O4

> <STRUCTURE_MW>
362.503

> <STRUCTURE_ChemType>
defined organic

> <STRUCTURE_DefinedOrganicForm>
parent

> <STRUCTURE_IUPAC>
bis(5-methylhexyl) benzene-1,2-dicarboxylate

> <STRUCTURE_SMILES>
CC(C)CCCCOC(=O)c1ccccc1C(=O)OCCCCC(C)C

> <STRUCTURE_SMILES_Desalt>
CC(C)CCCCOC(=O)c1ccccc1C(=O)OCCCCC(C)C

> <Substance_modify_yyyymmdd>
20080429

$$$$
