719-22-2
ChemmineR-0915142007XD

 16 16  0  0  0  0  0  0  0  0  1 V2000
    5.1380   -0.9771    0.0000 C   0  0  0  0  0  0  0  0  0  0  0  0
    5.1380   -2.3037    0.0000 C   0  0  0  0  0  0  0  0  0  0  0  0
    6.4710   -2.3037    0.0000 C   0  0  0  0  0  0  0  0  0  0  0  0
    3.8114   -2.3037    0.0000 C   0  0  0  0  0  0  0  0  0  0  0  0
    3.1449   -3.4555    0.0000 C   0  0  0  0  0  0  0  0  0  0  0  0
    1.8183   -3.4555    0.0000 C   0  0  0  0  0  0  0  0  0  0  0  0
    1.1518   -4.6073    0.0000 C   0  0  0  0  0  0  0  0  0  0  0  0
    2.3037   -5.2739    0.0000 C   0  0  0  0  0  0  0  0  0  0  0  0
    0.4853   -5.7592    0.0000 C   0  0  0  0  0  0  0  0  0  0  0  0
    0.0000   -3.9408    0.0000 C   0  0  0  0  0  0  0  0  0  0  0  0
    1.1518   -2.3037    0.0000 C   0  0  0  0  0  0  0  0  0  0  0  0
    3.8114   -4.6073    0.0000 O   0  0  0  0  0  0  0  0  0  0  0  0
    3.1449   -1.1518    0.0000 C   0  0  0  0  0  0  0  0  0  0  0  0
    1.8183   -1.1518    0.0000 C   0  0  0  0  0  0  0  0  0  0  0  0
    1.1518    0.0000    0.0000 O   0  0  0  0  0  0  0  0  0  0  0  0
    5.1380   -3.6367    0.0000 C   0  0  0  0  0  0  0  0  0  0  0  0
  1  2  1  0  0  0  0
  2  3  1  0  0  0  0
  2  4  1  0  0  0  0
  2 16  1  0  0  0  0
  4  5  1  0  0  0  0
  4 13  2  0  0  0  0
  5  6  1  0  0  0  0
  5 12  2  0  0  0  0
  6  7  1  0  0  0  0
  6 11  2  0  0  0  0
  7  8  1  0  0  0  0
  7  9  1  0  0  0  0
  7 10  1  0  0  0  0
 11 14  1  0  0  0  0
 13 14  1  0  0  0  0
 14 15  2  0  0  0  0
M  END
> <ID>
1433

> <Formula>
C14H20O2

> <FW>
220.3074

> <DSSTox_CID>
1493

> <DSSTox_RID>
76185

> <DSSTox_GSID>
21493

> <DSSTox_FileID_Sort>
869

> <TS_ChemName>
2,6-Bis-(1,1-dimethylethyl)-2,5-cyclohexadiene-1,4-dione

> <TS_ChemName_Synonyms>


> <TS_CASRN>
719-22-2

> <CASRN_ChemName_Relationship>
primary

> <TS_Description>
single chemical compound

> <ChemNote>


> <STRUCTURE_Shown>
tested chemical

> <STRUCTURE_Formula>
C14H20O2

> <STRUCTURE_MW>
220.3074

> <STRUCTURE_ChemType>
defined organic

> <STRUCTURE_DefinedOrganicForm>
parent

> <STRUCTURE_IUPAC>
2,6-di-tert-butylcyclohexa-2,5-diene-1,4-dione

> <STRUCTURE_SMILES>
CC(C)(C)C1=CC(=O)C=C(C1=O)C(C)(C)C

> <STRUCTURE_SMILES_Desalt>
CC(C)(C)C1=CC(=O)C=C(C1=O)C(C)(C)C

> <Substance_modify_yyyymmdd>
20080429

$$$$
