719-32-4
ChemmineR-0915142007XD

 16 16  0  0  0  0  0  0  0  0  1 V2000
    3.4584    0.0000    0.0000 Cl   0  0  0  0  0  0  0  0  0  0  0  0
    1.1506   -6.6508    0.0000 Cl   0  0  0  0  0  0  0  0  0  0  0  0
    2.3078   -0.6717    0.0000 C    0  0  0  0  0  0  0  0  0  0  0  0
    2.3078   -5.9923    0.0000 C    0  0  0  0  0  0  0  0  0  0  0  0
    1.1506    0.0000    0.0000 O    0  0  0  0  0  0  0  0  0  0  0  0
    3.4584   -6.6508    0.0000 O    0  0  0  0  0  0  0  0  0  0  0  0
    2.3078   -2.0019    0.0000 C    0  0  0  0  0  0  0  0  0  0  0  0
    2.3078   -4.6622    0.0000 C    0  0  0  0  0  0  0  0  0  0  0  0
    3.4584   -2.6603    0.0000 C    0  0  0  0  0  0  0  0  0  0  0  0
    1.1506   -3.9905    0.0000 C    0  0  0  0  0  0  0  0  0  0  0  0
    3.4584   -3.9905    0.0000 C    0  0  0  0  0  0  0  0  0  0  0  0
    1.1506   -2.6603    0.0000 C    0  0  0  0  0  0  0  0  0  0  0  0
    4.6023   -2.0019    0.0000 Cl   0  0  0  0  0  0  0  0  0  0  0  0
    4.6023   -4.6622    0.0000 Cl   0  0  0  0  0  0  0  0  0  0  0  0
    0.0000   -4.6622    0.0000 Cl   0  0  0  0  0  0  0  0  0  0  0  0
    0.0000   -2.0019    0.0000 Cl   0  0  0  0  0  0  0  0  0  0  0  0
  1  3  1  0  0  0  0
  2  4  1  0  0  0  0
  3  5  2  0  0  0  0
  3  7  1  0  0  0  0
  4  8  1  0  0  0  0
  4  6  2  0  0  0  0
  7  9  2  0  0  0  0
  7 12  1  0  0  0  0
  8 10  1  0  0  0  0
  8 11  2  0  0  0  0
  9 11  1  0  0  0  0
  9 13  1  0  0  0  0
 10 12  2  0  0  0  0
 10 15  1  0  0  0  0
 11 14  1  0  0  0  0
 12 16  1  0  0  0  0
M  END
> <ID>
5064

> <Formula>
C8Cl6O2

> <FW>
340.8024

> <DSSTox_CID>
7302

> <DSSTox_RID>
78397

> <DSSTox_GSID>
27302

> <DSSTox_FileID_Sort>
3080

> <TS_ChemName>
2,3,5,6-Tetrachlorobenzene-1,4-dicarbonyl dichloride

> <TS_ChemName_Synonyms>


> <TS_CASRN>
719-32-4

> <CASRN_ChemName_Relationship>
primary

> <TS_Description>
single chemical compound

> <ChemNote>


> <STRUCTURE_Shown>
tested chemical

> <STRUCTURE_Formula>
C8Cl6O2

> <STRUCTURE_MW>
340.8024

> <STRUCTURE_ChemType>
defined organic

> <STRUCTURE_DefinedOrganicForm>
parent

> <STRUCTURE_IUPAC>
2,3,5,6-tetrachlorobenzene-1,4-dicarbonyl dichloride

> <STRUCTURE_SMILES>
Clc1c(C(Cl)=O)c(Cl)c(Cl)c(C(Cl)=O)c1Cl

> <STRUCTURE_SMILES_Desalt>
Clc1c(C(Cl)=O)c(Cl)c(Cl)c(C(Cl)=O)c1Cl

> <Substance_modify_yyyymmdd>
20080429

$$$$
