7195-27-9
ChemmineR-0915142007XD

 23 24  0  0  0  0  0  0  0  0  1 V2000
    5.8212   -2.2987    0.0000 S    0  0  0  0  0  0  0  0  0  0  0  0
    1.1665   -2.2987    0.0000 S    0  0  0  0  0  0  0  0  0  0  0  0
    2.3331   -2.9621    0.0000 C    0  0  0  0  0  0  0  0  0  0  0  0
    4.6547   -2.9621    0.0000 C    0  0  0  0  0  0  0  0  0  0  0  0
    3.4881   -2.2987    0.0000 C    0  0  0  0  0  0  0  0  0  0  0  0
    6.9763   -1.6126    0.0000 N    0  0  0  0  0  0  0  0  0  0  0  0
    7.9713   -1.6126    0.0000 C    0  0  0  0  0  0  0  0  0  0  0  0
    6.4960   -3.4653    0.0000 O    0  0  0  0  0  0  0  0  0  0  0  0
    5.1464   -1.1322    0.0000 O    0  0  0  0  0  0  0  0  0  0  0  0
    2.3331   -4.3116    0.0000 C    0  0  0  0  0  0  0  0  0  0  0  0
    1.8298   -1.1322    0.0000 O    0  0  0  0  0  0  0  0  0  0  0  0
    0.4803   -3.4653    0.0000 O    0  0  0  0  0  0  0  0  0  0  0  0
    9.3093   -1.6126    0.0000 C    0  0  0  0  0  0  0  0  0  0  0  0
    0.0000   -1.6126    0.0000 N    0  0  0  0  0  0  0  0  0  0  0  0
    4.6547   -4.3116    0.0000 C    0  0  0  0  0  0  0  0  0  0  0  0
    9.4580   -0.2859    0.0000 O    0  0  0  0  0  0  0  0  0  0  0  0
    3.4881   -4.9863    0.0000 C    0  0  0  0  0  0  0  0  0  0  0  0
    1.1665   -4.9863    0.0000 Cl   0  0  0  0  0  0  0  0  0  0  0  0
    6.9763   -0.2745    0.0000 C    0  0  0  0  0  0  0  0  0  0  0  0
    8.6346   -2.7791    0.0000 C    0  0  0  0  0  0  0  0  0  0  0  0
   10.5445   -2.1729    0.0000 C    0  0  0  0  0  0  0  0  0  0  0  0
   10.7732    0.0000    0.0000 C    0  0  0  0  0  0  0  0  0  0  0  0
   11.4365   -1.1665    0.0000 C    0  0  0  0  0  0  0  0  0  0  0  0
  1  4  1  0  0  0  0
  1  6  1  0  0  0  0
  1  8  2  0  0  0  0
  1  9  2  0  0  0  0
  2  3  1  0  0  0  0
  2 11  2  0  0  0  0
  2 12  2  0  0  0  0
  2 14  1  0  0  0  0
  3  5  2  0  0  0  0
  3 10  1  0  0  0  0
  4  5  1  0  0  0  0
  4 15  2  0  0  0  0
  6  7  1  0  0  0  0
  6 19  1  0  0  0  0
  7 13  1  0  0  0  0
 10 17  2  0  0  0  0
 10 18  1  0  0  0  0
 13 16  1  0  0  0  0
 13 20  1  0  0  0  0
 13 21  1  0  0  0  0
 15 17  1  0  0  0  0
 16 22  1  0  0  0  0
 21 23  1  0  0  0  0
 22 23  1  0  0  0  0
M  END
> <ID>
13833

> <Formula>
C13H19ClN2O5S2

> <FW>
382.8834

> <DSSTox_CID>
28770

> <DSSTox_RID>
83039

> <DSSTox_GSID>
48844

> <DSSTox_FileID_Sort>
7716

> <TS_ChemName>
Mefruside

> <TS_ChemName_Synonyms>


> <TS_CASRN>
7195-27-9

> <CASRN_ChemName_Relationship>
primary

> <TS_Description>
single chemical compound

> <ChemNote>


> <STRUCTURE_Shown>
tested chemical

> <STRUCTURE_Formula>
C13H19ClN2O5S2

> <STRUCTURE_MW>
382.8834

> <STRUCTURE_ChemType>
defined organic

> <STRUCTURE_DefinedOrganicForm>
parent

> <STRUCTURE_IUPAC>
4-chloro-N~1~-methyl-N~1~-[(2-methyltetrahydrofuran-2-yl)methyl]benzene-1,3-disulfonamide

> <STRUCTURE_SMILES>
CC2(CN(C)S(=O)(=O)c1ccc(Cl)c(c1)S(N)(=O)=O)CCCO2

> <STRUCTURE_SMILES_Desalt>
CC2(CN(C)S(=O)(=O)c1ccc(Cl)c(c1)S(N)(=O)=O)CCCO2

> <Substance_modify_yyyymmdd>
20111204

$$$$
