71963-77-4
ChemmineR-0915142007XD

 26 29  0  0  1  0  0  0  0  0  1 V2000
    4.3957   -3.5403    0.0000 C   0  0  0  0  0  0  0  0  0  0  0  0
    3.2523   -4.2094    0.0000 C   0  0  0  0  0  0  0  0  0  0  0  0
    5.6068   -4.2602    0.0000 C   0  0  0  0  0  0  0  0  0  0  0  0
    3.2523   -5.7000    0.0000 O   0  0  0  0  0  0  0  0  0  0  0  0
    3.5741   -2.4900    0.0000 O   0  0  0  0  0  0  0  0  0  0  0  0
    1.8548   -3.9722    0.0000 O   0  0  0  0  0  0  0  0  0  0  0  0
    4.3957   -6.3691    0.0000 C   0  0  0  0  0  0  0  0  0  0  0  0
    4.3957   -2.1259    0.0000 C   0  0  0  0  0  0  0  0  0  0  0  0
    1.3043   -2.6594    0.0000 C   0  0  0  0  0  0  0  0  0  0  0  0
    5.6068   -5.6746    0.0000 C   0  0  0  0  0  0  0  0  0  0  0  0
    2.4646   -2.3715    0.0000 O   0  0  0  0  0  0  0  0  0  0  0  0
    6.8434   -3.5403    0.0000 C   0  0  0  0  0  0  0  0  0  0  0  0
    3.3031   -1.2450    0.0000 C   0  0  0  0  0  0  0  0  0  0  0  0
    5.6068   -1.4314    0.0000 C   0  0  0  0  0  0  0  0  0  0  0  0
    6.8434   -2.1259    0.0000 C   0  0  0  0  0  0  0  0  0  0  0  0
    1.9141   -1.5669    0.0000 C   0  0  0  0  0  0  0  0  0  0  0  0
    4.3957   -7.8004    0.0000 O   0  0  0  0  0  0  0  0  0  0  0  0
    0.0000   -2.6594    0.0000 C   0  0  0  0  0  0  0  0  0  0  0  0
    5.9795   -6.6317    0.0000 C   0  0  0  0  0  0  0  0  0  0  0  0
    5.6068    0.0000    0.0000 C   0  0  0  0  0  0  0  0  0  0  0  0
    3.0575   -8.4695    0.0000 C   0  0  0  0  0  0  0  0  0  0  0  0
    6.5808   -5.5984    0.0000 H   0  0  0  0  0  0  0  0  0  0  0  0
    3.3793   -6.9958    0.0000 H   0  0  0  0  0  0  0  0  0  0  0  0
    2.2190   -5.0478    0.0000 H   0  0  0  0  0  0  0  0  0  0  0  0
    4.3618   -0.7284    0.0000 H   0  0  0  0  0  0  0  0  0  0  0  0
    6.5385   -4.5651    0.0000 H   0  0  0  0  0  0  0  0  0  0  0  0
  1  2  1  0  0  0  0
  1  3  1  0  0  0  0
  5  1  1  6  0  0  0
  1  8  1  0  0  0  0
  2  4  1  6  0  0  0
  2  6  1  0  0  0  0
  2 24  1  1  0  0  0
  3 10  1  0  0  0  0
  3 12  1  0  0  0  0
  3 26  1  6  0  0  0
  4  7  1  0  0  0  0
  5 11  1  0  0  0  0
  6  9  1  0  0  0  0
  7 10  1  0  0  0  0
  7 17  1  1  0  0  0
  7 23  1  6  0  0  0
  8 13  1  0  0  0  0
  8 14  1  0  0  0  0
  8 25  1  6  0  0  0
  9 11  1  6  0  0  0
  9 18  1  1  0  0  0
  9 16  1  0  0  0  0
 10 19  1  1  0  0  0
 10 22  1  6  0  0  0
 12 15  1  0  0  0  0
 13 16  1  0  0  0  0
 14 15  1  0  0  0  0
 14 20  1  6  0  0  0
 17 21  1  0  0  0  0
M  END
> <ID>
7854

> <Formula>
C16H26O5

> <FW>
298.3746

> <DSSTox_CID>
20651

> <DSSTox_RID>
79521

> <DSSTox_GSID>
40651

> <DSSTox_FileID_Sort>
4203

> <TS_ChemName>
Artemether

> <TS_ChemName_Synonyms>


> <TS_CASRN>
71963-77-4

> <CASRN_ChemName_Relationship>
primary

> <TS_Description>
single chemical compound

> <ChemNote>
stereochem

> <STRUCTURE_Shown>
tested chemical

> <STRUCTURE_Formula>
C16H26O5

> <STRUCTURE_MW>
298.3746

> <STRUCTURE_ChemType>
defined organic

> <STRUCTURE_DefinedOrganicForm>
parent

> <STRUCTURE_IUPAC>
(5aS,6R,8aS,9R,10S,12R,12aR)-10-methoxy-3,6,9-trimethyldecahydro-3,12-epoxy[1,2]dioxepino[4,3-i]isochromene

> <STRUCTURE_SMILES>
C[C@]12O[C@H]4O[C@H](OC)[C@H](C)[C@@H]3CC[C@@H](C)[C@H](CC1)C34OO2

> <STRUCTURE_SMILES_Desalt>
C[C@]12O[C@H]4O[C@H](OC)[C@H](C)[C@@H]3CC[C@@H](C)[C@H](CC1)C34OO2

> <Substance_modify_yyyymmdd>
20080429

$$$$
