72-19-5
ChemmineR-0915142007XD

  8  7  0  0  1  0  0  0  0  0  1 V2000
    2.2897   -2.0149    0.0000 C   0  0  0  0  0  0  0  0  0  0  0  0
    3.4162   -1.3509    0.0000 C   0  0  0  0  0  0  0  0  0  0  0  0
    3.4162   -0.0137    0.0000 O   0  0  0  0  0  0  0  0  0  0  0  0
    1.1265   -1.3509    0.0000 C   0  0  0  0  0  0  0  0  0  0  0  0
    2.2897   -3.3521    0.0000 N   0  0  0  0  0  0  0  0  0  0  0  0
    4.5793   -2.0149    0.0000 O   0  0  0  0  0  0  0  0  0  0  0  0
    1.1265    0.0000    0.0000 O   0  0  0  0  0  0  0  0  0  0  0  0
    0.0000   -1.9966    0.0000 C   0  0  0  0  0  0  0  0  0  0  0  0
  1  2  1  0  0  0  0
  1  4  1  0  0  0  0
  1  5  1  1  0  0  0
  2  3  2  0  0  0  0
  2  6  1  0  0  0  0
  4  7  1  1  0  0  0
  4  8  1  0  0  0  0
M  END
> <ID>
11658

> <Formula>
C4H9NO3

> <FW>
119.1192

> <DSSTox_CID>
26412

> <DSSTox_RID>
81591

> <DSSTox_GSID>
46412

> <DSSTox_FileID_Sort>
6272

> <TS_ChemName>
L-Threonine

> <TS_ChemName_Synonyms>


> <TS_CASRN>
72-19-5

> <CASRN_ChemName_Relationship>
primary

> <TS_Description>
single chemical compound

> <ChemNote>
stereochem

> <STRUCTURE_Shown>
tested chemical

> <STRUCTURE_Formula>
C4H9NO3

> <STRUCTURE_MW>
119.1192

> <STRUCTURE_ChemType>
defined organic

> <STRUCTURE_DefinedOrganicForm>
parent

> <STRUCTURE_IUPAC>
L-threonine

> <STRUCTURE_SMILES>
O=C(O)[C@@H](N)[C@@H](C)O

> <STRUCTURE_SMILES_Desalt>
O=C(O)[C@@H](N)[C@@H](C)O

> <Substance_modify_yyyymmdd>
20110813

$$$$
