72-14-0
ChemmineR-0915142007XD

 16 17  0  0  0  0  0  0  0  0  1 V2000
    4.6094   -2.6610    0.0000 S   0  0  0  0  0  0  0  0  0  0  0  0
    3.9419   -3.8156    0.0000 O   0  0  0  0  0  0  0  0  0  0  0  0
    5.2769   -1.5154    0.0000 O   0  0  0  0  0  0  0  0  0  0  0  0
    5.7640   -3.3285    0.0000 N   0  0  0  0  0  0  0  0  0  0  0  0
    6.9096   -2.6610    0.0000 C   0  0  0  0  0  0  0  0  0  0  0  0
    8.1273   -3.2022    0.0000 N   0  0  0  0  0  0  0  0  0  0  0  0
    9.0203   -2.2190    0.0000 C   0  0  0  0  0  0  0  0  0  0  0  0
    8.3528   -1.0644    0.0000 C   0  0  0  0  0  0  0  0  0  0  0  0
    7.0539   -1.3440    0.0000 S   0  0  0  0  0  0  0  0  0  0  0  0
    3.4548   -2.0025    0.0000 C   0  0  0  0  0  0  0  0  0  0  0  0
    2.3002   -2.6610    0.0000 C   0  0  0  0  0  0  0  0  0  0  0  0
    1.1546   -2.0025    0.0000 C   0  0  0  0  0  0  0  0  0  0  0  0
    1.1546   -0.6675    0.0000 C   0  0  0  0  0  0  0  0  0  0  0  0
    0.0000    0.0000    0.0000 N   0  0  0  0  0  0  0  0  0  0  0  0
    2.3002    0.0000    0.0000 C   0  0  0  0  0  0  0  0  0  0  0  0
    3.4548   -0.6675    0.0000 C   0  0  0  0  0  0  0  0  0  0  0  0
  1  2  2  0  0  0  0
  1  3  2  0  0  0  0
  1  4  1  0  0  0  0
  1 10  1  0  0  0  0
  4  5  1  0  0  0  0
  5  6  2  0  0  0  0
  5  9  1  0  0  0  0
  6  7  1  0  0  0  0
  7  8  2  0  0  0  0
  8  9  1  0  0  0  0
 10 11  2  0  0  0  0
 10 16  1  0  0  0  0
 11 12  1  0  0  0  0
 12 13  2  0  0  0  0
 13 14  1  0  0  0  0
 13 15  1  0  0  0  0
 15 16  2  0  0  0  0
M  END
> <ID>
4524

> <Formula>
C9H9N3O2S2

> <FW>
255.3167

> <DSSTox_CID>
6068

> <DSSTox_RID>
78004

> <DSSTox_GSID>
26068

> <DSSTox_FileID_Sort>
2687

> <TS_ChemName>
Sulfathiazole

> <TS_ChemName_Synonyms>


> <TS_CASRN>
72-14-0

> <CASRN_ChemName_Relationship>
primary

> <TS_Description>
single chemical compound

> <ChemNote>


> <STRUCTURE_Shown>
tested chemical

> <STRUCTURE_Formula>
C9H9N3O2S2

> <STRUCTURE_MW>
255.3167

> <STRUCTURE_ChemType>
defined organic

> <STRUCTURE_DefinedOrganicForm>
parent

> <STRUCTURE_IUPAC>
4-amino-N-(1,3-thiazol-2-yl)benzenesulfonamide

> <STRUCTURE_SMILES>
O=S(=O)(Nc1nccs1)c2ccc(N)cc2

> <STRUCTURE_SMILES_Desalt>
O=S(=O)(Nc1nccs1)c2ccc(N)cc2

> <Substance_modify_yyyymmdd>
20080429

$$$$
