72-33-3
ChemmineR-0915142007XD

 26 29  0  0  1  0  0  0  0  0  1 V2000
    7.8775   -1.6364    0.0000 C   0  0  0  0  0  0  0  0  0  0  0  0
    7.8775   -2.9303    0.0000 C   0  0  0  0  0  0  0  0  0  0  0  0
    6.7485   -3.5772    0.0000 C   0  0  0  0  0  0  0  0  0  0  0  0
    6.7485   -4.8838    0.0000 C   0  0  0  0  0  0  0  0  0  0  0  0
    5.6322   -5.5308    0.0000 C   0  0  0  0  0  0  0  0  0  0  0  0
    4.5032   -4.8838    0.0000 C   0  0  0  0  0  0  0  0  0  0  0  0
    4.5032   -3.5772    0.0000 C   0  0  0  0  0  0  0  0  0  0  0  0
    5.6322   -2.9303    0.0000 C   0  0  0  0  0  0  0  0  0  0  0  0
    5.6322   -1.6364    0.0000 C   0  0  0  0  0  0  0  0  0  0  0  0
    6.7485   -0.9894    0.0000 C   0  0  0  0  0  0  0  0  0  0  0  0
    3.3743   -2.9303    0.0000 C   0  0  0  0  0  0  0  0  0  0  0  0
    2.2453   -3.5772    0.0000 C   0  0  0  0  0  0  0  0  0  0  0  0
    2.2453   -4.8838    0.0000 C   0  0  0  0  0  0  0  0  0  0  0  0
    3.3743   -5.5308    0.0000 C   0  0  0  0  0  0  0  0  0  0  0  0
    9.1080   -3.3362    0.0000 C   0  0  0  0  0  0  0  0  0  0  0  0
    9.8818   -2.2833    0.0000 C   0  0  0  0  0  0  0  0  0  0  0  0
    9.1080   -1.2305    0.0000 C   0  0  0  0  0  0  0  0  0  0  0  0
    9.5139    0.0000    0.0000 O   0  0  0  0  0  0  0  0  0  0  0  0
    7.8775   -0.2791    0.0000 C   0  0  0  0  0  0  0  0  0  0  0  0
    6.7485   -2.4102    0.0000 H   0  0  0  0  0  0  0  0  0  0  0  0
    5.6322   -4.2242    0.0000 H   0  0  0  0  0  0  0  0  0  0  0  0
    7.8775   -4.2242    0.0000 H   0  0  0  0  0  0  0  0  0  0  0  0
   11.0742   -1.2939    0.0000 C   0  0  0  0  0  0  0  0  0  0  0  0
   12.6852   -1.2939    0.0000 C   0  0  0  0  0  0  0  0  0  0  0  0
    1.1290   -5.5308    0.0000 O   0  0  0  0  0  0  0  0  0  0  0  0
    0.0000   -4.8838    0.0000 C   0  0  0  0  0  0  0  0  0  0  0  0
  1  2  1  0  0  0  0
  1 10  1  0  0  0  0
  1 17  1  0  0  0  0
  1 19  1  1  0  0  0
  2  3  1  0  0  0  0
  2 15  1  0  0  0  0
  2 22  1  6  0  0  0
  3  4  1  0  0  0  0
  3  8  1  0  0  0  0
  3 20  1  1  0  0  0
  4  5  1  0  0  0  0
  5  6  1  0  0  0  0
  6  7  2  0  0  0  0
  6 14  1  0  0  0  0
  7  8  1  0  0  0  0
  7 11  1  0  0  0  0
  8  9  1  0  0  0  0
  8 21  1  6  0  0  0
  9 10  1  0  0  0  0
 11 12  2  0  0  0  0
 12 13  1  0  0  0  0
 13 25  1  0  0  0  0
 13 14  2  0  0  0  0
 15 16  1  0  0  0  0
 16 17  1  0  0  0  0
 17 18  1  1  0  0  0
 17 23  1  6  0  0  0
 23 24  3  0  0  0  0
 25 26  1  0  0  0  0
M  END
> <ID>
780

> <Formula>
C21H26O2

> <FW>
310.4299

> <DSSTox_CID>
814

> <DSSTox_RID>
75804

> <DSSTox_GSID>
20814

> <DSSTox_FileID_Sort>
488

> <TS_ChemName>
Mestranol

> <TS_ChemName_Synonyms>


> <TS_CASRN>
72-33-3

> <CASRN_ChemName_Relationship>
primary

> <TS_Description>
single chemical compound

> <ChemNote>
absolute stereochem

> <STRUCTURE_Shown>
tested chemical

> <STRUCTURE_Formula>
C21H26O2

> <STRUCTURE_MW>
310.4299

> <STRUCTURE_ChemType>
defined organic

> <STRUCTURE_DefinedOrganicForm>
parent

> <STRUCTURE_IUPAC>
(17beta)-17-ethynyl-3-methoxyestra-1,3,5(10)-trien-17-ol

> <STRUCTURE_SMILES>
COc3cc4CC[C@@H]2[C@H](CC[C@@]1(C)[C@H]2CC[C@@]1(O)C#C)c4cc3

> <STRUCTURE_SMILES_Desalt>
COc3cc4CC[C@@H]2[C@H](CC[C@@]1(C)[C@H]2CC[C@@]1(O)C#C)c4cc3

> <Substance_modify_yyyymmdd>
20080429

$$$$
