72-43-5
ChemmineR-0915142007XD

 21 22  0  0  0  0  0  0  0  0  1 V2000
    4.4361   -1.3366    0.0000 Cl   0  0  0  0  0  0  0  0  0  0  0  0
    5.7611   -1.3366    0.0000 C    0  0  0  0  0  0  0  0  0  0  0  0
    5.7611   -2.6616    0.0000 C    0  0  0  0  0  0  0  0  0  0  0  0
    6.9133   -3.3299    0.0000 C    0  0  0  0  0  0  0  0  0  0  0  0
    8.0656   -2.6616    0.0000 C    0  0  0  0  0  0  0  0  0  0  0  0
    9.2178   -3.3299    0.0000 C    0  0  0  0  0  0  0  0  0  0  0  0
    9.2178   -4.6550    0.0000 C    0  0  0  0  0  0  0  0  0  0  0  0
    8.0656   -5.3233    0.0000 C    0  0  0  0  0  0  0  0  0  0  0  0
    6.9133   -4.6550    0.0000 C    0  0  0  0  0  0  0  0  0  0  0  0
   10.3700   -5.3233    0.0000 O    0  0  0  0  0  0  0  0  0  0  0  0
   11.5222   -4.6550    0.0000 C    0  0  0  0  0  0  0  0  0  0  0  0
    4.6089   -3.3299    0.0000 C    0  0  0  0  0  0  0  0  0  0  0  0
    4.6089   -4.6550    0.0000 C    0  0  0  0  0  0  0  0  0  0  0  0
    3.4567   -5.3233    0.0000 C    0  0  0  0  0  0  0  0  0  0  0  0
    2.3044   -4.6550    0.0000 C    0  0  0  0  0  0  0  0  0  0  0  0
    2.3044   -3.3299    0.0000 C    0  0  0  0  0  0  0  0  0  0  0  0
    3.4567   -2.6616    0.0000 C    0  0  0  0  0  0  0  0  0  0  0  0
    1.1522   -5.3233    0.0000 O    0  0  0  0  0  0  0  0  0  0  0  0
    0.0000   -4.6550    0.0000 C    0  0  0  0  0  0  0  0  0  0  0  0
    5.7611    0.0000    0.0000 Cl   0  0  0  0  0  0  0  0  0  0  0  0
    7.0862   -1.3366    0.0000 Cl   0  0  0  0  0  0  0  0  0  0  0  0
  1  2  1  0  0  0  0
  2  3  1  0  0  0  0
  2 20  1  0  0  0  0
  2 21  1  0  0  0  0
  3  4  1  0  0  0  0
  3 12  1  0  0  0  0
  4  5  2  0  0  0  0
  4  9  1  0  0  0  0
  5  6  1  0  0  0  0
  6  7  2  0  0  0  0
  7  8  1  0  0  0  0
  7 10  1  0  0  0  0
  8  9  2  0  0  0  0
 10 11  1  0  0  0  0
 12 13  2  0  0  0  0
 12 17  1  0  0  0  0
 13 14  1  0  0  0  0
 14 15  2  0  0  0  0
 15 16  1  0  0  0  0
 15 18  1  0  0  0  0
 16 17  2  0  0  0  0
 18 19  1  0  0  0  0
M  END
> <ID>
793

> <Formula>
C16H15Cl3O2

> <FW>
345.6481

> <DSSTox_CID>
827

> <DSSTox_RID>
75813

> <DSSTox_GSID>
20827

> <DSSTox_FileID_Sort>
497

> <TS_ChemName>
Methoxychlor

> <TS_ChemName_Synonyms>
Methoxychlor (MXC) (1,1,1-trichloro-2,2-bis(p-methoxyphenyl)ethane) (p,p'- Methoxychlor)

> <TS_CASRN>
72-43-5

> <CASRN_ChemName_Relationship>
primary

> <TS_Description>
single chemical compound

> <ChemNote>


> <STRUCTURE_Shown>
tested chemical

> <STRUCTURE_Formula>
C16H15Cl3O2

> <STRUCTURE_MW>
345.6481

> <STRUCTURE_ChemType>
defined organic

> <STRUCTURE_DefinedOrganicForm>
parent

> <STRUCTURE_IUPAC>
1,1'-(2,2,2-trichloroethane-1,1-diyl)bis(4-methoxybenzene)

> <STRUCTURE_SMILES>
COc1ccc(cc1)C(c2ccc(OC)cc2)C(Cl)(Cl)Cl

> <STRUCTURE_SMILES_Desalt>
COc1ccc(cc1)C(c2ccc(OC)cc2)C(Cl)(Cl)Cl

> <Substance_modify_yyyymmdd>
20080429

$$$$
