72-44-6
ChemmineR-0915142007XD

 19 21  0  0  0  0  0  0  0  0  1 V2000
    8.6443   -3.4577    0.0000 C   0  0  0  0  0  0  0  0  0  0  0  0
    7.9787   -4.6074    0.0000 C   0  0  0  0  0  0  0  0  0  0  0  0
    6.6475   -4.6074    0.0000 C   0  0  0  0  0  0  0  0  0  0  0  0
    5.9819   -3.4577    0.0000 C   0  0  0  0  0  0  0  0  0  0  0  0
    6.6475   -2.3080    0.0000 C   0  0  0  0  0  0  0  0  0  0  0  0
    7.9787   -2.3080    0.0000 C   0  0  0  0  0  0  0  0  0  0  0  0
    5.9819   -1.1497    0.0000 N   0  0  0  0  0  0  0  0  0  0  0  0
    4.6507   -1.1497    0.0000 C   0  0  0  0  0  0  0  0  0  0  0  0
    3.9937    0.0000    0.0000 C   0  0  0  0  0  0  0  0  0  0  0  0
    3.9937   -2.3080    0.0000 N   0  0  0  0  0  0  0  0  0  0  0  0
    2.6625   -2.3080    0.0000 C   0  0  0  0  0  0  0  0  0  0  0  0
    1.9968   -3.4577    0.0000 C   0  0  0  0  0  0  0  0  0  0  0  0
    2.6625   -4.6074    0.0000 C   0  0  0  0  0  0  0  0  0  0  0  0
    0.6656   -3.4577    0.0000 C   0  0  0  0  0  0  0  0  0  0  0  0
    0.0000   -2.3080    0.0000 C   0  0  0  0  0  0  0  0  0  0  0  0
    0.6656   -1.1497    0.0000 C   0  0  0  0  0  0  0  0  0  0  0  0
    1.9968   -1.1497    0.0000 C   0  0  0  0  0  0  0  0  0  0  0  0
    4.6507   -3.4577    0.0000 C   0  0  0  0  0  0  0  0  0  0  0  0
    3.9937   -4.6074    0.0000 O   0  0  0  0  0  0  0  0  0  0  0  0
  1  2  2  0  0  0  0
  1  6  1  0  0  0  0
  2  3  1  0  0  0  0
  3  4  2  0  0  0  0
  4  5  1  0  0  0  0
  4 18  1  0  0  0  0
  5  6  2  0  0  0  0
  5  7  1  0  0  0  0
  7  8  2  0  0  0  0
  8  9  1  0  0  0  0
  8 10  1  0  0  0  0
 10 11  1  0  0  0  0
 10 18  1  0  0  0  0
 11 12  2  0  0  0  0
 11 17  1  0  0  0  0
 12 13  1  0  0  0  0
 12 14  1  0  0  0  0
 14 15  2  0  0  0  0
 15 16  1  0  0  0  0
 16 17  2  0  0  0  0
 18 19  2  0  0  0  0
M  END
> <ID>
2945

> <Formula>
C16H14N2O

> <FW>
250.2952

> <DSSTox_CID>
3279

> <DSSTox_RID>
76954

> <DSSTox_GSID>
23279

> <DSSTox_FileID_Sort>
1638

> <TS_ChemName>
Methaqualone

> <TS_ChemName_Synonyms>


> <TS_CASRN>
72-44-6

> <CASRN_ChemName_Relationship>
primary

> <TS_Description>
single chemical compound

> <ChemNote>


> <STRUCTURE_Shown>
tested chemical

> <STRUCTURE_Formula>
C16H14N2O

> <STRUCTURE_MW>
250.2952

> <STRUCTURE_ChemType>
defined organic

> <STRUCTURE_DefinedOrganicForm>
parent

> <STRUCTURE_IUPAC>
2-methyl-3-(2-methylphenyl)quinazolin-4(3H)-one

> <STRUCTURE_SMILES>
Cc1ccccc1N3C(C)=Nc2ccccc2C3=O

> <STRUCTURE_SMILES_Desalt>
Cc1ccccc1N3C(C)=Nc2ccccc2C3=O

> <Substance_modify_yyyymmdd>
20080429

$$$$
