72-48-0
ChemmineR-0915142007XD

 18 20  0  0  0  0  0  0  0  0  1 V2000
    8.0636   -1.3305    0.0000 O   0  0  0  0  0  0  0  0  0  0  0  0
    6.9105   -1.9836    0.0000 C   0  0  0  0  0  0  0  0  0  0  0  0
    6.9105   -3.3141    0.0000 C   0  0  0  0  0  0  0  0  0  0  0  0
    5.7574   -3.9915    0.0000 C   0  0  0  0  0  0  0  0  0  0  0  0
    4.6043   -3.3141    0.0000 C   0  0  0  0  0  0  0  0  0  0  0  0
    3.4431   -3.9915    0.0000 C   0  0  0  0  0  0  0  0  0  0  0  0
    3.4431   -5.3220    0.0000 O   0  0  0  0  0  0  0  0  0  0  0  0
    2.2901   -3.3141    0.0000 C   0  0  0  0  0  0  0  0  0  0  0  0
    2.2901   -1.9836    0.0000 C   0  0  0  0  0  0  0  0  0  0  0  0
    1.1531   -1.3305    0.0000 C   0  0  0  0  0  0  0  0  0  0  0  0
    0.0000   -1.9836    0.0000 C   0  0  0  0  0  0  0  0  0  0  0  0
    0.0000   -3.3141    0.0000 C   0  0  0  0  0  0  0  0  0  0  0  0
    1.1531   -3.9915    0.0000 C   0  0  0  0  0  0  0  0  0  0  0  0
    3.4431   -1.3305    0.0000 C   0  0  0  0  0  0  0  0  0  0  0  0
    3.4431    0.0000    0.0000 O   0  0  0  0  0  0  0  0  0  0  0  0
    4.6043   -1.9836    0.0000 C   0  0  0  0  0  0  0  0  0  0  0  0
    5.7574   -1.3305    0.0000 C   0  0  0  0  0  0  0  0  0  0  0  0
    5.7574    0.0000    0.0000 O   0  0  0  0  0  0  0  0  0  0  0  0
  1  2  1  0  0  0  0
  2  3  2  0  0  0  0
  2 17  1  0  0  0  0
  3  4  1  0  0  0  0
  4  5  2  0  0  0  0
  5  6  1  0  0  0  0
  5 16  1  0  0  0  0
  6  7  2  0  0  0  0
  6  8  1  0  0  0  0
  8  9  2  0  0  0  0
  8 13  1  0  0  0  0
  9 10  1  0  0  0  0
  9 14  1  0  0  0  0
 10 11  2  0  0  0  0
 11 12  1  0  0  0  0
 12 13  2  0  0  0  0
 14 15  2  0  0  0  0
 14 16  1  0  0  0  0
 16 17  2  0  0  0  0
 17 18  1  0  0  0  0
M  END
> <ID>
11324

> <Formula>
C14H8O4

> <FW>
240.2109

> <DSSTox_CID>
25960

> <DSSTox_RID>
81256

> <DSSTox_GSID>
45960

> <DSSTox_FileID_Sort>
5937

> <TS_ChemName>
Alizarin

> <TS_ChemName_Synonyms>


> <TS_CASRN>
72-48-0

> <CASRN_ChemName_Relationship>
primary

> <TS_Description>
single chemical compound

> <ChemNote>


> <STRUCTURE_Shown>
tested chemical

> <STRUCTURE_Formula>
C14H8O4

> <STRUCTURE_MW>
240.2109

> <STRUCTURE_ChemType>
defined organic

> <STRUCTURE_DefinedOrganicForm>
parent

> <STRUCTURE_IUPAC>
1,2-dihydroxyanthracene-9,10-dione

> <STRUCTURE_SMILES>
O=C3c1ccccc1C(=O)c2c3ccc(O)c2O

> <STRUCTURE_SMILES_Desalt>
O=C3c1ccccc1C(=O)c2c3ccc(O)c2O

> <Substance_modify_yyyymmdd>
20130501

$$$$
