72-57-1
ChemmineR-0915142007XD

 62 63  0  0  0  0  0  0  0  0  2 V2000
   30.0068   -6.5415    0.0000 Na   0  3  0  0  0  0  0  0  0  0  0  0
   22.7151    0.0000    0.0000 Na   0  3  0  0  0  0  0  0  0  0  0  0
    6.2714   -8.1018    0.0000 Na   0  3  0  0  0  0  0  0  0  0  0  0
    0.0000   -1.0802    0.0000 Na   0  3  0  0  0  0  0  0  0  0  0  0
   18.0341   -6.0914    0.0000 C    0  0  0  0  0  0  0  0  0  0  0  0
   17.3739   -4.9511    0.0000 C    0  0  0  0  0  0  0  0  0  0  0  0
   16.0236   -4.9511    0.0000 C    0  0  0  0  0  0  0  0  0  0  0  0
   15.3935   -3.7809    0.0000 C    0  0  0  0  0  0  0  0  0  0  0  0
   16.0236   -2.6406    0.0000 C    0  0  0  0  0  0  0  0  0  0  0  0
   17.3739   -2.6406    0.0000 C    0  0  0  0  0  0  0  0  0  0  0  0
   18.0341   -3.7809    0.0000 C    0  0  0  0  0  0  0  0  0  0  0  0
   19.3544   -3.7809    0.0000 N    0  0  0  0  0  0  0  0  0  0  0  0
   20.7047   -3.7809    0.0000 N    0  0  0  0  0  0  0  0  0  0  0  0
   22.0250   -3.7809    0.0000 C    0  0  0  0  0  0  0  0  0  0  0  0
   22.6851   -2.6406    0.0000 C    0  0  0  0  0  0  0  0  0  0  0  0
   24.0054   -2.6406    0.0000 C    0  0  0  0  0  0  0  0  0  0  0  0
   24.6956   -3.7809    0.0000 C    0  0  0  0  0  0  0  0  0  0  0  0
   26.0159   -3.7809    0.0000 C    0  0  0  0  0  0  0  0  0  0  0  0
   26.6760   -4.9511    0.0000 C    0  0  0  0  0  0  0  0  0  0  0  0
   26.0159   -6.0914    0.0000 C    0  0  0  0  0  0  0  0  0  0  0  0
   24.6956   -6.0914    0.0000 C    0  0  0  0  0  0  0  0  0  0  0  0
   24.0054   -7.2616    0.0000 N    0  0  0  0  0  0  0  0  0  0  0  0
   24.0054   -4.9511    0.0000 C    0  0  0  0  0  0  0  0  0  0  0  0
   22.6851   -4.9511    0.0000 C    0  0  0  0  0  0  0  0  0  0  0  0
   22.0250   -6.0914    0.0000 O    0  0  0  0  0  0  0  0  0  0  0  0
   27.9963   -4.9511    0.0000 S    0  0  0  0  0  0  0  0  0  0  0  0
   27.9963   -6.2714    0.0000 O    0  5  0  0  0  0  0  0  0  0  0  0
   27.9963   -3.6308    0.0000 O    0  0  0  0  0  0  0  0  0  0  0  0
   29.3466   -4.9511    0.0000 O    0  0  0  0  0  0  0  0  0  0  0  0
   22.0250   -1.5003    0.0000 S    0  0  0  0  0  0  0  0  0  0  0  0
   23.1952   -0.8402    0.0000 O    0  5  0  0  0  0  0  0  0  0  0  0
   20.8847   -2.1605    0.0000 O    0  0  0  0  0  0  0  0  0  0  0  0
   21.3648   -0.3301    0.0000 O    0  0  0  0  0  0  0  0  0  0  0  0
   14.0432   -3.7809    0.0000 C    0  0  0  0  0  0  0  0  0  0  0  0
   13.3830   -4.9511    0.0000 C    0  0  0  0  0  0  0  0  0  0  0  0
   12.0327   -4.9511    0.0000 C    0  0  0  0  0  0  0  0  0  0  0  0
   11.4026   -3.7809    0.0000 C    0  0  0  0  0  0  0  0  0  0  0  0
   12.0327   -2.6406    0.0000 C    0  0  0  0  0  0  0  0  0  0  0  0
   13.3830   -2.6406    0.0000 C    0  0  0  0  0  0  0  0  0  0  0  0
   10.0523   -3.7809    0.0000 N    0  0  0  0  0  0  0  0  0  0  0  0
    8.7320   -3.7809    0.0000 N    0  0  0  0  0  0  0  0  0  0  0  0
    7.4117   -3.7809    0.0000 C    0  0  0  0  0  0  0  0  0  0  0  0
    6.7215   -4.9511    0.0000 C    0  0  0  0  0  0  0  0  0  0  0  0
    5.4012   -4.9511    0.0000 C    0  0  0  0  0  0  0  0  0  0  0  0
    4.7411   -3.7809    0.0000 C    0  0  0  0  0  0  0  0  0  0  0  0
    3.4208   -3.7809    0.0000 C    0  0  0  0  0  0  0  0  0  0  0  0
    2.7306   -2.6406    0.0000 C    0  0  0  0  0  0  0  0  0  0  0  0
    3.4208   -1.5003    0.0000 C    0  0  0  0  0  0  0  0  0  0  0  0
    4.7411   -1.5003    0.0000 C    0  0  0  0  0  0  0  0  0  0  0  0
    5.4012   -0.3301    0.0000 N    0  0  0  0  0  0  0  0  0  0  0  0
    5.4012   -2.6406    0.0000 C    0  0  0  0  0  0  0  0  0  0  0  0
    6.7215   -2.6406    0.0000 C    0  0  0  0  0  0  0  0  0  0  0  0
    7.4117   -1.5003    0.0000 O    0  0  0  0  0  0  0  0  0  0  0  0
    1.4103   -2.6406    0.0000 S    0  0  0  0  0  0  0  0  0  0  0  0
    1.4103   -1.3203    0.0000 O    0  5  0  0  0  0  0  0  0  0  0  0
    1.4103   -3.9609    0.0000 O    0  0  0  0  0  0  0  0  0  0  0  0
    0.0900   -2.6406    0.0000 O    0  0  0  0  0  0  0  0  0  0  0  0
    7.4117   -6.0914    0.0000 S    0  0  0  0  0  0  0  0  0  0  0  0
    8.5519   -5.4312    0.0000 O    0  5  0  0  0  0  0  0  0  0  0  0
    6.2414   -6.7515    0.0000 O    0  0  0  0  0  0  0  0  0  0  0  0
    8.0718   -7.2616    0.0000 O    0  0  0  0  0  0  0  0  0  0  0  0
   11.4026   -6.0914    0.0000 C    0  0  0  0  0  0  0  0  0  0  0  0
  5  6  1  0  0  0  0
  6  7  2  0  0  0  0
  6 11  1  0  0  0  0
  7  8  1  0  0  0  0
  8  9  2  0  0  0  0
  8 34  1  0  0  0  0
  9 10  1  0  0  0  0
 10 11  2  0  0  0  0
 11 12  1  0  0  0  0
 12 13  2  0  0  0  0
 13 14  1  0  0  0  0
 14 15  2  0  0  0  0
 14 24  1  0  0  0  0
 15 16  1  0  0  0  0
 15 30  1  0  0  0  0
 16 17  2  0  0  0  0
 17 18  1  0  0  0  0
 17 23  1  0  0  0  0
 18 19  2  0  0  0  0
 19 20  1  0  0  0  0
 19 26  1  0  0  0  0
 20 21  2  0  0  0  0
 21 22  1  0  0  0  0
 21 23  1  0  0  0  0
 23 24  2  0  0  0  0
 24 25  1  0  0  0  0
 26 27  1  0  0  0  0
 26 28  2  0  0  0  0
 26 29  2  0  0  0  0
 30 31  1  0  0  0  0
 30 32  2  0  0  0  0
 30 33  2  0  0  0  0
 34 35  2  0  0  0  0
 34 39  1  0  0  0  0
 35 36  1  0  0  0  0
 36 37  2  0  0  0  0
 36 62  1  0  0  0  0
 37 38  1  0  0  0  0
 37 40  1  0  0  0  0
 38 39  2  0  0  0  0
 40 41  2  0  0  0  0
 41 42  1  0  0  0  0
 42 43  2  0  0  0  0
 42 52  1  0  0  0  0
 43 44  1  0  0  0  0
 43 58  1  0  0  0  0
 44 45  2  0  0  0  0
 45 46  1  0  0  0  0
 45 51  1  0  0  0  0
 46 47  2  0  0  0  0
 47 48  1  0  0  0  0
 47 54  1  0  0  0  0
 48 49  2  0  0  0  0
 49 50  1  0  0  0  0
 49 51  1  0  0  0  0
 51 52  2  0  0  0  0
 52 53  1  0  0  0  0
 54 55  1  0  0  0  0
 54 56  2  0  0  0  0
 54 57  2  0  0  0  0
 58 59  1  0  0  0  0
 58 60  2  0  0  0  0
 58 61  2  0  0  0  0
M  END
> <ID>
4629

> <Formula>
C34H24N6Na4O14S4

> <FW>
960.8052 (22.9892+22.9892+22.9892+22.9892+868.8484)

> <DSSTox_CID>
6268

> <DSSTox_RID>
78083

> <DSSTox_GSID>
26268

> <DSSTox_FileID_Sort>
2766

> <TS_ChemName>
C.I. Direct Blue 14

> <TS_ChemName_Synonyms>
C.I. Direct Blue 14 (Trypan blue) (Direct Blue 3B)

> <TS_CASRN>
72-57-1

> <CASRN_ChemName_Relationship>
primary

> <TS_Description>
single chemical compound

> <ChemNote>
C.I. 23850; parent [2538-83-2]

> <STRUCTURE_Shown>
tested chemical

> <STRUCTURE_Formula>
C34H24N6Na4O14S4

> <STRUCTURE_MW>
960.8052

> <STRUCTURE_ChemType>
defined organic

> <STRUCTURE_DefinedOrganicForm>
salt

> <STRUCTURE_IUPAC>
tetrasodium 3,3'-[(3,3'-dimethylbiphenyl-4,4'-diyl)didiazene-2,1-diyl]bis(5-amino-4-hydroxynaphthalene-2,7-disulfonate)

> <STRUCTURE_SMILES>
[Na+].[Na+].[Na+].[Na+].[O-]S(=O)(=O)c5cc(N)c6c(O)c(/N=N/c1ccc(cc1C)c4ccc(/N=N/c3c(O)c2c(cc(cc2N)S([O-])(=O)=O)cc3S([O-])(=O)=O)c(C)c4)c(cc6c5)S([O-])(=O)=O

> <STRUCTURE_SMILES_Desalt>
O=S(=O)(O)c5cc(N)c6c(O)c(/N=N/c1ccc(cc1C)c4ccc(/N=N/c3c(O)c2c(cc(cc2N)S(=O)(=O)O)cc3S(=O)(=O)O)c(C)c4)c(cc6c5)S(=O)(=O)O

> <Substance_modify_yyyymmdd>
20110805

$$$$
