72-80-0
ChemmineR-0915142007XD

 14 15  0  0  0  0  0  0  0  0  1 V2000
    3.4283   -2.0090    0.0000 C    0  0  0  0  0  0  0  0  0  0  0  0
    3.4283   -3.3186    0.0000 C    0  0  0  0  0  0  0  0  0  0  0  0
    2.2970   -1.3439    0.0000 C    0  0  0  0  0  0  0  0  0  0  0  0
    4.5597   -1.3439    0.0000 N    0  0  0  0  0  0  0  0  0  0  0  0
    1.1313   -1.9816    0.0000 C    0  0  0  0  0  0  0  0  0  0  0  0
    2.2970   -3.9906    0.0000 C    0  0  0  0  0  0  0  0  0  0  0  0
    1.1313   -3.3529    0.0000 C    0  0  0  0  0  0  0  0  0  0  0  0
    4.5597   -3.9906    0.0000 C    0  0  0  0  0  0  0  0  0  0  0  0
    5.7253   -1.9816    0.0000 C    0  0  0  0  0  0  0  0  0  0  0  0
    2.2970    0.0000    0.0000 O    0  0  0  0  0  0  0  0  0  0  0  0
    0.0000   -1.2959    0.0000 Cl   0  0  0  0  0  0  0  0  0  0  0  0
    2.2970   -5.3276    0.0000 Cl   0  0  0  0  0  0  0  0  0  0  0  0
    5.7253   -3.3529    0.0000 C    0  0  0  0  0  0  0  0  0  0  0  0
    6.8566   -1.2959    0.0000 C    0  0  0  0  0  0  0  0  0  0  0  0
  1  2  1  0  0  0  0
  1  3  1  0  0  0  0
  1  4  2  0  0  0  0
  2  6  1  0  0  0  0
  2  8  2  0  0  0  0
  3  5  2  0  0  0  0
  3 10  1  0  0  0  0
  4  9  1  0  0  0  0
  5  7  1  0  0  0  0
  5 11  1  0  0  0  0
  6 12  1  0  0  0  0
  6  7  2  0  0  0  0
  8 13  1  0  0  0  0
  9 13  2  0  0  0  0
  9 14  1  0  0  0  0
M  END
> <ID>
13983

> <Formula>
C10H7Cl2NO

> <FW>
228.0747

> <DSSTox_CID>
28924

> <DSSTox_RID>
83190

> <DSSTox_GSID>
48998

> <DSSTox_FileID_Sort>
7866

> <TS_ChemName>
5,7-Dichloro-8-hydroxy-2-methylquinoline

> <TS_ChemName_Synonyms>


> <TS_CASRN>
72-80-0

> <CASRN_ChemName_Relationship>
primary

> <TS_Description>
single chemical compound

> <ChemNote>


> <STRUCTURE_Shown>
tested chemical

> <STRUCTURE_Formula>
C10H7Cl2NO

> <STRUCTURE_MW>
228.0747

> <STRUCTURE_ChemType>
defined organic

> <STRUCTURE_DefinedOrganicForm>
parent

> <STRUCTURE_IUPAC>
5,7-dichloro-2-methylquinolin-8-ol

> <STRUCTURE_SMILES>
Oc1c(Cl)cc(Cl)c2ccc(C)nc12

> <STRUCTURE_SMILES_Desalt>
Oc1c(Cl)cc(Cl)c2ccc(C)nc12

> <Substance_modify_yyyymmdd>
20111204

$$$$
