7212-44-4
ChemmineR-0915142007XD

 16 15  0  0  0  0  0  0  0  0  1 V2000
   11.5129   -0.0127    0.0000 C   0  0  0  0  0  0  0  0  0  0  0  0
   10.3603   -0.6713    0.0000 C   0  0  0  0  0  0  0  0  0  0  0  0
    5.7628   -0.6713    0.0000 C   0  0  0  0  0  0  0  0  0  0  0  0
    1.1526   -0.6713    0.0000 C   0  0  0  0  0  0  0  0  0  0  0  0
    2.3051   -0.0127    0.0000 C   0  0  0  0  0  0  0  0  0  0  0  0
    6.9027   -0.0127    0.0000 C   0  0  0  0  0  0  0  0  0  0  0  0
   12.6654   -0.6713    0.0000 C   0  0  0  0  0  0  0  0  0  0  0  0
   11.5129   -1.3425    0.0000 O   0  0  0  0  0  0  0  0  0  0  0  0
    3.4577   -0.6713    0.0000 C   0  0  0  0  0  0  0  0  0  0  0  0
    8.0552   -0.6713    0.0000 C   0  0  0  0  0  0  0  0  0  0  0  0
    4.6102   -0.0127    0.0000 C   0  0  0  0  0  0  0  0  0  0  0  0
    9.2078   -0.0127    0.0000 C   0  0  0  0  0  0  0  0  0  0  0  0
    1.1526   -2.0138    0.0000 C   0  0  0  0  0  0  0  0  0  0  0  0
    0.0000    0.0000    0.0000 C   0  0  0  0  0  0  0  0  0  0  0  0
    5.7628   -2.0138    0.0000 C   0  0  0  0  0  0  0  0  0  0  0  0
    9.2078   -1.3425    0.0000 C   0  0  0  0  0  0  0  0  0  0  0  0
  1  2  1  0  0  0  0
  1  7  2  0  0  0  0
  2  8  1  0  0  0  0
  2 12  1  0  0  0  0
  2 16  1  0  0  0  0
  3  6  2  3  0  0  0
  3 11  1  0  0  0  0
  3 15  1  0  0  0  0
  4  5  2  0  0  0  0
  4 13  1  0  0  0  0
  4 14  1  0  0  0  0
  5  9  1  0  0  0  0
  6 10  1  0  0  0  0
  9 11  1  0  0  0  0
 10 12  1  0  0  0  0
M  END
> <ID>
2085

> <Formula>
C15H26O

> <FW>
222.3663

> <DSSTox_CID>
2247

> <DSSTox_RID>
76528

> <DSSTox_GSID>
22247

> <DSSTox_FileID_Sort>
1212

> <TS_ChemName>
Nerolidol

> <TS_ChemName_Synonyms>
Nerolidol (3-hydroxy-3,7,11-trimethyl-1,6,10-dodecatriene)

> <TS_CASRN>
7212-44-4

> <CASRN_ChemName_Relationship>
primary

> <TS_Description>
mixture of Z,E isomers

> <ChemNote>
mixture of Z,E isomers

> <STRUCTURE_Shown>
representative isomer in mixture

> <STRUCTURE_Formula>
C15H26O

> <STRUCTURE_MW>
222.3663

> <STRUCTURE_ChemType>
defined organic

> <STRUCTURE_DefinedOrganicForm>
parent

> <STRUCTURE_IUPAC>
3,7,11-trimethyldodeca-1,6,10-trien-3-ol

> <STRUCTURE_SMILES>
C/C(C)=C\CCC(C)=CCCC(C)(O)C=C

> <STRUCTURE_SMILES_Desalt>
C/C(C)=C\CCC(C)=CCCC(C)(O)C=C

> <Substance_modify_yyyymmdd>
20080429

$$$$
