72178-02-0
ChemmineR-0915142007XD

 28 29  0  0  0  0  0  0  0  0  2 V2000
   11.5025   -3.3279    0.0000 O    0  5  0  0  0  0  0  0  0  0  0  0
   10.3564   -5.3163    0.0000 O    0  0  0  0  0  0  0  0  0  0  0  0
    1.1461   -4.0045    0.0000 C    0  0  0  0  0  0  0  0  0  0  0  0
    0.0000   -4.6673    0.0000 F    0  0  0  0  0  0  0  0  0  0  0  0
    1.8227   -5.1506    0.0000 F    0  0  0  0  0  0  0  0  0  0  0  0
    0.4833   -2.8446    0.0000 F    0  0  0  0  0  0  0  0  0  0  0  0
   13.8085   -0.6766    0.0000 C    0  0  0  0  0  0  0  0  0  0  0  0
   13.3252   -2.4855    0.0000 O    0  0  0  0  0  0  0  0  0  0  0  0
   12.6624   -1.3394    0.0000 S    0  0  0  0  0  0  0  0  0  0  0  0
   10.3564    0.0000    0.0000 O    0  0  0  0  0  0  0  0  0  0  0  0
   11.5025   -2.0022    0.0000 N    0  0  0  0  0  0  0  0  0  0  0  0
   10.3564   -4.0045    0.0000 N    0  3  0  0  0  0  0  0  0  0  0  0
   10.3564   -1.3394    0.0000 C    0  0  0  0  0  0  0  0  0  0  0  0
    5.7581   -4.0045    0.0000 Cl   0  0  0  0  0  0  0  0  0  0  0  0
    5.7581   -1.3394    0.0000 O    0  0  0  0  0  0  0  0  0  0  0  0
    9.1965   -2.0022    0.0000 C    0  0  0  0  0  0  0  0  0  0  0  0
    9.1965   -3.3279    0.0000 C    0  0  0  0  0  0  0  0  0  0  0  0
    8.0504   -1.3394    0.0000 C    0  0  0  0  0  0  0  0  0  0  0  0
    8.0504   -4.0045    0.0000 C    0  0  0  0  0  0  0  0  0  0  0  0
    6.9043   -2.0022    0.0000 C    0  0  0  0  0  0  0  0  0  0  0  0
    6.9043   -3.3279    0.0000 C    0  0  0  0  0  0  0  0  0  0  0  0
    4.6120   -2.0022    0.0000 C    0  0  0  0  0  0  0  0  0  0  0  0
    4.6120   -3.3279    0.0000 C    0  0  0  0  0  0  0  0  0  0  0  0
    3.4521   -1.3394    0.0000 C    0  0  0  0  0  0  0  0  0  0  0  0
    3.4521   -4.0045    0.0000 C    0  0  0  0  0  0  0  0  0  0  0  0
    2.3060   -2.0022    0.0000 C    0  0  0  0  0  0  0  0  0  0  0  0
    2.3060   -3.3279    0.0000 C    0  0  0  0  0  0  0  0  0  0  0  0
   11.9858   -0.1795    0.0000 O    0  0  0  0  0  0  0  0  0  0  0  0
  1 12  1  0  0  0  0
  2 12  2  0  0  0  0
  3  4  1  0  0  0  0
  3  5  1  0  0  0  0
  3  6  1  0  0  0  0
  3 27  1  0  0  0  0
  7  9  1  0  0  0  0
  8  9  2  0  0  0  0
  9 11  1  0  0  0  0
  9 28  2  0  0  0  0
 10 13  2  0  0  0  0
 11 13  1  0  0  0  0
 12 17  1  0  0  0  0
 13 16  1  0  0  0  0
 14 23  1  0  0  0  0
 15 20  1  0  0  0  0
 15 22  1  0  0  0  0
 16 17  1  0  0  0  0
 16 18  2  0  0  0  0
 17 19  2  0  0  0  0
 18 20  1  0  0  0  0
 19 21  1  0  0  0  0
 20 21  2  0  0  0  0
 22 23  1  0  0  0  0
 22 24  2  0  0  0  0
 23 25  2  0  0  0  0
 24 26  1  0  0  0  0
 25 27  1  0  0  0  0
 26 27  2  0  0  0  0
M  END
> <ID>
3510

> <Formula>
C15H10ClF3N2O6S

> <FW>
438.7629

> <DSSTox_CID>
4112

> <DSSTox_RID>
77296

> <DSSTox_GSID>
24112

> <DSSTox_FileID_Sort>
1979

> <TS_ChemName>
Fomesafen

> <TS_ChemName_Synonyms>


> <TS_CASRN>
72178-02-0

> <CASRN_ChemName_Relationship>
primary

> <TS_Description>
single chemical compound

> <ChemNote>


> <STRUCTURE_Shown>
tested chemical

> <STRUCTURE_Formula>
C15H10ClF3N2O6S

> <STRUCTURE_MW>
438.7629

> <STRUCTURE_ChemType>
defined organic

> <STRUCTURE_DefinedOrganicForm>
parent

> <STRUCTURE_IUPAC>
5-[2-chloro-4-(trifluoromethyl)phenoxy]-N-(methylsulfonyl)-2-nitrobenzamide

> <STRUCTURE_SMILES>
Clc2cc(ccc2Oc1cc(C(=O)NS(C)(=O)=O)c(cc1)[N+]([O-])=O)C(F)(F)F

> <STRUCTURE_SMILES_Desalt>
Clc2cc(ccc2Oc1cc(C(=O)NS(C)(=O)=O)c(cc1)[N+]([O-])=O)C(F)(F)F

> <Substance_modify_yyyymmdd>
20080429

$$$$
