7220-79-3
ChemmineR-0915142007XD

 24 22  0  0  0  0  0  0  0  0  2 V2000
    7.3131   -2.6343    0.0000 S    0  3  0  0  0  0  0  0  0  0  0  0
    7.3131    0.0000    0.0000 N    0  0  0  0  0  0  0  0  0  0  0  0
    8.4664   -1.9659    0.0000 C    0  0  0  0  0  0  0  0  0  0  0  0
    6.1860   -1.9659    0.0000 C    0  0  0  0  0  0  0  0  0  0  0  0
    5.0327   -2.6343    0.0000 C    0  0  0  0  0  0  0  0  0  0  0  0
    9.6328   -2.6343    0.0000 C    0  0  0  0  0  0  0  0  0  0  0  0
    8.4664   -0.6291    0.0000 C    0  0  0  0  0  0  0  0  0  0  0  0
    6.1860   -0.6291    0.0000 C    0  0  0  0  0  0  0  0  0  0  0  0
   10.7861   -1.9659    0.0000 C    0  0  0  0  0  0  0  0  0  0  0  0
    3.8662   -1.9659    0.0000 C    0  0  0  0  0  0  0  0  0  0  0  0
    2.7129   -2.6605    0.0000 N    0  0  0  0  0  0  0  0  0  0  0  0
   11.9526   -2.6605    0.0000 N    0  0  0  0  0  0  0  0  0  0  0  0
    3.8662   -0.6291    0.0000 C    0  0  0  0  0  0  0  0  0  0  0  0
   10.7861   -0.6291    0.0000 C    0  0  0  0  0  0  0  0  0  0  0  0
    5.0327    0.0000    0.0000 C    0  0  0  0  0  0  0  0  0  0  0  0
    9.6328    0.0000    0.0000 C    0  0  0  0  0  0  0  0  0  0  0  0
   11.9526   -4.0104    0.0000 C    0  0  0  0  0  0  0  0  0  0  0  0
    1.5727   -1.9921    0.0000 C    0  0  0  0  0  0  0  0  0  0  0  0
   13.1059   -1.9921    0.0000 C    0  0  0  0  0  0  0  0  0  0  0  0
    2.7129   -3.9842    0.0000 C    0  0  0  0  0  0  0  0  0  0  0  0
    7.1558   -4.0235    0.0000 Cl   0  5  0  0  0  0  0  0  0  0  0  0
   10.0129   -5.0458    0.0000 O    0  0  0  0  0  0  0  0  0  0  0  0
    5.0327   -5.6617    0.0000 O    0  0  0  0  0  0  0  0  0  0  0  0
    0.0000   -4.9147    0.0000 O    0  0  0  0  0  0  0  0  0  0  0  0
  1  3  1  0  0  0  0
  1  4  2  0  0  0  0
  2  8  2  0  0  0  0
  2  7  1  0  0  0  0
  3  6  1  0  0  0  0
  3  7  2  0  0  0  0
  4  5  1  0  0  0  0
  4  8  1  0  0  0  0
  5 10  2  0  0  0  0
  6  9  2  0  0  0  0
  7 16  1  0  0  0  0
  8 15  1  0  0  0  0
  9 12  1  0  0  0  0
  9 14  1  0  0  0  0
 10 11  1  0  0  0  0
 10 13  1  0  0  0  0
 11 18  1  0  0  0  0
 11 20  1  0  0  0  0
 12 17  1  0  0  0  0
 12 19  1  0  0  0  0
 13 15  2  0  0  0  0
 14 16  2  0  0  0  0
M  END
> <ID>
4292

> <Formula>
C16H24ClN3O3S

> <FW>
373.8981 (284.3987+35.4535+18.0153+18.0153+18.0153)

> <DSSTox_CID>
5600

> <DSSTox_RID>
77848

> <DSSTox_GSID>
25600

> <DSSTox_FileID_Sort>
2531

> <TS_ChemName>
Methylene Blue trihydrate

> <TS_ChemName_Synonyms>


> <TS_CASRN>
7220-79-3

> <CASRN_ChemName_Relationship>
primary

> <TS_Description>
single chemical compound

> <ChemNote>
C.I. 52015

> <STRUCTURE_Shown>
tested chemical

> <STRUCTURE_Formula>
C16H24ClN3O3S

> <STRUCTURE_MW>
373.8981

> <STRUCTURE_ChemType>
defined organic

> <STRUCTURE_DefinedOrganicForm>
salt complex

> <STRUCTURE_IUPAC>
3,7-bis(dimethylamino)phenothiazin-5-ium chloride hydrate (1:1:3)

> <STRUCTURE_SMILES>
[Cl-].O.O.O.CN(C)c1ccc2nc3ccc(cc3[s+]c2c1)N(C)C

> <STRUCTURE_SMILES_Desalt>
CN(C)c1ccc2nc3ccc(cc3[s+]c2c1)N(C)C

> <Substance_modify_yyyymmdd>
20080429

$$$$
