7225-61-8
ChemmineR-0915142007XD

 22 21  0  0  0  0  0  0  0  0  2 V2000
    5.9929   -3.5590    0.0000 C    0  0  0  0  0  0  0  0  0  0  0  0
    7.3255   -3.5590    0.0000 I    0  0  0  0  0  0  0  0  0  0  0  0
    5.3305   -4.7001    0.0000 C    0  0  0  0  0  0  0  0  0  0  0  0
    5.9929   -5.8572    0.0000 N    0  0  0  0  0  0  0  0  0  0  0  0
    7.3255   -5.8572    0.0000 C    0  0  0  0  0  0  0  0  0  0  0  0
    7.9799   -4.7001    0.0000 C    0  0  0  0  0  0  0  0  0  0  0  0
    7.9799   -7.0143    0.0000 O    0  0  0  0  0  0  0  0  0  0  0  0
    3.9979   -4.7001    0.0000 C    0  0  0  0  0  0  0  0  0  0  0  0
    3.3196   -5.8572    0.0000 I    0  0  0  0  0  0  0  0  0  0  0  0
    3.3196   -3.5590    0.0000 C    0  0  0  0  0  0  0  0  0  0  0  0
    1.9870   -3.5590    0.0000 N    0  0  0  0  0  0  0  0  0  0  0  0
    1.3326   -2.4099    0.0000 C    0  0  0  0  0  0  0  0  0  0  0  0
    1.3326   -4.7001    0.0000 C    0  0  0  0  0  0  0  0  0  0  0  0
    1.9870   -5.8572    0.0000 C    0  0  0  0  0  0  0  0  0  0  0  0
    0.0000   -4.7001    0.0000 O    0  0  0  0  0  0  0  0  0  0  0  0
    3.9979   -2.4099    0.0000 C    0  0  0  0  0  0  0  0  0  0  0  0
    3.3196   -1.2528    0.0000 I    0  0  0  0  0  0  0  0  0  0  0  0
    5.3305   -2.4099    0.0000 C    0  0  0  0  0  0  0  0  0  0  0  0
    5.9929   -1.2528    0.0000 C    0  0  0  0  0  0  0  0  0  0  0  0
    5.3305   -0.1117    0.0000 O    0  5  0  0  0  0  0  0  0  0  0  0
    7.3255   -1.2528    0.0000 O    0  0  0  0  0  0  0  0  0  0  0  0
    7.5968    0.0000    0.0000 Na   0  3  0  0  0  0  0  0  0  0  0  0
  1  2  1  0  0  0  0
  1  3  2  0  0  0  0
  1 18  1  0  0  0  0
  3  4  1  0  0  0  0
  3  8  1  0  0  0  0
  4  5  1  0  0  0  0
  5  6  1  0  0  0  0
  5  7  2  0  0  0  0
  8  9  1  0  0  0  0
  8 10  2  0  0  0  0
 10 11  1  0  0  0  0
 10 16  1  0  0  0  0
 11 12  1  0  0  0  0
 11 13  1  0  0  0  0
 13 14  1  0  0  0  0
 13 15  2  0  0  0  0
 16 17  1  0  0  0  0
 16 18  2  0  0  0  0
 18 19  1  0  0  0  0
 19 20  1  0  0  0  0
 19 21  2  0  0  0  0
M  END
> <ID>
13329

> <Formula>
C12H10I3N2NaO4

> <FW>
649.9220 (626.9328+22.9892)

> <DSSTox_CID>
28245

> <DSSTox_RID>
82747

> <DSSTox_GSID>
48270

> <DSSTox_FileID_Sort>
7424

> <TS_ChemName>
Metrizoate sodium

> <TS_ChemName_Synonyms>


> <TS_CASRN>
7225-61-8

> <CASRN_ChemName_Relationship>
primary

> <TS_Description>
single chemical compound

> <ChemNote>
parent [1949-45-7]

> <STRUCTURE_Shown>
tested chemical

> <STRUCTURE_Formula>
C12H10I3N2NaO4

> <STRUCTURE_MW>
649.922

> <STRUCTURE_ChemType>
defined organic

> <STRUCTURE_DefinedOrganicForm>
salt

> <STRUCTURE_IUPAC>
sodium 3-(acetylamino)-5-[acetyl(methyl)amino]-2,4,6-triiodobenzoate

> <STRUCTURE_SMILES>
[Na+].Ic1c(NC(C)=O)c(I)c(c(I)c1N(C)C(C)=O)C([O-])=O

> <STRUCTURE_SMILES_Desalt>
Ic1c(NC(C)=O)c(I)c(c(I)c1N(C)C(C)=O)C(=O)O

> <Substance_modify_yyyymmdd>
20110729

$$$$
