72269-48-8
ChemmineR-0915142007XD

 17 16  0  0  0  0  0  0  0  0  1 V2000
    1.1539   -1.3262    0.0000 C   0  0  0  0  0  0  0  0  0  0  0  0
    1.1539    0.0000    0.0000 O   0  0  0  0  0  0  0  0  0  0  0  0
    2.3079   -1.9979    0.0000 O   0  0  0  0  0  0  0  0  0  0  0  0
    0.0000   -1.9979    0.0000 C   0  0  0  0  0  0  0  0  0  0  0  0
    3.4446   -1.3262    0.0000 C   0  0  0  0  0  0  0  0  0  0  0  0
    4.5986   -1.9979    0.0000 C   0  0  0  0  0  0  0  0  0  0  0  0
    5.7353   -1.3262    0.0000 C   0  0  0  0  0  0  0  0  0  0  0  0
    6.8892   -1.9979    0.0000 C   0  0  0  0  0  0  0  0  0  0  0  0
    8.0432   -1.3262    0.0000 C   0  0  0  0  0  0  0  0  0  0  0  0
    9.1799   -1.9979    0.0000 C   0  0  0  0  0  0  0  0  0  0  0  0
   10.3339   -1.3262    0.0000 C   0  0  0  0  0  0  0  0  0  0  0  0
   11.4878   -1.9979    0.0000 C   0  0  0  0  0  0  0  0  0  0  0  0
   12.6418   -1.3262    0.0000 C   0  0  0  0  0  0  0  0  0  0  0  0
   13.7957   -1.9979    0.0000 C   0  0  0  0  0  0  0  0  0  0  0  0
   14.9324   -1.3262    0.0000 C   0  0  0  0  0  0  0  0  0  0  0  0
   16.0692   -1.9979    0.0000 C   0  0  0  0  0  0  0  0  0  0  0  0
   17.2231   -1.3262    0.0000 C   0  0  0  0  0  0  0  0  0  0  0  0
  1  2  2  0  0  0  0
  1  3  1  0  0  0  0
  1  4  1  0  0  0  0
  3  5  1  0  0  0  0
  5  6  1  0  0  0  0
  6  7  1  0  0  0  0
  7  8  1  0  0  0  0
  8  9  2  0  0  0  0
  9 10  1  0  0  0  0
 10 11  1  0  0  0  0
 11 12  1  0  0  0  0
 12 13  1  0  0  0  0
 13 14  1  0  0  0  0
 14 15  1  0  0  0  0
 15 16  1  0  0  0  0
 16 17  1  0  0  0  0
M  END
> <ID>
7045

> <Formula>
C15H28O2

> <FW>
240.3816

> <DSSTox_CID>
15592

> <DSSTox_RID>
79263

> <DSSTox_GSID>
35592

> <DSSTox_FileID_Sort>
3945

> <TS_ChemName>
(E)-4-Tridecen-l-yl acetate

> <TS_ChemName_Synonyms>


> <TS_CASRN>
72269-48-8

> <CASRN_ChemName_Relationship>
primary

> <TS_Description>
single chemical compound

> <ChemNote>
stereochem

> <STRUCTURE_Shown>
tested chemical

> <STRUCTURE_Formula>
C15H28O2

> <STRUCTURE_MW>
240.3816

> <STRUCTURE_ChemType>
defined organic

> <STRUCTURE_DefinedOrganicForm>
parent

> <STRUCTURE_IUPAC>
(4E)-tridec-4-en-1-yl acetate

> <STRUCTURE_SMILES>
CC(=O)OCCC\C=C\CCCCCCCC

> <STRUCTURE_SMILES_Desalt>
CC(=O)OCCC\C=C\CCCCCCCC

> <Substance_modify_yyyymmdd>
20080429

$$$$
