723-62-6
ChemmineR-0915142007XD

 17 19  0  0  0  0  0  0  0  0  1 V2000
    6.9056   -3.9915    0.0000 C   0  0  0  0  0  0  0  0  0  0  0  0
    0.0000   -3.9915    0.0000 C   0  0  0  0  0  0  0  0  0  0  0  0
    6.9056   -2.6587    0.0000 C   0  0  0  0  0  0  0  0  0  0  0  0
    0.0000   -2.6587    0.0000 C   0  0  0  0  0  0  0  0  0  0  0  0
    5.7524   -4.6613    0.0000 C   0  0  0  0  0  0  0  0  0  0  0  0
    1.1532   -4.6613    0.0000 C   0  0  0  0  0  0  0  0  0  0  0  0
    5.7524   -2.0026    0.0000 C   0  0  0  0  0  0  0  0  0  0  0  0
    1.1532   -2.0026    0.0000 C   0  0  0  0  0  0  0  0  0  0  0  0
    3.4597   -4.6613    0.0000 C   0  0  0  0  0  0  0  0  0  0  0  0
    4.6130   -3.9915    0.0000 C   0  0  0  0  0  0  0  0  0  0  0  0
    2.3065   -3.9915    0.0000 C   0  0  0  0  0  0  0  0  0  0  0  0
    4.6130   -2.6587    0.0000 C   0  0  0  0  0  0  0  0  0  0  0  0
    2.3065   -2.6587    0.0000 C   0  0  0  0  0  0  0  0  0  0  0  0
    3.4597   -2.0026    0.0000 C   0  0  0  0  0  0  0  0  0  0  0  0
    3.4597   -0.6698    0.0000 C   0  0  0  0  0  0  0  0  0  0  0  0
    2.3065    0.0000    0.0000 O   0  0  0  0  0  0  0  0  0  0  0  0
    4.6130    0.0000    0.0000 O   0  0  0  0  0  0  0  0  0  0  0  0
  1  3  1  0  0  0  0
  1  5  2  0  0  0  0
  2  4  2  0  0  0  0
  2  6  1  0  0  0  0
  3  7  2  0  0  0  0
  4  8  1  0  0  0  0
  5 10  1  0  0  0  0
  6 11  2  0  0  0  0
  7 12  1  0  0  0  0
  8 13  2  0  0  0  0
  9 10  2  0  0  0  0
  9 11  1  0  0  0  0
 10 12  1  0  0  0  0
 11 13  1  0  0  0  0
 12 14  2  0  0  0  0
 13 14  1  0  0  0  0
 14 15  1  0  0  0  0
 15 16  2  0  0  0  0
 15 17  1  0  0  0  0
M  END
> <ID>
14291

> <Formula>
C15H10O2

> <FW>
222.2387

> <DSSTox_CID>
29387

> <DSSTox_RID>
83502

> <DSSTox_GSID>
49427

> <DSSTox_FileID_Sort>
8177

> <TS_ChemName>
9-Anthracenecarboxylic acid

> <TS_ChemName_Synonyms>


> <TS_CASRN>
723-62-6

> <CASRN_ChemName_Relationship>
primary

> <TS_Description>
single chemical compound

> <ChemNote>


> <STRUCTURE_Shown>
tested chemical

> <STRUCTURE_Formula>
C15H10O2

> <STRUCTURE_MW>
222.2387

> <STRUCTURE_ChemType>
defined organic

> <STRUCTURE_DefinedOrganicForm>
parent

> <STRUCTURE_IUPAC>
anthracene-9-carboxylic acid

> <STRUCTURE_SMILES>
O=C(O)c2c3ccccc3cc1ccccc12

> <STRUCTURE_SMILES_Desalt>
O=C(O)c2c3ccccc3cc1ccccc12

> <Substance_modify_yyyymmdd>
20111204

$$$$
