72332-33-3
ChemmineR-0915142007XD

 21 22  0  0  1  0  0  0  0  0  1 V2000
    6.9111   -7.3143    0.0000 C   0  0  0  0  0  0  0  0  0  0  0  0
    6.9111   -5.9837    0.0000 C   0  0  0  0  0  0  0  0  0  0  0  0
    5.7579   -5.3224    0.0000 C   0  0  0  0  0  0  0  0  0  0  0  0
    5.7579   -3.9918    0.0000 N   0  0  0  0  0  0  0  0  0  0  0  0
    6.9111   -3.3225    0.0000 C   0  0  0  0  0  0  0  0  0  0  0  0
    6.9111   -1.9919    0.0000 C   0  0  0  0  0  0  0  0  0  0  0  0
    8.0643   -3.9918    0.0000 C   0  0  0  0  0  0  0  0  0  0  0  0
    4.6047   -5.9837    0.0000 C   0  0  0  0  0  0  0  0  0  0  0  0
    4.6047   -7.3143    0.0000 O   0  0  0  0  0  0  0  0  0  0  0  0
    3.4596   -5.3224    0.0000 C   0  0  0  0  0  0  0  0  0  0  0  0
    2.3064   -5.9837    0.0000 C   0  0  0  0  0  0  0  0  0  0  0  0
    1.1532   -5.3224    0.0000 C   0  0  0  0  0  0  0  0  0  0  0  0
    1.1532   -3.9918    0.0000 C   0  0  0  0  0  0  0  0  0  0  0  0
    0.0000   -3.3225    0.0000 O   0  0  0  0  0  0  0  0  0  0  0  0
    2.3064   -3.3225    0.0000 C   0  0  0  0  0  0  0  0  0  0  0  0
    3.4596   -3.9918    0.0000 C   0  0  0  0  0  0  0  0  0  0  0  0
    4.6047   -3.3225    0.0000 C   0  0  0  0  0  0  0  0  0  0  0  0
    4.6047   -1.9919    0.0000 C   0  0  0  0  0  0  0  0  0  0  0  0
    3.4596   -1.3306    0.0000 C   0  0  0  0  0  0  0  0  0  0  0  0
    3.4596    0.0000    0.0000 O   0  0  0  0  0  0  0  0  0  0  0  0
    2.3064   -1.9919    0.0000 N   0  0  0  0  0  0  0  0  0  0  0  0
  1  2  1  0  0  0  0
  2  3  1  0  0  0  0
  3  4  1  1  0  0  0
  3  8  1  0  0  0  0
  4  5  1  0  0  0  0
  5  6  1  0  0  0  0
  5  7  1  0  0  0  0
  8  9  1  6  0  0  0
  8 10  1  0  0  0  0
 10 11  2  0  0  0  0
 10 16  1  0  0  0  0
 11 12  1  0  0  0  0
 12 13  2  0  0  0  0
 13 14  1  0  0  0  0
 13 15  1  0  0  0  0
 15 16  2  0  0  0  0
 15 21  1  0  0  0  0
 16 17  1  0  0  0  0
 17 18  2  0  0  0  0
 18 19  1  0  0  0  0
 19 20  2  0  0  0  0
 19 21  1  0  0  0  0
M  END
> <ID>
11115

> <Formula>
C16H22N2O3

> <FW>
290.3575

> <DSSTox_CID>
25673

> <DSSTox_RID>
81047

> <DSSTox_GSID>
45673

> <DSSTox_FileID_Sort>
5728

> <TS_ChemName>
Procaterol

> <TS_ChemName_Synonyms>


> <TS_CASRN>
72332-33-3

> <CASRN_ChemName_Relationship>
primary

> <TS_Description>
single chemical compound

> <ChemNote>


> <STRUCTURE_Shown>
tested chemical

> <STRUCTURE_Formula>
C16H22N2O3

> <STRUCTURE_MW>
290.3575

> <STRUCTURE_ChemType>
defined organic

> <STRUCTURE_DefinedOrganicForm>
parent

> <STRUCTURE_IUPAC>
8-hydroxy-5-[(1R,2S)-1-hydroxy-2-(propan-2-ylamino)butyl]quinolin-2(1H)-one

> <STRUCTURE_SMILES>
CC(C)N[C@@H](CC)[C@H](O)c2ccc(O)c1NC(=O)C=Cc12

> <STRUCTURE_SMILES_Desalt>
CC(C)N[C@@H](CC)[C@H](O)c2ccc(O)c1NC(=O)C=Cc12

> <Substance_modify_yyyymmdd>
20100107

$$$$
