72432-03-2
ChemmineR-0915142007XD

 14 14  0  0  1  0  0  0  0  0  1 V2000
    3.3269   -3.4585    0.0000 C   0  0  0  0  0  0  0  0  0  0  0  0
    1.9961   -3.4585    0.0000 C   0  0  0  0  0  0  0  0  0  0  0  0
    1.3307   -2.3032    0.0000 C   0  0  0  0  0  0  0  0  0  0  0  0
    1.9961   -1.1553    0.0000 C   0  0  0  0  0  0  0  0  0  0  0  0
    3.3269   -1.1553    0.0000 C   0  0  0  0  0  0  0  0  0  0  0  0
    3.9849   -2.3032    0.0000 N   0  0  0  0  0  0  0  0  0  0  0  0
    5.3157   -2.3032    0.0000 C   0  0  0  0  0  0  0  0  0  0  0  0
    5.9811   -3.4585    0.0000 C   0  0  0  0  0  0  0  0  0  0  0  0
    7.3118   -3.4585    0.0000 O   0  0  0  0  0  0  0  0  0  0  0  0
    3.9849    0.0000    0.0000 C   0  0  0  0  0  0  0  0  0  0  0  0
    5.3157    0.0000    0.0000 O   0  0  0  0  0  0  0  0  0  0  0  0
    1.3307    0.0000    0.0000 O   0  0  0  0  0  0  0  0  0  0  0  0
    0.0000   -2.3032    0.0000 O   0  0  0  0  0  0  0  0  0  0  0  0
    1.3307   -4.6064    0.0000 O   0  0  0  0  0  0  0  0  0  0  0  0
  1  2  1  0  0  0  0
  1  6  1  0  0  0  0
  2  3  1  0  0  0  0
  2 14  1  6  0  0  0
  3  4  1  0  0  0  0
  3 13  1  1  0  0  0
  4  5  1  0  0  0  0
  4 12  1  6  0  0  0
  5  6  1  0  0  0  0
  5 10  1  1  0  0  0
  6  7  1  0  0  0  0
  7  8  1  0  0  0  0
  8  9  1  0  0  0  0
 10 11  1  0  0  0  0
M  END
> <ID>
2983

> <Formula>
C8H17NO5

> <FW>
207.2243

> <DSSTox_CID>
3323

> <DSSTox_RID>
76977

> <DSSTox_GSID>
23323

> <DSSTox_FileID_Sort>
1661

> <TS_ChemName>
Miglitol

> <TS_ChemName_Synonyms>


> <TS_CASRN>
72432-03-2

> <CASRN_ChemName_Relationship>
primary

> <TS_Description>
single chemical compound

> <ChemNote>
stereochem

> <STRUCTURE_Shown>
tested chemical

> <STRUCTURE_Formula>
C8H17NO5

> <STRUCTURE_MW>
207.2243

> <STRUCTURE_ChemType>
defined organic

> <STRUCTURE_DefinedOrganicForm>
parent

> <STRUCTURE_IUPAC>
(2R,3R,4R,5S)-1-(2-hydroxyethyl)-2-(hydroxymethyl)piperidine-3,4,5-triol

> <STRUCTURE_SMILES>
OCCN1C[C@H](O)[C@@H](O)[C@H](O)[C@H]1CO

> <STRUCTURE_SMILES_Desalt>
OCCN1C[C@H](O)[C@@H](O)[C@H](O)[C@H]1CO

> <Substance_modify_yyyymmdd>
20080429

$$$$
