7246-14-2
ChemmineR-0915142007XD

 30 30  0  0  1  0  0  0  0  0  2 V2000
    9.6762   -7.5042    0.0000 Na   0  3  0  0  0  0  0  0  0  0  0  0
    4.2411   -6.9586    0.0000 O    0  0  0  0  0  0  0  0  0  0  0  0
    7.1130   -4.0146    0.0000 N    0  0  0  0  0  0  0  0  0  0  0  0
    7.1130   -2.6764    0.0000 C    0  0  0  0  0  0  0  0  0  0  0  0
    5.7748   -4.0146    0.0000 C    0  0  0  0  0  0  0  0  0  0  0  0
    5.7748   -2.6764    0.0000 C    0  0  0  0  0  0  0  0  0  0  0  0
    8.3586   -4.4264    0.0000 C    0  0  0  0  0  0  0  0  0  0  0  0
    8.3586   -2.2749    0.0000 S    0  0  0  0  0  0  0  0  0  0  0  0
    9.1615   -3.3455    0.0000 C    0  0  0  0  0  0  0  0  0  0  0  0
    3.4484   -2.6661    0.0000 C    0  0  0  0  0  0  0  0  0  0  0  0
    4.6116   -1.9867    0.0000 N    0  0  0  0  0  0  0  0  0  0  0  0
    2.3058   -1.9867    0.0000 C    0  0  0  0  0  0  0  0  0  0  0  0
    8.7909   -5.6822    0.0000 C    0  0  0  0  0  0  0  0  0  0  0  0
    4.8278   -4.9513    0.0000 O    0  0  0  0  0  0  0  0  0  0  0  0
    3.4484   -4.0043    0.0000 O    0  0  0  0  0  0  0  0  0  0  0  0
    2.3058   -0.6485    0.0000 C    0  0  0  0  0  0  0  0  0  0  0  0
    1.1426   -2.6661    0.0000 C    0  0  0  0  0  0  0  0  0  0  0  0
   10.0674   -5.9704    0.0000 O    0  0  0  0  0  0  0  0  0  0  0  0
   10.2938   -4.0146    0.0000 C    0  0  0  0  0  0  0  0  0  0  0  0
   10.2938   -2.6764    0.0000 C    0  0  0  0  0  0  0  0  0  0  0  0
    3.4484    0.0000    0.0000 O    0  0  0  0  0  0  0  0  0  0  0  0
    1.1426   -4.0043    0.0000 O    0  0  0  0  0  0  0  0  0  0  0  0
    0.0000   -0.6485    0.0000 C    0  0  0  0  0  0  0  0  0  0  0  0
    1.1426    0.0000    0.0000 C    0  0  0  0  0  0  0  0  0  0  0  0
    0.0000   -1.9867    0.0000 C    0  0  0  0  0  0  0  0  0  0  0  0
    4.6013   -0.6794    0.0000 C    0  0  0  0  0  0  0  0  0  0  0  0
    2.2955   -4.6528    0.0000 C    0  0  0  0  0  0  0  0  0  0  0  0
    7.8748   -6.6807    0.0000 O    0  5  0  0  0  0  0  0  0  0  0  0
    7.1130   -1.3588    0.0000 H    0  0  0  0  0  0  0  0  0  0  0  0
    5.8881   -1.3897    0.0000 H    0  0  0  0  0  0  0  0  0  0  0  0
  3  4  1  0  0  0  0
  3  5  1  0  0  0  0
  3  7  1  0  0  0  0
  4  8  1  0  0  0  0
  4  6  1  0  0  0  0
  4 29  1  6  0  0  0
  5  6  1  0  0  0  0
  5 14  2  0  0  0  0
  6 11  1  1  0  0  0
  6 30  1  6  0  0  0
  7  9  1  0  0  0  0
  7 13  1  6  0  0  0
  8  9  1  0  0  0  0
  9 19  1  0  0  0  0
  9 20  1  0  0  0  0
 10 11  1  0  0  0  0
 10 12  1  0  0  0  0
 10 15  2  0  0  0  0
 12 16  1  0  0  0  0
 12 17  2  0  0  0  0
 13 18  2  0  0  0  0
 13 28  1  0  0  0  0
 16 21  1  0  0  0  0
 16 24  2  0  0  0  0
 17 22  1  0  0  0  0
 17 25  1  0  0  0  0
 21 26  1  0  0  0  0
 22 27  1  0  0  0  0
 23 25  2  0  0  0  0
 23 24  1  0  0  0  0
M  END
> <ID>
11230

> <Formula>
C17H21N2NaO7S

> <FW>
420.4126 (22.9892+18.0153+379.4081)

> <DSSTox_CID>
25835

> <DSSTox_RID>
81162

> <DSSTox_GSID>
45835

> <DSSTox_FileID_Sort>
5843

> <TS_ChemName>
Methicillin sodium hydrate

> <TS_ChemName_Synonyms>


> <TS_CASRN>
7246-14-2

> <CASRN_ChemName_Relationship>
primary

> <TS_Description>
single chemical compound

> <ChemNote>
absoliute stereochem; parent [61-32-5]

> <STRUCTURE_Shown>
tested chemical

> <STRUCTURE_Formula>
C17H21N2NaO7S

> <STRUCTURE_MW>
420.4126

> <STRUCTURE_ChemType>
defined organic

> <STRUCTURE_DefinedOrganicForm>
salt complex

> <STRUCTURE_IUPAC>
sodium (2S,5R,6R)-6-[(2,6-dimethoxybenzoyl)amino]-3,3-dimethyl-7-oxo-4-thia-1-azabicyclo[3.2.0]heptane-2-carboxylate hydrate (1:1:1)

> <STRUCTURE_SMILES>
[Na+].O.O=C([O-])[C@@H]2N3C(=O)[C@@H](NC(=O)c1c(OC)cccc1OC)[C@H]3SC2(C)C

> <STRUCTURE_SMILES_Desalt>
OC(=O)[C@@H]2N3C(=O)[C@@H](NC(=O)c1c(OC)cccc1OC)[C@H]3SC2(C)C

> <Substance_modify_yyyymmdd>
20080429

$$$$
