7246-21-1
ChemmineR-0915142007XD

 23 22  0  0  0  0  0  0  0  0  2 V2000
    7.8398    0.0000    0.0000 I    0  0  0  0  0  0  0  0  0  0  0  0
    7.8398   -1.3461    0.0000 C    0  0  0  0  0  0  0  0  0  0  0  0
    9.0231   -1.9969    0.0000 C    0  0  0  0  0  0  0  0  0  0  0  0
   10.1769   -1.3461    0.0000 N    0  0  0  0  0  0  0  0  0  0  0  0
   11.3307   -1.9969    0.0000 C    0  0  0  0  0  0  0  0  0  0  0  0
   11.3307   -3.3282    0.0000 O    0  0  0  0  0  0  0  0  0  0  0  0
   12.4845   -1.3461    0.0000 C    0  0  0  0  0  0  0  0  0  0  0  0
   13.6383   -1.9969    0.0000 C    0  0  0  0  0  0  0  0  0  0  0  0
   14.7920   -1.3461    0.0000 C    0  0  0  0  0  0  0  0  0  0  0  0
    9.0231   -3.3282    0.0000 C    0  0  0  0  0  0  0  0  0  0  0  0
   10.1769   -4.0086    0.0000 I    0  0  0  0  0  0  0  0  0  0  0  0
    7.8398   -4.0086    0.0000 C    0  0  0  0  0  0  0  0  0  0  0  0
    6.6860   -3.3282    0.0000 C    0  0  0  0  0  0  0  0  0  0  0  0
    5.5322   -4.0086    0.0000 I    0  0  0  0  0  0  0  0  0  0  0  0
    6.6860   -1.9969    0.0000 C    0  0  0  0  0  0  0  0  0  0  0  0
    5.5322   -1.3461    0.0000 C    0  0  0  0  0  0  0  0  0  0  0  0
    4.3784   -1.9969    0.0000 C    0  0  0  0  0  0  0  0  0  0  0  0
    3.2247   -1.3461    0.0000 C    0  0  0  0  0  0  0  0  0  0  0  0
    4.3489   -3.2690    0.0000 C    0  0  0  0  0  0  0  0  0  0  0  0
    3.2395   -4.0086    0.0000 C    0  0  0  0  0  0  0  0  0  0  0  0
    3.2247   -0.0148    0.0000 O    0  0  0  0  0  0  0  0  0  0  0  0
    2.0857   -2.0265    0.0000 O    0  5  0  0  0  0  0  0  0  0  0  0
    0.0000   -0.7100    0.0000 Na   0  3  0  0  0  0  0  0  0  0  0  0
  1  2  1  0  0  0  0
  2  3  2  0  0  0  0
  2 15  1  0  0  0  0
  3  4  1  0  0  0  0
  3 10  1  0  0  0  0
  4  5  1  0  0  0  0
  5  6  2  0  0  0  0
  5  7  1  0  0  0  0
  7  8  1  0  0  0  0
  8  9  1  0  0  0  0
 10 11  1  0  0  0  0
 10 12  2  0  0  0  0
 12 13  1  0  0  0  0
 13 14  1  0  0  0  0
 13 15  2  0  0  0  0
 15 16  1  0  0  0  0
 16 17  1  0  0  0  0
 17 18  1  0  0  0  0
 17 19  1  0  0  0  0
 18 21  2  0  0  0  0
 18 22  1  0  0  0  0
 19 20  1  0  0  0  0
M  END
> <ID>
3331

> <Formula>
C15H17I3NNaO3

> <FW>
663.0036 (640.0143+22.9892)

> <DSSTox_CID>
3729

> <DSSTox_RID>
77169

> <DSSTox_GSID>
23729

> <DSSTox_FileID_Sort>
1852

> <TS_ChemName>
Sodium tyropanoate

> <TS_ChemName_Synonyms>
Tyropanoic acid

> <TS_CASRN>
7246-21-1

> <CASRN_ChemName_Relationship>
primary

> <TS_Description>
single chemical compound

> <ChemNote>
parent [27293-82-9]

> <STRUCTURE_Shown>
tested chemical

> <STRUCTURE_Formula>
C15H17I3NNaO3

> <STRUCTURE_MW>
663.0036

> <STRUCTURE_ChemType>
defined organic

> <STRUCTURE_DefinedOrganicForm>
salt

> <STRUCTURE_IUPAC>
sodium 2-[3-(butanoylamino)-2,4,6-triiodobenzyl]butanoate

> <STRUCTURE_SMILES>
[Na+].O=C(Nc1c(I)c(CC(CC)C([O-])=O)c(I)cc1I)CCC

> <STRUCTURE_SMILES_Desalt>
O=C(Nc1c(I)c(CC(CC)C(=O)O)c(I)cc1I)CCC

> <Substance_modify_yyyymmdd>
20080429

$$$$
