72479-26-6
ChemmineR-0915142007XD

 30 33  0  0  0  0  0  0  0  0  1 V2000
   13.8189   -6.2599    0.0000 Cl   0  0  0  0  0  0  0  0  0  0  0  0
   12.6581   -5.5828    0.0000 C    0  0  0  0  0  0  0  0  0  0  0  0
   11.5249   -6.2599    0.0000 C    0  0  0  0  0  0  0  0  0  0  0  0
   10.3780   -5.5828    0.0000 C    0  0  0  0  0  0  0  0  0  0  0  0
   10.3780   -4.2562    0.0000 C    0  0  0  0  0  0  0  0  0  0  0  0
   11.5249   -3.6067    0.0000 C    0  0  0  0  0  0  0  0  0  0  0  0
   12.6581   -4.2562    0.0000 C    0  0  0  0  0  0  0  0  0  0  0  0
    9.2172   -3.6067    0.0000 C    0  0  0  0  0  0  0  0  0  0  0  0
    9.2172   -2.2663    0.0000 C    0  0  0  0  0  0  0  0  0  0  0  0
    8.0702   -1.6030    0.0000 N    0  0  0  0  0  0  0  0  0  0  0  0
    6.8403   -2.1419    0.0000 C    0  0  0  0  0  0  0  0  0  0  0  0
    5.9697   -1.1470    0.0000 C    0  0  0  0  0  0  0  0  0  0  0  0
    6.6192    0.0000    0.0000 N    0  0  0  0  0  0  0  0  0  0  0  0
    7.9182   -0.2626    0.0000 C    0  0  0  0  0  0  0  0  0  0  0  0
    8.0702   -4.2562    0.0000 O    0  0  0  0  0  0  0  0  0  0  0  0
    8.0702   -5.5828    0.0000 C    0  0  0  0  0  0  0  0  0  0  0  0
    6.9094   -6.2599    0.0000 C    0  0  0  0  0  0  0  0  0  0  0  0
    6.9094   -7.5866    0.0000 C    0  0  0  0  0  0  0  0  0  0  0  0
    5.7486   -8.2499    0.0000 C    0  0  0  0  0  0  0  0  0  0  0  0
    4.6017   -7.5866    0.0000 C    0  0  0  0  0  0  0  0  0  0  0  0
    3.4409   -8.2499    0.0000 S    0  0  0  0  0  0  0  0  0  0  0  0
    2.3077   -7.5866    0.0000 C    0  0  0  0  0  0  0  0  0  0  0  0
    1.1608   -8.2499    0.0000 C    0  0  0  0  0  0  0  0  0  0  0  0
    0.0000   -7.5866    0.0000 C    0  0  0  0  0  0  0  0  0  0  0  0
    0.0000   -6.2599    0.0000 C    0  0  0  0  0  0  0  0  0  0  0  0
    1.1608   -5.5828    0.0000 C    0  0  0  0  0  0  0  0  0  0  0  0
    2.3077   -6.2599    0.0000 C    0  0  0  0  0  0  0  0  0  0  0  0
    4.6017   -6.2599    0.0000 C    0  0  0  0  0  0  0  0  0  0  0  0
    5.7486   -5.5828    0.0000 C    0  0  0  0  0  0  0  0  0  0  0  0
    9.2172   -6.2599    0.0000 Cl   0  0  0  0  0  0  0  0  0  0  0  0
  1  2  1  0  0  0  0
  2  3  2  0  0  0  0
  2  7  1  0  0  0  0
  3  4  1  0  0  0  0
  4  5  2  0  0  0  0
  4 30  1  0  0  0  0
  5  6  1  0  0  0  0
  5  8  1  0  0  0  0
  6  7  2  0  0  0  0
  8  9  1  0  0  0  0
  8 15  1  0  0  0  0
  9 10  1  0  0  0  0
 10 11  1  0  0  0  0
 10 14  1  0  0  0  0
 11 12  2  0  0  0  0
 12 13  1  0  0  0  0
 13 14  2  0  0  0  0
 15 16  1  0  0  0  0
 16 17  1  0  0  0  0
 17 18  2  0  0  0  0
 17 29  1  0  0  0  0
 18 19  1  0  0  0  0
 19 20  2  0  0  0  0
 20 21  1  0  0  0  0
 20 28  1  0  0  0  0
 21 22  1  0  0  0  0
 22 23  2  0  0  0  0
 22 27  1  0  0  0  0
 23 24  1  0  0  0  0
 24 25  2  0  0  0  0
 25 26  1  0  0  0  0
 26 27  2  0  0  0  0
 28 29  2  0  0  0  0
M  END
> <ID>
16210

> <Formula>
C24H20Cl2N2OS

> <FW>
455.3994

> <DSSTox_CID>
31601

> <DSSTox_RID>
97485

> <DSSTox_GSID>
57812

> <DSSTox_FileID_Sort>
8552

> <TS_ChemName>
Fenticonazole

> <TS_ChemName_Synonyms>


> <TS_CASRN>
72479-26-6

> <CASRN_ChemName_Relationship>
primary

> <TS_Description>
single chemical compound

> <ChemNote>


> <STRUCTURE_Shown>
tested chemical

> <STRUCTURE_Formula>
C24H20Cl2N2OS

> <STRUCTURE_MW>
455.3994

> <STRUCTURE_ChemType>
defined organic

> <STRUCTURE_DefinedOrganicForm>
parent

> <STRUCTURE_IUPAC>
1-[2-(2,4-dichlorophenyl)-2-{[4-(phenylsulfanyl)benzyl]oxy}ethyl]-1H-imidazole

> <STRUCTURE_SMILES>
Clc4ccc(C(OCc2ccc(Sc1ccccc1)cc2)Cn3ccnc3)c(Cl)c4

> <STRUCTURE_SMILES_Desalt>
Clc4ccc(C(OCc2ccc(Sc1ccccc1)cc2)Cn3ccnc3)c(Cl)c4

> <Substance_modify_yyyymmdd>
20131018

$$$$
