72496-41-4
ChemmineR-0915142007XD

 45 50  0  0  1  0  0  0  0  0  1 V2000
    4.5556   -2.6948    0.0000 C   0  0  0  0  0  0  0  0  0  0  0  0
    4.5556   -3.9942    0.0000 C   0  0  0  0  0  0  0  0  0  0  0  0
    3.4167   -4.6679    0.0000 C   0  0  0  0  0  0  0  0  0  0  0  0
    3.4167   -2.0532    0.0000 C   0  0  0  0  0  0  0  0  0  0  0  0
    6.8173   -3.9942    0.0000 C   0  0  0  0  0  0  0  0  0  0  0  0
    6.8173   -2.6948    0.0000 C   0  0  0  0  0  0  0  0  0  0  0  0
    2.2938   -3.9942    0.0000 C   0  0  0  0  0  0  0  0  0  0  0  0
    5.6945   -2.0532    0.0000 C   0  0  0  0  0  0  0  0  0  0  0  0
    5.6945   -4.6679    0.0000 C   0  0  0  0  0  0  0  0  0  0  0  0
    2.2938   -2.6948    0.0000 C   0  0  0  0  0  0  0  0  0  0  0  0
    9.0951   -2.6948    0.0000 C   0  0  0  0  0  0  0  0  0  0  0  0
    7.9723   -4.6679    0.0000 C   0  0  0  0  0  0  0  0  0  0  0  0
    7.9723   -2.0532    0.0000 C   0  0  0  0  0  0  0  0  0  0  0  0
    9.0951   -3.9942    0.0000 C   0  0  0  0  0  0  0  0  0  0  0  0
   10.2661   -2.0051    0.0000 C   0  0  0  0  0  0  0  0  0  0  0  0
    3.4167   -0.6898    0.0000 O   0  0  0  0  0  0  0  0  0  0  0  0
    3.4167   -5.9832    0.0000 O   0  0  0  0  0  0  0  0  0  0  0  0
    1.1549   -4.6679    0.0000 C   0  0  0  0  0  0  0  0  0  0  0  0
   11.4210   -2.6788    0.0000 O   0  0  0  0  0  0  0  0  0  0  0  0
    5.6945   -0.6898    0.0000 O   0  0  0  0  0  0  0  0  0  0  0  0
    5.6945   -5.9832    0.0000 O   0  0  0  0  0  0  0  0  0  0  0  0
   10.4586   -3.5931    0.0000 O   0  0  0  0  0  0  0  0  0  0  0  0
    1.1549   -2.0532    0.0000 C   0  0  0  0  0  0  0  0  0  0  0  0
    1.1549   -5.9832    0.0000 O   0  0  0  0  0  0  0  0  0  0  0  0
   10.2661   -0.6737    0.0000 C   0  0  0  0  0  0  0  0  0  0  0  0
   11.4210    0.0000    0.0000 O   0  0  0  0  0  0  0  0  0  0  0  0
    0.0160   -2.6948    0.0000 C   0  0  0  0  0  0  0  0  0  0  0  0
    0.0160   -3.9942    0.0000 C   0  0  0  0  0  0  0  0  0  0  0  0
    0.0000   -6.6248    0.0000 C   0  0  0  0  0  0  0  0  0  0  0  0
    7.9723   -6.0313    0.0000 O   0  0  0  0  0  0  0  0  0  0  0  0
    9.1272   -6.7050    0.0000 C   0  0  0  0  0  0  0  0  0  0  0  0
   10.2661   -6.0313    0.0000 O   0  0  0  0  0  0  0  0  0  0  0  0
    9.1272   -8.0364    0.0000 C   0  0  0  0  0  0  0  0  0  0  0  0
   11.4210   -6.7050    0.0000 C   0  0  0  0  0  0  0  0  0  0  0  0
   10.2661   -8.7101    0.0000 C   0  0  0  0  0  0  0  0  0  0  0  0
   11.4210   -8.0364    0.0000 C   0  0  0  0  0  0  0  0  0  0  0  0
   12.5760   -6.0313    0.0000 C   0  0  0  0  0  0  0  0  0  0  0  0
   12.5760   -8.7101    0.0000 O   0  0  0  0  0  0  0  0  0  0  0  0
   10.2661  -10.0415    0.0000 N   0  0  0  0  0  0  0  0  0  0  0  0
   13.7469   -8.0364    0.0000 C   0  0  0  0  0  0  0  0  0  0  0  0
   13.7469   -6.7050    0.0000 C   0  0  0  0  0  0  0  0  0  0  0  0
   14.8858   -8.7101    0.0000 O   0  0  0  0  0  0  0  0  0  0  0  0
   14.8858   -6.0313    0.0000 C   0  0  0  0  0  0  0  0  0  0  0  0
   16.0408   -8.0364    0.0000 C   0  0  0  0  0  0  0  0  0  0  0  0
   16.0408   -6.7050    0.0000 C   0  0  0  0  0  0  0  0  0  0  0  0
  1  2  2  0  0  0  0
  1  4  1  0  0  0  0
  1  8  1  0  0  0  0
  2  3  1  0  0  0  0
  2  9  1  0  0  0  0
  3 17  2  0  0  0  0
  3  7  1  0  0  0  0
  4 10  1  0  0  0  0
  4 16  2  0  0  0  0
  5  6  1  0  0  0  0
  5 12  1  0  0  0  0
  5  9  2  0  0  0  0
  6  8  2  0  0  0  0
  6 13  1  0  0  0  0
  7 10  2  0  0  0  0
  7 18  1  0  0  0  0
  8 20  1  0  0  0  0
  9 21  1  0  0  0  0
 10 23  1  0  0  0  0
 11 13  1  0  0  0  0
 11 14  1  0  0  0  0
 11 15  1  1  0  0  0
 11 22  1  6  0  0  0
 12 14  1  0  0  0  0
 12 30  1  6  0  0  0
 15 19  2  0  0  0  0
 15 25  1  0  0  0  0
 18 24  1  0  0  0  0
 18 28  2  0  0  0  0
 23 27  2  0  0  0  0
 24 29  1  0  0  0  0
 25 26  1  0  0  0  0
 27 28  1  0  0  0  0
 31 30  1  6  0  0  0
 31 32  1  0  0  0  0
 31 33  1  0  0  0  0
 32 34  1  0  0  0  0
 33 35  1  0  0  0  0
 34 36  1  0  0  0  0
 34 37  1  1  0  0  0
 35 36  1  0  0  0  0
 35 39  1  1  0  0  0
 36 38  1  1  0  0  0
 40 38  1  6  0  0  0
 40 41  1  0  0  0  0
 40 42  1  0  0  0  0
 41 43  1  0  0  0  0
 42 44  1  0  0  0  0
 43 45  1  0  0  0  0
 44 45  1  0  0  0  0
M  END
> <ID>
11943

> <Formula>
C32H37NO12

> <FW>
627.6357

> <DSSTox_CID>
26755

> <DSSTox_RID>
81879

> <DSSTox_GSID>
46755

> <DSSTox_FileID_Sort>
6560

> <TS_ChemName>
Pirarubicin

> <TS_ChemName_Synonyms>


> <TS_CASRN>
72496-41-4

> <CASRN_ChemName_Relationship>
primary

> <TS_Description>
single chemical compound

> <ChemNote>
stereochem; tautomers

> <STRUCTURE_Shown>
tested chemical

> <STRUCTURE_Formula>
C32H37NO12

> <STRUCTURE_MW>
627.6357

> <STRUCTURE_ChemType>
defined organic

> <STRUCTURE_DefinedOrganicForm>
parent

> <STRUCTURE_IUPAC>
(1S,3S)-3,5,12-trihydroxy-3-(hydroxyacetyl)-10-methoxy-6,11-dioxo-1,2,3,4,6,11-hexahydrotetracen-1-yl 3-amino-2,3,6-trideoxy-4-O-[(2R)-tetrahydro-2H-pyran-2-yl]-alpha-L-lyxo-hexopyranoside

> <STRUCTURE_SMILES>
OCC(=O)[C@]4(O)Cc3c(c(O)c2C(=O)c1c(OC)cccc1C(=O)c2c3O)[C@H](C4)O[C@H]6C[C@H](N)[C@H](O[C@@H]5CCCCO5)[C@H](C)O6

> <STRUCTURE_SMILES_Desalt>
OCC(=O)[C@]4(O)Cc3c(c(O)c2C(=O)c1c(OC)cccc1C(=O)c2c3O)[C@H](C4)O[C@H]6C[C@H](N)[C@H](O[C@@H]5CCCCO5)[C@H](C)O6

> <Substance_modify_yyyymmdd>
20110803

$$$$
