72490-01-8
ChemmineR-0915142007XD

 22 23  0  0  0  0  0  0  0  0  1 V2000
   12.6536   -1.3379    0.0000 C   0  0  0  0  0  0  0  0  0  0  0  0
   12.6536    0.0000    0.0000 O   0  0  0  0  0  0  0  0  0  0  0  0
   13.8142   -1.9988    0.0000 O   0  0  0  0  0  0  0  0  0  0  0  0
   11.5092   -1.9988    0.0000 N   0  0  0  0  0  0  0  0  0  0  0  0
   10.3486   -1.3379    0.0000 C   0  0  0  0  0  0  0  0  0  0  0  0
    9.2041   -1.9988    0.0000 C   0  0  0  0  0  0  0  0  0  0  0  0
    8.0596   -1.3379    0.0000 O   0  0  0  0  0  0  0  0  0  0  0  0
    6.9152   -1.9988    0.0000 C   0  0  0  0  0  0  0  0  0  0  0  0
    6.9152   -3.3367    0.0000 C   0  0  0  0  0  0  0  0  0  0  0  0
    5.7546   -1.3379    0.0000 C   0  0  0  0  0  0  0  0  0  0  0  0
    5.7546   -3.9976    0.0000 C   0  0  0  0  0  0  0  0  0  0  0  0
    4.5940   -1.9988    0.0000 C   0  0  0  0  0  0  0  0  0  0  0  0
    4.5940   -3.3367    0.0000 C   0  0  0  0  0  0  0  0  0  0  0  0
    3.4495   -3.9976    0.0000 O   0  0  0  0  0  0  0  0  0  0  0  0
    2.2889   -3.3367    0.0000 C   0  0  0  0  0  0  0  0  0  0  0  0
    1.1284   -3.9976    0.0000 C   0  0  0  0  0  0  0  0  0  0  0  0
    2.2889   -1.9988    0.0000 C   0  0  0  0  0  0  0  0  0  0  0  0
    0.0000   -3.3367    0.0000 C   0  0  0  0  0  0  0  0  0  0  0  0
    1.1284   -1.3379    0.0000 C   0  0  0  0  0  0  0  0  0  0  0  0
    0.0000   -1.9988    0.0000 C   0  0  0  0  0  0  0  0  0  0  0  0
   14.9748   -1.3379    0.0000 C   0  0  0  0  0  0  0  0  0  0  0  0
   16.1193   -1.9988    0.0000 C   0  0  0  0  0  0  0  0  0  0  0  0
  1  2  2  0  0  0  0
  1  3  1  0  0  0  0
  1  4  1  0  0  0  0
  3 21  1  0  0  0  0
  4  5  1  0  0  0  0
  5  6  1  0  0  0  0
  6  7  1  0  0  0  0
  7  8  1  0  0  0  0
  8  9  2  0  0  0  0
  8 10  1  0  0  0  0
  9 11  1  0  0  0  0
 10 12  2  0  0  0  0
 11 13  2  0  0  0  0
 12 13  1  0  0  0  0
 13 14  1  0  0  0  0
 14 15  1  0  0  0  0
 15 16  2  0  0  0  0
 15 17  1  0  0  0  0
 16 18  1  0  0  0  0
 17 19  2  0  0  0  0
 18 20  2  0  0  0  0
 19 20  1  0  0  0  0
 21 22  1  0  0  0  0
M  END
> <ID>
6448

> <Formula>
C17H19NO4

> <FW>
301.3371

> <DSSTox_CID>
12393

> <DSSTox_RID>
78937

> <DSSTox_GSID>
32393

> <DSSTox_FileID_Sort>
3619

> <TS_ChemName>
Fenoxycarb

> <TS_ChemName_Synonyms>


> <TS_CASRN>
72490-01-8

> <CASRN_ChemName_Relationship>
primary

> <TS_Description>
single chemical compound

> <ChemNote>


> <STRUCTURE_Shown>
tested chemical

> <STRUCTURE_Formula>
C17H19NO4

> <STRUCTURE_MW>
301.3371

> <STRUCTURE_ChemType>
defined organic

> <STRUCTURE_DefinedOrganicForm>
parent

> <STRUCTURE_IUPAC>
ethyl [2-(4-phenoxyphenoxy)ethyl]carbamate

> <STRUCTURE_SMILES>
O=C(OCC)NCCOc1ccc(cc1)Oc2ccccc2

> <STRUCTURE_SMILES_Desalt>
O=C(OCC)NCCOc1ccc(cc1)Oc2ccccc2

> <Substance_modify_yyyymmdd>
20080429

$$$$
