725228-45-5
ChemmineR-0915142007XD

 30 33  0  0  0  0  0  0  0  0  1 V2000
    4.6113   -0.6639    0.0000 C   0  0  0  0  0  0  0  0  0  0  0  0
    4.6113   -1.9916    0.0000 C   0  0  0  0  0  0  0  0  0  0  0  0
    3.4629    0.0000    0.0000 C   0  0  0  0  0  0  0  0  0  0  0  0
    3.4629   -2.6555    0.0000 C   0  0  0  0  0  0  0  0  0  0  0  0
    2.3146   -0.6639    0.0000 C   0  0  0  0  0  0  0  0  0  0  0  0
    2.3146   -1.9916    0.0000 C   0  0  0  0  0  0  0  0  0  0  0  0
    5.7775   -2.6555    0.0000 C   0  0  0  0  0  0  0  0  0  0  0  0
    6.9259   -1.9916    0.0000 C   0  0  0  0  0  0  0  0  0  0  0  0
    5.7775   -3.9833    0.0000 C   0  0  0  0  0  0  0  0  0  0  0  0
    8.0742   -2.6555    0.0000 C   0  0  0  0  0  0  0  0  0  0  0  0
    6.9259   -4.6651    0.0000 C   0  0  0  0  0  0  0  0  0  0  0  0
    8.0742   -3.9833    0.0000 N   0  0  0  0  0  0  0  0  0  0  0  0
    1.1483   -2.6555    0.0000 C   0  0  0  0  0  0  0  0  0  0  0  0
    0.0000   -1.9916    0.0000 N   0  0  0  0  0  0  0  0  0  0  0  0
    9.2225   -4.6651    0.0000 C   0  0  0  0  0  0  0  0  0  0  0  0
    9.2225   -5.9929    0.0000 O   0  0  0  0  0  0  0  0  0  0  0  0
   10.3709   -3.9833    0.0000 C   0  0  0  0  0  0  0  0  0  0  0  0
    9.9761   -2.7273    0.0000 C   0  0  0  0  0  0  0  0  0  0  0  0
   11.0527   -1.9378    0.0000 C   0  0  0  0  0  0  0  0  0  0  0  0
   12.1292   -2.7273    0.0000 C   0  0  0  0  0  0  0  0  0  0  0  0
   11.6986   -3.9833    0.0000 O   0  0  0  0  0  0  0  0  0  0  0  0
   13.3852   -2.3146    0.0000 C   0  0  0  0  0  0  0  0  0  0  0  0
   14.3900   -3.2117    0.0000 C   0  0  0  0  0  0  0  0  0  0  0  0
   15.6460   -2.7991    0.0000 C   0  0  0  0  0  0  0  0  0  0  0  0
   17.9427   -1.4713    0.0000 C   0  0  0  0  0  0  0  0  0  0  0  0
   17.9427   -2.7991    0.0000 C   0  0  0  0  0  0  0  0  0  0  0  0
   16.7943   -0.7895    0.0000 C   0  0  0  0  0  0  0  0  0  0  0  0
   16.7943   -3.4629    0.0000 C   0  0  0  0  0  0  0  0  0  0  0  0
   15.6460   -1.4713    0.0000 C   0  0  0  0  0  0  0  0  0  0  0  0
   16.7943   -4.7907    0.0000 F   0  0  0  0  0  0  0  0  0  0  0  0
  1  2  1  0  0  0  0
  1  3  2  0  0  0  0
  2  4  2  0  0  0  0
  2  7  1  0  0  0  0
  3  5  1  0  0  0  0
  4  6  1  0  0  0  0
  5  6  2  0  0  0  0
  6 13  1  0  0  0  0
  7  8  1  0  0  0  0
  7  9  1  0  0  0  0
  8 10  1  0  0  0  0
  9 11  1  0  0  0  0
 10 12  1  0  0  0  0
 11 12  1  0  0  0  0
 12 15  1  0  0  0  0
 13 14  1  0  0  0  0
 15 16  2  0  0  0  0
 15 17  1  0  0  0  0
 17 18  2  0  0  0  0
 17 21  1  0  0  0  0
 18 19  1  0  0  0  0
 19 20  2  0  0  0  0
 20 21  1  0  0  0  0
 20 22  1  0  0  0  0
 22 23  3  0  0  0  0
 23 24  1  0  0  0  0
 24 28  1  0  0  0  0
 24 29  2  0  0  0  0
 25 26  1  0  0  0  0
 25 27  2  0  0  0  0
 26 28  2  0  0  0  0
 27 29  1  0  0  0  0
 28 30  1  0  0  0  0
M  END
> <ID>
12513

> <Formula>
C25H23FN2O2

> <FW>
402.4607

> <DSSTox_CID>
27371

> <DSSTox_RID>
82303

> <DSSTox_GSID>
47371

> <DSSTox_FileID_Sort>
6984

> <TS_ChemName>
AVE5638

> <TS_ChemName_Synonyms>
A002195638

> <TS_CASRN>
725228-45-5

> <CASRN_ChemName_Relationship>
primary

> <TS_Description>
single chemical compound

> <ChemNote>


> <STRUCTURE_Shown>
tested chemical

> <STRUCTURE_Formula>
C25H23FN2O2

> <STRUCTURE_MW>
402.4607

> <STRUCTURE_ChemType>
defined organic

> <STRUCTURE_DefinedOrganicForm>
parent

> <STRUCTURE_IUPAC>
{4-[3-(aminomethyl)phenyl]piperidin-1-yl}{5-[(2-fluorophenyl)ethynyl]furan-2-yl}methanone

> <STRUCTURE_SMILES>
O=C(c2ccc(C#Cc1ccccc1F)o2)N3CCC(CC3)c4cccc(CN)c4

> <STRUCTURE_SMILES_Desalt>
O=C(c2ccc(C#Cc1ccccc1F)o2)N3CCC(CC3)c4cccc(CN)c4

> <Substance_modify_yyyymmdd>
20130910

$$$$
