72559-06-9
ChemmineR-0915142007XD

 61 66  0  0  1  0  0  0  0  0  1 V2000
    6.9082   -6.0077    0.0000 C   0  0  0  0  0  0  0  0  0  0  0  0
    6.9082   -7.3444    0.0000 C   0  0  0  0  0  0  0  0  0  0  0  0
    5.7686   -5.3324    0.0000 C   0  0  0  0  0  0  0  0  0  0  0  0
    5.7686   -8.0056    0.0000 C   0  0  0  0  0  0  0  0  0  0  0  0
    4.6289   -6.0077    0.0000 C   0  0  0  0  0  0  0  0  0  0  0  0
    4.6289   -7.3444    0.0000 C   0  0  0  0  0  0  0  0  0  0  0  0
    8.0760   -5.3324    0.0000 C   0  0  0  0  0  0  0  0  0  0  0  0
    9.2297   -6.0077    0.0000 C   0  0  0  0  0  0  0  0  0  0  0  0
    8.0760   -8.0056    0.0000 C   0  0  0  0  0  0  0  0  0  0  0  0
    9.2297   -7.3444    0.0000 C   0  0  0  0  0  0  0  0  0  0  0  0
    8.3574   -9.2860    0.0000 N   0  0  0  0  0  0  0  0  0  0  0  0
    9.6799   -9.4407    0.0000 C   0  0  0  0  0  0  0  0  0  0  0  0
   10.2146   -8.2307    0.0000 N   0  0  0  0  0  0  0  0  0  0  0  0
    5.4872   -9.2860    0.0000 C   0  0  0  0  0  0  0  0  0  0  0  0
    4.1787   -9.4407    0.0000 C   0  0  0  0  0  0  0  0  0  0  0  0
    3.6300   -8.2307    0.0000 O   0  0  0  0  0  0  0  0  0  0  0  0
   11.0165   -9.4407    0.0000 C   0  0  0  0  0  0  0  0  0  0  0  0
    9.0046  -10.6085    0.0000 C   0  0  0  0  0  0  0  0  0  0  0  0
   11.6919  -10.6085    0.0000 C   0  0  0  0  0  0  0  0  0  0  0  0
    9.6799  -11.7622    0.0000 C   0  0  0  0  0  0  0  0  0  0  0  0
   11.0165  -11.7622    0.0000 N   0  0  0  0  0  0  0  0  0  0  0  0
   11.6919  -12.9019    0.0000 C   0  0  0  0  0  0  0  0  0  0  0  0
   13.0144  -12.9019    0.0000 C   0  0  0  0  0  0  0  0  0  0  0  0
   13.6757  -14.0697    0.0000 C   0  0  0  0  0  0  0  0  0  0  0  0
   13.6757  -11.7622    0.0000 C   0  0  0  0  0  0  0  0  0  0  0  0
    8.0760   -4.0099    0.0000 O   0  0  0  0  0  0  0  0  0  0  0  0
    9.2297   -3.3486    0.0000 O   0  0  0  0  0  0  0  0  0  0  0  0
   10.3975   -5.3324    0.0000 N   0  0  0  0  0  0  0  0  0  0  0  0
   10.3975   -4.0099    0.0000 C   0  0  0  0  0  0  0  0  0  0  0  0
    5.7686   -4.0099    0.0000 O   0  0  0  0  0  0  0  0  0  0  0  0
    6.9363   -3.3486    0.0000 O   0  0  0  0  0  0  0  0  0  0  0  0
    9.2297   -2.0260    0.0000 C   0  0  0  0  0  0  0  0  0  0  0  0
   10.3975   -1.3366    0.0000 C   0  0  0  0  0  0  0  0  0  0  0  0
   11.5371   -3.3486    0.0000 C   0  0  0  0  0  0  0  0  0  0  0  0
   11.5371   -2.0260    0.0000 C   0  0  0  0  0  0  0  0  0  0  0  0
    6.9363   -1.9979    0.0000 C   0  0  0  0  0  0  0  0  0  0  0  0
    8.0760   -1.3366    0.0000 C   0  0  0  0  0  0  0  0  0  0  0  0
    4.6289   -3.3486    0.0000 C   0  0  0  0  0  0  0  0  0  0  0  0
    4.6289   -2.0260    0.0000 C   0  0  0  0  0  0  0  0  0  0  0  0
    5.7686   -1.3366    0.0000 C   0  0  0  0  0  0  0  0  0  0  0  0
    3.4611   -4.0099    0.0000 C   0  0  0  0  0  0  0  0  0  0  0  0
    3.4611   -5.3324    0.0000 C   0  0  0  0  0  0  0  0  0  0  0  0
    2.3215   -5.9937    0.0000 C   0  0  0  0  0  0  0  0  0  0  0  0
    2.3215   -7.3303    0.0000 C   0  0  0  0  0  0  0  0  0  0  0  0
    3.4611   -1.3366    0.0000 O   0  0  0  0  0  0  0  0  0  0  0  0
    5.7686    0.0000    0.0000 C   0  0  0  0  0  0  0  0  0  0  0  0
    8.0760    0.0000    0.0000 C   0  0  0  0  0  0  0  0  0  0  0  0
   12.7049   -4.0099    0.0000 C   0  0  0  0  0  0  0  0  0  0  0  0
    2.8421   -9.4407    0.0000 O   0  0  0  0  0  0  0  0  0  0  0  0
    4.1787  -10.7914    0.0000 C   0  0  0  0  0  0  0  0  0  0  0  0
    1.9135   -8.5121    0.0000 C   0  0  0  0  0  0  0  0  0  0  0  0
    1.1678   -5.3324    0.0000 O   0  0  0  0  0  0  0  0  0  0  0  0
    0.0000   -5.9937    0.0000 C   0  0  0  0  0  0  0  0  0  0  0  0
    2.3215   -3.3345    0.0000 O   0  0  0  0  0  0  0  0  0  0  0  0
    3.5596   -6.7253    0.0000 C   0  0  0  0  0  0  0  0  0  0  0  0
    4.6289   -4.6852    0.0000 C   0  0  0  0  0  0  0  0  0  0  0  0
    6.3876  -10.2990    0.0000 O   0  0  0  0  0  0  0  0  0  0  0  0
    5.5857   -2.6451    0.0000 C   0  0  0  0  0  0  0  0  0  0  0  0
    0.9708   -3.3345    0.0000 C   0  0  0  0  0  0  0  0  0  0  0  0
    0.3236   -2.1808    0.0000 C   0  0  0  0  0  0  0  0  0  0  0  0
    0.2955   -4.4741    0.0000 O   0  0  0  0  0  0  0  0  0  0  0  0
  1  2  2  0  0  0  0
  1  3  1  0  0  0  0
  1  7  1  0  0  0  0
  2  4  1  0  0  0  0
  2  9  1  0  0  0  0
  3 30  1  0  0  0  0
  3  5  2  0  0  0  0
  4 14  1  0  0  0  0
  4  6  2  0  0  0  0
  5  6  1  0  0  0  0
  5 56  1  0  0  0  0
  6 16  1  0  0  0  0
  7  8  1  0  0  0  0
  7 26  2  0  0  0  0
  8 10  2  0  0  0  0
  8 28  1  0  0  0  0
  9 11  2  0  0  0  0
  9 10  1  0  0  0  0
 10 13  1  0  0  0  0
 11 12  1  0  0  0  0
 12 13  1  0  0  0  0
 12 17  1  0  0  0  0
 12 18  1  0  0  0  0
 14 15  1  0  0  0  0
 14 57  2  0  0  0  0
 15 16  1  0  0  0  0
 15 49  1  0  0  0  0
 15 50  1  6  0  0  0
 17 19  1  0  0  0  0
 18 20  1  0  0  0  0
 19 21  1  0  0  0  0
 20 21  1  0  0  0  0
 21 22  1  0  0  0  0
 22 23  1  0  0  0  0
 23 24  1  0  0  0  0
 23 25  1  0  0  0  0
 27 29  2  0  0  0  0
 28 29  1  0  0  0  0
 29 34  1  0  0  0  0
 36 31  1  6  0  0  0
 32 33  2  0  0  0  0
 32 37  1  0  0  0  0
 33 35  1  0  0  0  0
 34 35  2  0  0  0  0
 34 48  1  0  0  0  0
 36 37  1  0  0  0  0
 36 40  1  0  0  0  0
 37 47  1  1  0  0  0
 38 39  1  0  0  0  0
 38 41  1  0  0  0  0
 38 58  1  1  0  0  0
 39 40  1  0  0  0  0
 39 45  1  6  0  0  0
 40 46  1  6  0  0  0
 41 42  1  0  0  0  0
 41 54  1  1  0  0  0
 42 43  1  0  0  0  0
 42 55  1  6  0  0  0
 43 44  1  0  0  0  0
 43 52  1  6  0  0  0
 44 51  2  0  0  0  0
 49 51  1  0  0  0  0
 52 53  1  0  0  0  0
 54 59  1  0  0  0  0
 59 60  1  0  0  0  0
 59 61  2  0  0  0  0
M  END
> <ID>
6289

> <Formula>
C46H62N4O11

> <FW>
847.0047

> <DSSTox_CID>
10773

> <DSSTox_RID>
79103

> <DSSTox_GSID>
33960

> <DSSTox_FileID_Sort>
3785

> <TS_ChemName>
Rifabutin

> <TS_ChemName_Synonyms>


> <TS_CASRN>
72559-06-9

> <CASRN_ChemName_Relationship>
primary

> <TS_Description>
single chemical compound

> <ChemNote>
stereochem; tautomers

> <STRUCTURE_Shown>
tested chemical

> <STRUCTURE_Formula>
C46H62N4O11

> <STRUCTURE_MW>
847.0047

> <STRUCTURE_ChemType>
defined organic

> <STRUCTURE_DefinedOrganicForm>
parent

> <STRUCTURE_IUPAC>
(9S,12E,14S,15R,16S,17R,18R,19R,20S,21S,22E,24Z)-6,18,20-trihydroxy-14-methoxy-7,9,15,17,19,21,25-heptamethyl-1'-(2-methylpropyl)-5,10,26-trioxo-3,5,9,10-tetrahydrospiro[9,4-(epoxypentadeca[1,11,13]trienoimino)furo[2',3':7,8]naphtho[1,2-d]imidazole-2,4'-p

> <STRUCTURE_SMILES>
CC(C)CN1CCC3(CC1)NC4=C2NC(=O)C(C)=CC=C[C@H](C)[C@H](O)[C@@H](C)[C@@H](O)[C@@H](C)[C@H](OC(C)=O)[C@H](C)[C@@H](OC)C=CO[C@@]6(C)Oc5c(C)c(O)c(C2=O)c(C4=N3)c5C6=O

> <STRUCTURE_SMILES_Desalt>
CC(C)CN1CCC3(CC1)NC4=C2NC(=O)C(C)=CC=C[C@H](C)[C@H](O)[C@@H](C)[C@@H](O)[C@@H](C)[C@H](OC(C)=O)[C@H](C)[C@@H](OC)C=CO[C@@]6(C)Oc5c(C)c(O)c(C2=O)c(C4=N3)c5C6=O

> <Substance_modify_yyyymmdd>
20080429

$$$$
