72590-77-3
ChemmineR-0915142007XD

 38 41  0  0  1  0  0  0  0  0  1 V2000
    6.9503   -3.6919    0.0000 C   0  0  0  0  0  0  0  0  0  0  0  0
    3.4821   -5.6917    0.0000 C   0  0  0  0  0  0  0  0  0  0  0  0
    8.2229   -3.3143    0.0000 C   0  0  0  0  0  0  0  0  0  0  0  0
    5.7896   -5.6917    0.0000 C   0  0  0  0  0  0  0  0  0  0  0  0
    6.9503   -5.0344    0.0000 C   0  0  0  0  0  0  0  0  0  0  0  0
    4.6289   -5.0204    0.0000 C   0  0  0  0  0  0  0  0  0  0  0  0
    3.4821   -7.0202    0.0000 C   0  0  0  0  0  0  0  0  0  0  0  0
    5.7896   -3.0346    0.0000 C   0  0  0  0  0  0  0  0  0  0  0  0
    4.6289   -3.6919    0.0000 C   0  0  0  0  0  0  0  0  0  0  0  0
    2.3354   -7.6775    0.0000 C   0  0  0  0  0  0  0  0  0  0  0  0
    8.2229   -1.9718    0.0000 C   0  0  0  0  0  0  0  0  0  0  0  0
    8.9640   -4.3492    0.0000 C   0  0  0  0  0  0  0  0  0  0  0  0
    8.2229   -5.4400    0.0000 C   0  0  0  0  0  0  0  0  0  0  0  0
    5.7896   -7.0062    0.0000 C   0  0  0  0  0  0  0  0  0  0  0  0
    2.3354   -5.0204    0.0000 C   0  0  0  0  0  0  0  0  0  0  0  0
    4.6289   -7.6775    0.0000 C   0  0  0  0  0  0  0  0  0  0  0  0
    1.1887   -7.0062    0.0000 C   0  0  0  0  0  0  0  0  0  0  0  0
    9.3556   -1.2866    0.0000 O   0  0  0  0  0  0  0  0  0  0  0  0
    0.0000   -7.6495    0.0000 O   0  0  0  0  0  0  0  0  0  0  0  0
    6.9503   -2.3634    0.0000 C   0  0  0  0  0  0  0  0  0  0  0  0
    1.1887   -5.6917    0.0000 C   0  0  0  0  0  0  0  0  0  0  0  0
    3.4542   -3.0346    0.0000 O   0  0  0  0  0  0  0  0  0  0  0  0
    3.4821   -4.3492    0.0000 C   0  0  0  0  0  0  0  0  0  0  0  0
    7.0622   -1.3145    0.0000 C   0  0  0  0  0  0  0  0  0  0  0  0
    5.9154   -1.9858    0.0000 O   0  0  0  0  0  0  0  0  0  0  0  0
    5.7896   -4.3632    0.0000 H   0  0  0  0  0  0  0  0  0  0  0  0
    6.9503   -6.3629    0.0000 H   0  0  0  0  0  0  0  0  0  0  0  0
    4.6289   -6.3489    0.0000 H   0  0  0  0  0  0  0  0  0  0  0  0
    9.3696   -2.6431    0.0000 O   0  0  0  0  0  0  0  0  0  0  0  0
   10.5303   -3.3143    0.0000 C   0  0  0  0  0  0  0  0  0  0  0  0
   10.5303   -4.6428    0.0000 O   0  0  0  0  0  0  0  0  0  0  0  0
   11.6770   -2.6431    0.0000 C   0  0  0  0  0  0  0  0  0  0  0  0
   12.8377   -3.3143    0.0000 C   0  0  0  0  0  0  0  0  0  0  0  0
   13.9845   -2.6431    0.0000 C   0  0  0  0  0  0  0  0  0  0  0  0
    4.7547   -1.3285    0.0000 C   0  0  0  0  0  0  0  0  0  0  0  0
    4.7547    0.0000    0.0000 O   0  0  0  0  0  0  0  0  0  0  0  0
    3.6220   -1.9998    0.0000 C   0  0  0  0  0  0  0  0  0  0  0  0
    2.4473   -1.3425    0.0000 C   0  0  0  0  0  0  0  0  0  0  0  0
  1  3  1  0  0  0  0
  1  5  1  0  0  0  0
  1  8  1  0  0  0  0
  1 20  1  1  0  0  0
  2  6  1  0  0  0  0
  2  7  1  0  0  0  0
  2 15  1  0  0  0  0
  2 23  1  1  0  0  0
  3 11  1  0  0  0  0
  3 12  1  0  0  0  0
  3 29  1  6  0  0  0
  4  5  1  0  0  0  0
  4 14  1  0  0  0  0
  4  6  1  0  0  0  0
  4 26  1  1  0  0  0
  5 13  1  0  0  0  0
  5 27  1  6  0  0  0
  6  9  1  0  0  0  0
  6 28  1  6  0  0  0
  7 10  2  0  0  0  0
  7 16  1  0  0  0  0
  8  9  1  0  0  0  0
  9 22  1  1  0  0  0
 10 17  1  0  0  0  0
 11 18  2  0  0  0  0
 11 24  1  0  0  0  0
 12 13  1  0  0  0  0
 14 16  1  0  0  0  0
 15 21  1  0  0  0  0
 17 21  1  0  0  0  0
 17 19  2  0  0  0  0
 24 25  1  0  0  0  0
 25 35  1  0  0  0  0
 29 30  1  0  0  0  0
 30 31  2  0  0  0  0
 30 32  1  0  0  0  0
 32 33  1  0  0  0  0
 33 34  1  0  0  0  0
 35 36  2  0  0  0  0
 35 37  1  0  0  0  0
 37 38  1  0  0  0  0
M  END
> <ID>
13601

> <Formula>
C28H40O7

> <FW>
488.613

> <DSSTox_CID>
28529

> <DSSTox_RID>
82801

> <DSSTox_GSID>
48603

> <DSSTox_FileID_Sort>
7478

> <TS_ChemName>
Hydrocortisone buteprate

> <TS_ChemName_Synonyms>
HYDROCORTISONE PROBUTATE

> <TS_CASRN>
72590-77-3

> <CASRN_ChemName_Relationship>
primary

> <TS_Description>
single chemical compound

> <ChemNote>
stereochem; tautomers

> <STRUCTURE_Shown>
tested chemical

> <STRUCTURE_Formula>
C28H40O7

> <STRUCTURE_MW>
488.613

> <STRUCTURE_ChemType>
defined organic

> <STRUCTURE_DefinedOrganicForm>
parent

> <STRUCTURE_IUPAC>
(11beta)-11-hydroxy-3,20-dioxo-21-(propanoyloxy)pregn-4-en-17-yl butanoate

> <STRUCTURE_SMILES>
CCC(=O)OCC(=O)[C@@]4(OC(=O)CCC)CC[C@@H]2[C@]4(C)C[C@H](O)[C@@H]1[C@@]3(C)CCC(=O)C=C3CC[C@H]12

> <STRUCTURE_SMILES_Desalt>
CCC(=O)OCC(=O)[C@@]4(OC(=O)CCC)CC[C@@H]2[C@]4(C)C[C@H](O)[C@@H]1[C@@]3(C)CCC(=O)C=C3CC[C@H]12

> <Substance_modify_yyyymmdd>
20111014

$$$$
