72599-27-0
ChemmineR-0915142007XD

 15 15  0  0  1  0  0  0  0  0  1 V2000
    4.5957   -2.0110    0.0000 C   0  0  0  0  0  0  0  0  0  0  0  0
    4.5957   -3.3448    0.0000 C   0  0  0  0  0  0  0  0  0  0  0  0
    3.4554   -1.3338    0.0000 C   0  0  0  0  0  0  0  0  0  0  0  0
    3.4554   -4.0014    0.0000 N   0  0  0  0  0  0  0  0  0  0  0  0
    2.3151   -2.0110    0.0000 C   0  0  0  0  0  0  0  0  0  0  0  0
    2.3151   -3.3448    0.0000 C   0  0  0  0  0  0  0  0  0  0  0  0
    1.1403   -1.3338    0.0000 O   0  0  0  0  0  0  0  0  0  0  0  0
    3.4554    0.0000    0.0000 O   0  0  0  0  0  0  0  0  0  0  0  0
    5.7705   -1.3338    0.0000 O   0  0  0  0  0  0  0  0  0  0  0  0
    5.7705   -4.0014    0.0000 C   0  0  0  0  0  0  0  0  0  0  0  0
    6.9108   -3.3448    0.0000 O   0  0  0  0  0  0  0  0  0  0  0  0
    3.4554   -5.3352    0.0000 C   0  0  0  0  0  0  0  0  0  0  0  0
    2.3151   -5.9779    0.0000 C   0  0  0  0  0  0  0  0  0  0  0  0
    1.1403   -5.3352    0.0000 C   0  0  0  0  0  0  0  0  0  0  0  0
    0.0000   -5.9779    0.0000 C   0  0  0  0  0  0  0  0  0  0  0  0
  1  2  1  0  0  0  0
  1  3  1  0  0  0  0
  1  9  1  6  0  0  0
  2  4  1  0  0  0  0
  2 10  1  1  0  0  0
  3  5  1  0  0  0  0
  3  8  1  1  0  0  0
  4  6  1  0  0  0  0
  4 12  1  0  0  0  0
  5  6  1  0  0  0  0
  5  7  1  6  0  0  0
 10 11  1  0  0  0  0
 12 13  1  0  0  0  0
 13 14  1  0  0  0  0
 14 15  1  0  0  0  0
M  END
> <ID>
11074

> <Formula>
C10H21NO4

> <FW>
219.278

> <DSSTox_CID>
25618

> <DSSTox_RID>
81006

> <DSSTox_GSID>
45618

> <DSSTox_FileID_Sort>
5687

> <TS_ChemName>
Miglustat

> <TS_ChemName_Synonyms>


> <TS_CASRN>
72599-27-0

> <CASRN_ChemName_Relationship>
primary

> <TS_Description>
single chemical compound

> <ChemNote>
stereochem

> <STRUCTURE_Shown>
tested chemical

> <STRUCTURE_Formula>
C10H21NO4

> <STRUCTURE_MW>
219.278

> <STRUCTURE_ChemType>
defined organic

> <STRUCTURE_DefinedOrganicForm>
parent

> <STRUCTURE_IUPAC>
(2R,3R,4R,5S)-1-butyl-2-(hydroxymethyl)piperidine-3,4,5-triol

> <STRUCTURE_SMILES>
OC[C@@H]1[C@@H](O)[C@H](O)[C@@H](O)CN1CCCC

> <STRUCTURE_SMILES_Desalt>
OC[C@@H]1[C@@H](O)[C@H](O)[C@@H](O)CN1CCCC

> <Substance_modify_yyyymmdd>
20100107

$$$$
