72702-95-5
ChemmineR-0915142007XD

 24 26  0  0  0  0  0  0  0  0  1 V2000
    5.7531   -1.9902    0.0000 O    0  0  0  0  0  0  0  0  0  0  0  0
    4.6128   -1.3268    0.0000 C    0  0  0  0  0  0  0  0  0  0  0  0
    4.6128    0.0000    0.0000 O    0  0  0  0  0  0  0  0  0  0  0  0
    3.4622   -1.9902    0.0000 C    0  0  0  0  0  0  0  0  0  0  0  0
    3.4622   -3.3171    0.0000 C    0  0  0  0  0  0  0  0  0  0  0  0
    4.6128   -3.9805    0.0000 N    0  0  0  0  0  0  0  0  0  0  0  0
    4.6128   -5.3073    0.0000 N    0  0  0  0  0  0  0  0  0  0  0  0
    5.7531   -5.9811    0.0000 C    0  0  0  0  0  0  0  0  0  0  0  0
    6.9037   -5.3073    0.0000 C    0  0  0  0  0  0  0  0  0  0  0  0
    6.9037   -3.9805    0.0000 C    0  0  0  0  0  0  0  0  0  0  0  0
    8.0543   -3.3171    0.0000 C    0  0  0  0  0  0  0  0  0  0  0  0
    9.2153   -3.9805    0.0000 C    0  0  0  0  0  0  0  0  0  0  0  0
   10.3659   -3.3171    0.0000 Br   0  0  0  0  0  0  0  0  0  0  0  0
    9.2153   -5.3073    0.0000 C    0  0  0  0  0  0  0  0  0  0  0  0
    8.0543   -5.9811    0.0000 C    0  0  0  0  0  0  0  0  0  0  0  0
    8.0543   -7.3079    0.0000 F    0  0  0  0  0  0  0  0  0  0  0  0
    3.4622   -5.9811    0.0000 C    0  0  0  0  0  0  0  0  0  0  0  0
    3.4622   -7.3079    0.0000 O    0  0  0  0  0  0  0  0  0  0  0  0
    2.3116   -5.3073    0.0000 C    0  0  0  0  0  0  0  0  0  0  0  0
    1.1506   -5.9811    0.0000 C    0  0  0  0  0  0  0  0  0  0  0  0
    0.0000   -5.3073    0.0000 C    0  0  0  0  0  0  0  0  0  0  0  0
    0.0000   -3.9805    0.0000 C    0  0  0  0  0  0  0  0  0  0  0  0
    1.1506   -3.3171    0.0000 C    0  0  0  0  0  0  0  0  0  0  0  0
    2.3116   -3.9805    0.0000 C    0  0  0  0  0  0  0  0  0  0  0  0
  1  2  1  0  0  0  0
  2  3  2  0  0  0  0
  2  4  1  0  0  0  0
  4  5  1  0  0  0  0
  5  6  2  0  0  0  0
  5 24  1  0  0  0  0
  6  7  1  0  0  0  0
  7  8  1  0  0  0  0
  7 17  1  0  0  0  0
  8  9  1  0  0  0  0
  9 10  2  0  0  0  0
  9 15  1  0  0  0  0
 10 11  1  0  0  0  0
 11 12  2  0  0  0  0
 12 13  1  0  0  0  0
 12 14  1  0  0  0  0
 14 15  2  0  0  0  0
 15 16  1  0  0  0  0
 17 18  2  0  0  0  0
 17 19  1  0  0  0  0
 19 20  2  0  0  0  0
 19 24  1  0  0  0  0
 20 21  1  0  0  0  0
 21 22  2  0  0  0  0
 22 23  1  0  0  0  0
 23 24  2  0  0  0  0
M  END
> <ID>
11109

> <Formula>
C17H12BrFN2O3

> <FW>
391.1912

> <DSSTox_CID>
25665

> <DSSTox_RID>
81041

> <DSSTox_GSID>
45665

> <DSSTox_FileID_Sort>
5722

> <TS_ChemName>
Ponalrestat

> <TS_ChemName_Synonyms>


> <TS_CASRN>
72702-95-5

> <CASRN_ChemName_Relationship>
primary

> <TS_Description>
single chemical compound

> <ChemNote>


> <STRUCTURE_Shown>
tested chemical

> <STRUCTURE_Formula>
C17H12BrFN2O3

> <STRUCTURE_MW>
391.1912

> <STRUCTURE_ChemType>
defined organic

> <STRUCTURE_DefinedOrganicForm>
parent

> <STRUCTURE_IUPAC>
[3-(4-bromo-2-fluorobenzyl)-4-oxo-3,4-dihydrophthalazin-1-yl]acetic acid

> <STRUCTURE_SMILES>
O=C(O)CC3=NN(Cc1ccc(Br)cc1F)C(=O)c2ccccc23

> <STRUCTURE_SMILES_Desalt>
O=C(O)CC3=NN(Cc1ccc(Br)cc1F)C(=O)c2ccccc23

> <Substance_modify_yyyymmdd>
20100107

$$$$
