72741-87-8
ChemmineR-0915142007XD

 13 14  0  0  1  0  0  0  0  0  1 V2000
    2.3089   -2.0018    0.0000 C   0  0  0  0  0  0  0  0  0  0  0  0
    2.3089   -3.3326    0.0000 N   0  0  0  0  0  0  0  0  0  0  0  0
    1.1545   -1.3251    0.0000 C   0  0  0  0  0  0  0  0  0  0  0  0
    1.1545   -3.9866    0.0000 C   0  0  0  0  0  0  0  0  0  0  0  0
    0.0000   -2.0018    0.0000 C   0  0  0  0  0  0  0  0  0  0  0  0
    0.0000   -3.3326    0.0000 C   0  0  0  0  0  0  0  0  0  0  0  0
    3.5714   -1.5810    0.0000 C   0  0  0  0  0  0  0  0  0  0  0  0
    4.3562   -2.6558    0.0000 C   0  0  0  0  0  0  0  0  0  0  0  0
    3.5714   -3.7307    0.0000 C   0  0  0  0  0  0  0  0  0  0  0  0
    1.1545    0.0000    0.0000 O   0  0  0  0  0  0  0  0  0  0  0  0
    2.3203   -0.6711    0.0000 H   0  0  0  0  0  0  0  0  0  0  0  0
    3.9752   -0.3185    0.0000 O   0  0  0  0  0  0  0  0  0  0  0  0
    5.6870   -2.6558    0.0000 O   0  0  0  0  0  0  0  0  0  0  0  0
  1  3  1  0  0  0  0
  1  7  1  0  0  0  0
  1  2  1  0  0  0  0
  1 11  1  1  0  0  0
  2  4  1  0  0  0  0
  2  9  1  0  0  0  0
  3  5  1  0  0  0  0
  3 10  1  1  0  0  0
  4  6  1  0  0  0  0
  5  6  1  0  0  0  0
  7  8  1  0  0  0  0
  7 12  1  6  0  0  0
  8  9  1  0  0  0  0
  8 13  1  6  0  0  0
M  END
> <ID>
11625

> <Formula>
C8H15NO3

> <FW>
173.2096

> <DSSTox_CID>
26356

> <DSSTox_RID>
81558

> <DSSTox_GSID>
46356

> <DSSTox_FileID_Sort>
6239

> <TS_ChemName>
Swainsonine

> <TS_ChemName_Synonyms>


> <TS_CASRN>
72741-87-8

> <CASRN_ChemName_Relationship>
primary

> <TS_Description>
single chemical compound

> <ChemNote>
stereochem

> <STRUCTURE_Shown>
tested chemical

> <STRUCTURE_Formula>
C8H15NO3

> <STRUCTURE_MW>
173.2096

> <STRUCTURE_ChemType>
defined organic

> <STRUCTURE_DefinedOrganicForm>
parent

> <STRUCTURE_IUPAC>
(1S,2R,8R,8aR)-octahydroindolizine-1,2,8-triol

> <STRUCTURE_SMILES>
O[C@@H]1CCCN2C[C@@H](O)[C@@H](O)[C@@H]12

> <STRUCTURE_SMILES_Desalt>
O[C@@H]1CCCN2C[C@@H](O)[C@@H](O)[C@@H]12

> <Substance_modify_yyyymmdd>
20110814

$$$$
