7279-75-6
ChemmineR-0915142007XD

 22 21  0  0  0  0  0  0  0  0  1 V2000
    3.4588   -2.0038    0.0000 C   0  0  0  0  0  0  0  0  0  0  0  0
    3.4588   -3.3341    0.0000 C   0  0  0  0  0  0  0  0  0  0  0  0
    5.7702   -2.0038    0.0000 C   0  0  0  0  0  0  0  0  0  0  0  0
    2.3031   -3.9909    0.0000 C   0  0  0  0  0  0  0  0  0  0  0  0
    5.7702   -3.3341    0.0000 N   0  0  0  0  0  0  0  0  0  0  0  0
    4.6145   -1.3303    0.0000 C   0  0  0  0  0  0  0  0  0  0  0  0
    1.1557   -3.3341    0.0000 C   0  0  0  0  0  0  0  0  0  0  0  0
    2.3031   -1.3303    0.0000 C   0  0  0  0  0  0  0  0  0  0  0  0
    1.1557   -2.0038    0.0000 C   0  0  0  0  0  0  0  0  0  0  0  0
    2.3031   -5.3212    0.0000 O   0  0  0  0  0  0  0  0  0  0  0  0
    4.6145    0.0000    0.0000 O   0  0  0  0  0  0  0  0  0  0  0  0
    0.0000   -3.9909    0.0000 O   0  0  0  0  0  0  0  0  0  0  0  0
    6.9176   -3.9909    0.0000 C   0  0  0  0  0  0  0  0  0  0  0  0
    6.9176   -1.3303    0.0000 C   0  0  0  0  0  0  0  0  0  0  0  0
    8.0733   -3.3341    0.0000 C   0  0  0  0  0  0  0  0  0  0  0  0
    6.9176   -5.3212    0.0000 C   0  0  0  0  0  0  0  0  0  0  0  0
    8.0733   -2.0038    0.0000 C   0  0  0  0  0  0  0  0  0  0  0  0
    5.0635   -8.3144    0.0000 C   0  0  0  0  0  0  0  0  0  0  0  0
    5.0635   -6.9841    0.0000 S   0  0  0  0  0  0  0  0  0  0  0  0
    3.7332   -6.9841    0.0000 O   0  0  0  0  0  0  0  0  0  0  0  0
    5.0635   -5.6538    0.0000 O   0  0  0  0  0  0  0  0  0  0  0  0
    6.3772   -6.9841    0.0000 O   0  0  0  0  0  0  0  0  0  0  0  0
  1  2  1  0  0  0  0
  1  6  1  0  0  0  0
  1  8  2  0  0  0  0
  2  4  2  0  0  0  0
  3  6  1  0  0  0  0
  3  5  1  0  0  0  0
  3 14  1  0  0  0  0
  4 10  1  0  0  0  0
  4  7  1  0  0  0  0
  5 13  1  0  0  0  0
  6 11  1  0  0  0  0
  7  9  2  0  0  0  0
  7 12  1  0  0  0  0
  8  9  1  0  0  0  0
 13 15  1  0  0  0  0
 13 16  1  0  0  0  0
 14 17  1  0  0  0  0
 18 19  1  0  0  0  0
 19 20  1  0  0  0  0
 19 21  2  0  0  0  0
 19 22  2  0  0  0  0
M  END
> <ID>
11036

> <Formula>
C14H25NO6S

> <FW>
335.4164 (239.3107+96.1057)

> <DSSTox_CID>
25571

> <DSSTox_RID>
80968

> <DSSTox_GSID>
45571

> <DSSTox_FileID_Sort>
5649

> <TS_ChemName>
Isoetharine mesylate

> <TS_ChemName_Synonyms>


> <TS_CASRN>
7279-75-6

> <CASRN_ChemName_Relationship>
primary

> <TS_Description>
single chemical compound

> <ChemNote>
parent [530-08-5]

> <STRUCTURE_Shown>
tested chemical

> <STRUCTURE_Formula>
C14H25NO6S

> <STRUCTURE_MW>
335.4164

> <STRUCTURE_ChemType>
defined organic

> <STRUCTURE_DefinedOrganicForm>
complex

> <STRUCTURE_IUPAC>
4-[1-hydroxy-2-(propan-2-ylamino)butyl]benzene-1,2-diol methanesulfonate (1:1)

> <STRUCTURE_SMILES>
Oc1ccc(cc1O)C(O)C(CC)NC(C)C.CS(=O)(=O)O

> <STRUCTURE_SMILES_Desalt>
Oc1ccc(cc1O)C(O)C(CC)NC(C)C

> <Substance_modify_yyyymmdd>
20100107

$$$$
