728-40-5
ChemmineR-0915142007XD

 18 18  0  0  0  0  0  0  0  0  2 V2000
    2.6616   -5.7587    0.0000 O   0  0  0  0  0  0  0  0  0  0  0  0
    3.3253   -4.6111    0.0000 C   0  0  0  0  0  0  0  0  0  0  0  0
    2.6616   -3.4566    0.0000 C   0  0  0  0  0  0  0  0  0  0  0  0
    1.3273   -3.4566    0.0000 C   0  0  0  0  0  0  0  0  0  0  0  0
    1.3273   -4.7840    0.0000 C   0  0  0  0  0  0  0  0  0  0  0  0
    0.0000   -3.4566    0.0000 C   0  0  0  0  0  0  0  0  0  0  0  0
    1.3273   -2.1293    0.0000 C   0  0  0  0  0  0  0  0  0  0  0  0
    3.3253   -2.3021    0.0000 C   0  0  0  0  0  0  0  0  0  0  0  0
    4.6595   -2.3021    0.0000 C   0  0  0  0  0  0  0  0  0  0  0  0
    5.3232   -1.1545    0.0000 N   0  3  0  0  0  0  0  0  0  0  0  0
    4.6595    0.0000    0.0000 O   0  5  0  0  0  0  0  0  0  0  0  0
    6.6505   -1.1545    0.0000 O   0  0  0  0  0  0  0  0  0  0  0  0
    5.3232   -3.4566    0.0000 C   0  0  0  0  0  0  0  0  0  0  0  0
    4.6595   -4.6111    0.0000 C   0  0  0  0  0  0  0  0  0  0  0  0
    5.3232   -5.7587    0.0000 C   0  0  0  0  0  0  0  0  0  0  0  0
    6.4708   -5.0950    0.0000 C   0  0  0  0  0  0  0  0  0  0  0  0
    5.9869   -6.9132    0.0000 C   0  0  0  0  0  0  0  0  0  0  0  0
    4.1687   -6.4293    0.0000 C   0  0  0  0  0  0  0  0  0  0  0  0
  1  2  1  0  0  0  0
  2  3  2  0  0  0  0
  2 14  1  0  0  0  0
  3  4  1  0  0  0  0
  3  8  1  0  0  0  0
  4  5  1  0  0  0  0
  4  6  1  0  0  0  0
  4  7  1  0  0  0  0
  8  9  2  0  0  0  0
  9 10  1  0  0  0  0
  9 13  1  0  0  0  0
 10 11  1  0  0  0  0
 10 12  2  0  0  0  0
 13 14  2  0  0  0  0
 14 15  1  0  0  0  0
 15 16  1  0  0  0  0
 15 17  1  0  0  0  0
 15 18  1  0  0  0  0
M  END
> <ID>
1498

> <Formula>
C14H21NO3

> <FW>
251.3214

> <DSSTox_CID>
1559

> <DSSTox_RID>
76210

> <DSSTox_GSID>
21559

> <DSSTox_FileID_Sort>
894

> <TS_ChemName>
2,6-Di-tert-butyl-4-nitrophenol

> <TS_ChemName_Synonyms>


> <TS_CASRN>
728-40-5

> <CASRN_ChemName_Relationship>
primary

> <TS_Description>
single chemical compound

> <ChemNote>


> <STRUCTURE_Shown>
tested chemical

> <STRUCTURE_Formula>
C14H21NO3

> <STRUCTURE_MW>
251.3214

> <STRUCTURE_ChemType>
defined organic

> <STRUCTURE_DefinedOrganicForm>
parent

> <STRUCTURE_IUPAC>
2,6-di-tert-butyl-4-nitrophenol

> <STRUCTURE_SMILES>
CC(C)(C)c1cc(cc(c1O)C(C)(C)C)[N+]([O-])=O

> <STRUCTURE_SMILES_Desalt>
CC(C)(C)c1cc(cc(c1O)C(C)(C)C)[N+]([O-])=O

> <Substance_modify_yyyymmdd>
20080429

$$$$
