7280-37-7
ChemmineR-0915142007XD

 33 36  0  0  1  0  0  0  0  0  1 V2000
    8.0440   -3.6760    0.0000 C   0  0  0  0  0  0  0  0  0  0  0  0
    6.8908   -3.0129    0.0000 C   0  0  0  0  0  0  0  0  0  0  0  0
    9.1973   -3.0129    0.0000 C   0  0  0  0  0  0  0  0  0  0  0  0
    8.0440   -5.0023    0.0000 C   0  0  0  0  0  0  0  0  0  0  0  0
    5.7375   -3.6760    0.0000 C   0  0  0  0  0  0  0  0  0  0  0  0
    6.8908   -1.6867    0.0000 C   0  0  0  0  0  0  0  0  0  0  0  0
    9.1973   -1.6867    0.0000 C   0  0  0  0  0  0  0  0  0  0  0  0
   10.4659   -3.4310    0.0000 C   0  0  0  0  0  0  0  0  0  0  0  0
    6.8908   -5.6798    0.0000 C   0  0  0  0  0  0  0  0  0  0  0  0
    5.7375   -5.0023    0.0000 C   0  0  0  0  0  0  0  0  0  0  0  0
    4.5986   -3.0129    0.0000 C   0  0  0  0  0  0  0  0  0  0  0  0
    8.0440   -1.0091    0.0000 C   0  0  0  0  0  0  0  0  0  0  0  0
   10.4659   -1.2686    0.0000 C   0  0  0  0  0  0  0  0  0  0  0  0
   11.2443   -2.3498    0.0000 C   0  0  0  0  0  0  0  0  0  0  0  0
    4.5986   -5.6798    0.0000 C   0  0  0  0  0  0  0  0  0  0  0  0
    3.4598   -3.6760    0.0000 C   0  0  0  0  0  0  0  0  0  0  0  0
   10.8695    0.0000    0.0000 O   0  0  0  0  0  0  0  0  0  0  0  0
    3.4598   -5.0023    0.0000 C   0  0  0  0  0  0  0  0  0  0  0  0
    2.3065   -5.6798    0.0000 O   0  0  0  0  0  0  0  0  0  0  0  0
    1.1533   -5.0023    0.0000 S   0  0  0  0  0  0  0  0  0  0  0  0
    1.8164   -3.8634    0.0000 O   0  0  0  0  0  0  0  0  0  0  0  0
    0.4757   -6.1556    0.0000 O   0  0  0  0  0  0  0  0  0  0  0  0
    0.0000   -4.3392    0.0000 O   0  0  0  0  0  0  0  0  0  0  0  0
    6.8908   -4.3392    0.0000 H   0  0  0  0  0  0  0  0  0  0  0  0
    9.1973   -4.3392    0.0000 H   0  0  0  0  0  0  0  0  0  0  0  0
    8.0440   -2.3498    0.0000 H   0  0  0  0  0  0  0  0  0  0  0  0
    9.1973   -0.3604    0.0000 C   0  0  0  0  0  0  0  0  0  0  0  0
   12.1093   -3.0706    0.0000 C   0  0  0  0  0  0  0  0  0  0  0  0
   12.1093   -1.7299    0.0000 C   0  0  0  0  0  0  0  0  0  0  0  0
   13.2626   -3.7193    0.0000 N   0  0  0  0  0  0  0  0  0  0  0  0
   13.2626   -1.0668    0.0000 N   0  0  0  0  0  0  0  0  0  0  0  0
   14.4158   -3.0706    0.0000 C   0  0  0  0  0  0  0  0  0  0  0  0
   14.4158   -1.7299    0.0000 C   0  0  0  0  0  0  0  0  0  0  0  0
  1  2  1  0  0  0  0
  1  3  1  0  0  0  0
  1  4  1  0  0  0  0
  1 26  1  1  0  0  0
  2  5  1  0  0  0  0
  2  6  1  0  0  0  0
  2 24  1  6  0  0  0
  3  7  1  0  0  0  0
  3  8  1  0  0  0  0
  3 25  1  6  0  0  0
  4  9  1  0  0  0  0
  5 10  2  0  0  0  0
  5 11  1  0  0  0  0
  6 12  1  0  0  0  0
  7 13  1  0  0  0  0
  7 12  1  0  0  0  0
  7 27  1  1  0  0  0
  8 14  1  0  0  0  0
  9 10  1  0  0  0  0
 10 15  1  0  0  0  0
 11 16  2  0  0  0  0
 13 17  2  0  0  0  0
 13 14  1  0  0  0  0
 15 18  2  0  0  0  0
 16 18  1  0  0  0  0
 18 19  1  0  0  0  0
 19 20  1  0  0  0  0
 20 21  1  0  0  0  0
 20 22  2  0  0  0  0
 20 23  2  0  0  0  0
 28 29  1  0  0  0  0
 28 30  1  0  0  0  0
 29 31  1  0  0  0  0
 30 32  1  0  0  0  0
 31 33  1  0  0  0  0
 32 33  1  0  0  0  0
M  END
> <ID>
2704

> <Formula>
C22H32N2O5S

> <FW>
436.5649 (350.4293+86.1356)

> <DSSTox_CID>
3005

> <DSSTox_RID>
76828

> <DSSTox_GSID>
23005

> <DSSTox_FileID_Sort>
1512

> <TS_ChemName>
Estropipate

> <TS_ChemName_Synonyms>


> <TS_CASRN>
7280-37-7

> <CASRN_ChemName_Relationship>
primary

> <TS_Description>
single chemical compound

> <ChemNote>
stereochem; parent [53-16-7]

> <STRUCTURE_Shown>
tested chemical

> <STRUCTURE_Formula>
C22H32N2O5S

> <STRUCTURE_MW>
436.5649

> <STRUCTURE_ChemType>
defined organic

> <STRUCTURE_DefinedOrganicForm>
complex

> <STRUCTURE_IUPAC>
17-oxoestra-1,3,5(10)-trien-3-yl hydrogen sulfate - piperazine (1:1)

> <STRUCTURE_SMILES>
O=S(=O)(O)Oc1cc2CC[C@H]3[C@@H]4CCC(=O)[C@@]4(C)CC[C@@H]3c2cc1.C1CNCCN1

> <STRUCTURE_SMILES_Desalt>
O=S(=O)(O)Oc3cc4CC[C@@H]1[C@H](CC[C@]2(C)C(=O)CC[C@@H]12)c4cc3

> <Substance_modify_yyyymmdd>
20080429

$$$$
