7281-04-1
ChemmineR-0915142007XD

 23 22  0  0  0  0  0  0  0  0  2 V2000
    4.5920   -2.1393    0.0000 N    0  3  0  0  0  0  0  0  0  0  0  0
    3.4486   -1.4753    0.0000 C    0  0  0  0  0  0  0  0  0  0  0  0
    2.2868   -2.1577    0.0000 C    0  0  0  0  0  0  0  0  0  0  0  0
    1.1434   -1.5122    0.0000 C    0  0  0  0  0  0  0  0  0  0  0  0
    2.3052   -3.4671    0.0000 C    0  0  0  0  0  0  0  0  0  0  0  0
    0.0000   -2.1393    0.0000 C    0  0  0  0  0  0  0  0  0  0  0  0
    1.1065   -4.1494    0.0000 C    0  0  0  0  0  0  0  0  0  0  0  0
    0.0000   -3.4855    0.0000 C    0  0  0  0  0  0  0  0  0  0  0  0
    5.7354   -1.5122    0.0000 C    0  0  0  0  0  0  0  0  0  0  0  0
    6.8972   -2.1024    0.0000 C    0  0  0  0  0  0  0  0  0  0  0  0
    8.0406   -1.4753    0.0000 C    0  0  0  0  0  0  0  0  0  0  0  0
    9.2209   -2.1761    0.0000 C    0  0  0  0  0  0  0  0  0  0  0  0
   10.3459   -1.4569    0.0000 C    0  0  0  0  0  0  0  0  0  0  0  0
   11.5446   -2.1393    0.0000 C    0  0  0  0  0  0  0  0  0  0  0  0
   12.6695   -1.4385    0.0000 C    0  0  0  0  0  0  0  0  0  0  0  0
   13.8498   -2.1208    0.0000 C    0  0  0  0  0  0  0  0  0  0  0  0
   14.9932   -1.4938    0.0000 C    0  0  0  0  0  0  0  0  0  0  0  0
   16.1366   -2.1577    0.0000 C    0  0  0  0  0  0  0  0  0  0  0  0
   17.3169   -1.4569    0.0000 C    0  0  0  0  0  0  0  0  0  0  0  0
   18.4418   -2.1208    0.0000 C    0  0  0  0  0  0  0  0  0  0  0  0
    4.5920   -3.5039    0.0000 C    0  0  0  0  0  0  0  0  0  0  0  0
    4.6105   -0.8483    0.0000 C    0  0  0  0  0  0  0  0  0  0  0  0
    3.6884    0.0000    0.0000 Br   0  5  0  0  0  0  0  0  0  0  0  0
  1  2  1  0  0  0  0
  1  9  1  0  0  0  0
  1 21  1  0  0  0  0
  1 22  1  0  0  0  0
  2  3  1  0  0  0  0
  3  4  2  0  0  0  0
  3  5  1  0  0  0  0
  4  6  1  0  0  0  0
  5  7  2  0  0  0  0
  6  8  2  0  0  0  0
  7  8  1  0  0  0  0
  9 10  1  0  0  0  0
 10 11  1  0  0  0  0
 11 12  1  0  0  0  0
 12 13  1  0  0  0  0
 13 14  1  0  0  0  0
 14 15  1  0  0  0  0
 15 16  1  0  0  0  0
 16 17  1  0  0  0  0
 17 18  1  0  0  0  0
 18 19  1  0  0  0  0
 19 20  1  0  0  0  0
M  END
> <ID>
13691

> <Formula>
C21H38BrN

> <FW>
384.4371 (304.5326+79.9045)

> <DSSTox_CID>
28624

> <DSSTox_RID>
82894

> <DSSTox_GSID>
48698

> <DSSTox_FileID_Sort>
7571

> <TS_ChemName>
Benzyldodecyldimethylammonium bromide

> <TS_ChemName_Synonyms>


> <TS_CASRN>
7281-04-1

> <CASRN_ChemName_Relationship>
primary

> <TS_Description>
single chemical compound

> <ChemNote>


> <STRUCTURE_Shown>
tested chemical

> <STRUCTURE_Formula>
C21H38BrN

> <STRUCTURE_MW>
384.4371

> <STRUCTURE_ChemType>
defined organic

> <STRUCTURE_DefinedOrganicForm>
salt

> <STRUCTURE_IUPAC>
N-benzyl-N,N-dimethyldodecan-1-aminium bromide

> <STRUCTURE_SMILES>
[Br-].C[N+](C)(Cc1ccccc1)CCCCCCCCCCCC

> <STRUCTURE_SMILES_Desalt>
C[N+](C)(Cc1ccccc1)CCCCCCCCCCCC

> <Substance_modify_yyyymmdd>
20111204

$$$$
