72822-13-0
ChemmineR-0915142007XD

 25 27  0  0  0  0  0  0  0  0  1 V2000
    2.3315   -2.9960    0.0000 N    0  0  0  0  0  0  0  0  0  0  0  0
    4.3716   -2.3665    0.0000 N    0  0  0  0  0  0  0  0  0  0  0  0
    3.6138   -1.2823    0.0000 N    0  0  0  0  0  0  0  0  0  0  0  0
    3.6138   -3.4040    0.0000 C    0  0  0  0  0  0  0  0  0  0  0  0
    2.3315   -1.6670    0.0000 C    0  0  0  0  0  0  0  0  0  0  0  0
    8.1253   -3.2758    0.0000 N    0  0  0  0  0  0  0  0  0  0  0  0
    3.6138   -4.7329    0.0000 C    0  0  0  0  0  0  0  0  0  0  0  0
    9.2910   -2.6113    0.0000 C    0  0  0  0  0  0  0  0  0  0  0  0
    5.8404   -4.6513    0.0000 N    0  0  0  0  0  0  0  0  0  0  0  0
    8.1253   -4.5814    0.0000 C    0  0  0  0  0  0  0  0  0  0  0  0
    6.9595   -2.6696    0.0000 C    0  0  0  0  0  0  0  0  0  0  0  0
    4.7446   -5.3625    0.0000 C    0  0  0  0  0  0  0  0  0  0  0  0
    9.2910   -1.2474    0.0000 C    0  0  0  0  0  0  0  0  0  0  0  0
    5.8404   -3.2874    0.0000 C    0  0  0  0  0  0  0  0  0  0  0  0
    7.0295   -5.2809    0.0000 C    0  0  0  0  0  0  0  0  0  0  0  0
    1.1658   -3.6488    0.0000 C    0  0  0  0  0  0  0  0  0  0  0  0
    1.1658   -1.0025    0.0000 C    0  0  0  0  0  0  0  0  0  0  0  0
   10.5034   -3.2408    0.0000 C    0  0  0  0  0  0  0  0  0  0  0  0
    8.1253   -0.6062    0.0000 C    0  0  0  0  0  0  0  0  0  0  0  0
   10.4918   -0.6062    0.0000 C    0  0  0  0  0  0  0  0  0  0  0  0
    0.0000   -2.9960    0.0000 C    0  0  0  0  0  0  0  0  0  0  0  0
    0.0000   -1.7020    0.0000 C    0  0  0  0  0  0  0  0  0  0  0  0
   11.6575   -2.5996    0.0000 C    0  0  0  0  0  0  0  0  0  0  0  0
   11.6575   -1.2124    0.0000 C    0  0  0  0  0  0  0  0  0  0  0  0
    5.2575    0.0000    0.0000 Cl   0  0  0  0  0  0  0  0  0  0  0  0
  1  4  1  0  0  0  0
  1  5  1  0  0  0  0
  1 16  1  0  0  0  0
  2  4  2  0  0  0  0
  2  3  1  0  0  0  0
  3  5  2  0  0  0  0
  4  7  1  0  0  0  0
  5 17  1  0  0  0  0
  6 10  1  0  0  0  0
  6  8  1  0  0  0  0
  6 11  1  0  0  0  0
  7 12  1  0  0  0  0
  8 13  2  0  0  0  0
  8 18  1  0  0  0  0
  9 12  1  0  0  0  0
  9 14  1  0  0  0  0
  9 15  1  0  0  0  0
 10 15  1  0  0  0  0
 11 14  1  0  0  0  0
 13 19  1  0  0  0  0
 13 20  1  0  0  0  0
 16 21  1  0  0  0  0
 17 22  1  0  0  0  0
 18 23  2  0  0  0  0
 20 24  2  0  0  0  0
 21 22  1  0  0  0  0
 23 24  1  0  0  0  0
M  END
> <ID>
13664

> <Formula>
C19H28ClN5

> <FW>
361.9121 (325.4512+36.4609)

> <DSSTox_CID>
28595

> <DSSTox_RID>
82866

> <DSSTox_GSID>
48669

> <DSSTox_FileID_Sort>
7543

> <TS_ChemName>
Dapiprazole hydrochloride

> <TS_ChemName_Synonyms>


> <TS_CASRN>
72822-13-0

> <CASRN_ChemName_Relationship>
primary

> <TS_Description>
single chemical compound

> <ChemNote>


> <STRUCTURE_Shown>
tested chemical

> <STRUCTURE_Formula>
C19H28ClN5

> <STRUCTURE_MW>
361.9121

> <STRUCTURE_ChemType>
defined organic

> <STRUCTURE_DefinedOrganicForm>
complex

> <STRUCTURE_IUPAC>
3-{2-[4-(2-methylphenyl)piperazin-1-yl]ethyl}-5,6,7,8-tetrahydro[1,2,4]triazolo[4,3-a]pyridine hydrochloride (1:1)

> <STRUCTURE_SMILES>
Cl.Cc4ccccc4N3CCN(CCc1nnc2CCCCn12)CC3

> <STRUCTURE_SMILES_Desalt>
Cc4ccccc4N3CCN(CCc1nnc2CCCCn12)CC3

> <Substance_modify_yyyymmdd>
20111204

$$$$
