7287-19-6
ChemmineR-0915142007XD

 16 16  0  0  0  0  0  0  0  0  1 V2000
    1.1612   -2.6172    0.0000 C   0  0  0  0  0  0  0  0  0  0  0  0
    8.0635   -2.6541    0.0000 C   0  0  0  0  0  0  0  0  0  0  0  0
    9.2155   -4.6538    0.0000 C   0  0  0  0  0  0  0  0  0  0  0  0
    3.4466    0.0000    0.0000 C   0  0  0  0  0  0  0  0  0  0  0  0
    0.0000   -4.6170    0.0000 C   0  0  0  0  0  0  0  0  0  0  0  0
    1.1519   -3.9442    0.0000 C   0  0  0  0  0  0  0  0  0  0  0  0
    8.0635   -3.9719    0.0000 C   0  0  0  0  0  0  0  0  0  0  0  0
    4.5985   -0.6543    0.0000 S   0  0  0  0  0  0  0  0  0  0  0  0
    6.9116   -4.6538    0.0000 N   0  0  0  0  0  0  0  0  0  0  0  0
    2.3039   -4.6262    0.0000 N   0  0  0  0  0  0  0  0  0  0  0  0
    5.7505   -2.6448    0.0000 N   0  0  0  0  0  0  0  0  0  0  0  0
    5.7505   -3.9719    0.0000 C   0  0  0  0  0  0  0  0  0  0  0  0
    4.5985   -1.9721    0.0000 C   0  0  0  0  0  0  0  0  0  0  0  0
    4.5985   -4.6538    0.0000 N   0  0  0  0  0  0  0  0  0  0  0  0
    3.4650   -2.6541    0.0000 N   0  0  0  0  0  0  0  0  0  0  0  0
    3.4650   -3.9719    0.0000 C   0  0  0  0  0  0  0  0  0  0  0  0
  1  6  1  0  0  0  0
  2  7  1  0  0  0  0
  3  7  1  0  0  0  0
  4  8  1  0  0  0  0
  5  6  1  0  0  0  0
  6 10  1  0  0  0  0
  7  9  1  0  0  0  0
  8 13  1  0  0  0  0
  9 12  1  0  0  0  0
 10 16  1  0  0  0  0
 11 12  2  0  0  0  0
 11 13  1  0  0  0  0
 12 14  1  0  0  0  0
 13 15  2  0  0  0  0
 14 16  2  0  0  0  0
 15 16  1  0  0  0  0
M  END
> <ID>
3596

> <Formula>
C10H19N5S

> <FW>
241.3564

> <DSSTox_CID>
4272

> <DSSTox_RID>
77350

> <DSSTox_GSID>
24272

> <DSSTox_FileID_Sort>
2033

> <TS_ChemName>
Prometryn

> <TS_ChemName_Synonyms>


> <TS_CASRN>
7287-19-6

> <CASRN_ChemName_Relationship>
primary

> <TS_Description>
single chemical compound

> <ChemNote>


> <STRUCTURE_Shown>
tested chemical

> <STRUCTURE_Formula>
C10H19N5S

> <STRUCTURE_MW>
241.3564

> <STRUCTURE_ChemType>
defined organic

> <STRUCTURE_DefinedOrganicForm>
parent

> <STRUCTURE_IUPAC>
6-(methylsulfanyl)-N,N'-di(propan-2-yl)-1,3,5-triazine-2,4-diamine

> <STRUCTURE_SMILES>
CSc1nc(NC(C)C)nc(NC(C)C)n1

> <STRUCTURE_SMILES_Desalt>
CSc1nc(NC(C)C)nc(NC(C)C)n1

> <Substance_modify_yyyymmdd>
20080429

$$$$
