72956-09-3_1
ChemmineR-0915142007XD

 40 42  0  0  0  0  0  0  0  0  1 V2000
    6.5039   -5.2255    0.0000 O   0  0  0  0  0  0  0  0  0  0  0  0
    6.5039   -6.5519    0.0000 C   0  0  0  0  0  0  0  0  0  0  0  0
    7.6545   -7.2230    0.0000 C   0  0  0  0  0  0  0  0  0  0  0  0
    7.6545   -8.5494    0.0000 O   0  0  0  0  0  0  0  0  0  0  0  0
    8.8051   -6.5519    0.0000 C   0  0  0  0  0  0  0  0  0  0  0  0
    9.9556   -7.2230    0.0000 O   0  0  0  0  0  0  0  0  0  0  0  0
    8.8051   -5.2255    0.0000 O   0  0  0  0  0  0  0  0  0  0  0  0
    5.3533   -7.2230    0.0000 C   0  0  0  0  0  0  0  0  0  0  0  0
    4.2028   -6.5519    0.0000 O   0  0  0  0  0  0  0  0  0  0  0  0
    5.3533   -8.5494    0.0000 O   0  0  0  0  0  0  0  0  0  0  0  0
    1.1506   -4.3945    0.0000 C   0  0  0  0  0  0  0  0  0  0  0  0
    0.0000   -3.7394    0.0000 C   0  0  0  0  0  0  0  0  0  0  0  0
    0.0000   -2.3970    0.0000 C   0  0  0  0  0  0  0  0  0  0  0  0
    1.1506   -1.7418    0.0000 C   0  0  0  0  0  0  0  0  0  0  0  0
    2.3011   -2.3970    0.0000 C   0  0  0  0  0  0  0  0  0  0  0  0
    2.3011   -3.7394    0.0000 C   0  0  0  0  0  0  0  0  0  0  0  0
    3.4517   -4.3945    0.0000 O   0  0  0  0  0  0  0  0  0  0  0  0
    4.6183   -3.7394    0.0000 C   0  0  0  0  0  0  0  0  0  0  0  0
    5.7688   -4.3945    0.0000 C   0  0  0  0  0  0  0  0  0  0  0  0
    6.9194   -3.7394    0.0000 N   0  0  0  0  0  0  0  0  0  0  0  0
    8.0700   -4.3945    0.0000 C   0  0  0  0  0  0  0  0  0  0  0  0
    9.2205   -3.7394    0.0000 C   0  0  0  0  0  0  0  0  0  0  0  0
    9.2205   -2.3970    0.0000 O   0  0  0  0  0  0  0  0  0  0  0  0
   10.3711   -4.3945    0.0000 C   0  0  0  0  0  0  0  0  0  0  0  0
   11.5377   -3.7394    0.0000 O   0  0  0  0  0  0  0  0  0  0  0  0
   12.6723   -4.3945    0.0000 C   0  0  0  0  0  0  0  0  0  0  0  0
   12.6723   -5.7209    0.0000 C   0  0  0  0  0  0  0  0  0  0  0  0
   13.8388   -6.3761    0.0000 C   0  0  0  0  0  0  0  0  0  0  0  0
   14.9894   -5.7209    0.0000 C   0  0  0  0  0  0  0  0  0  0  0  0
   14.9894   -4.3945    0.0000 C   0  0  0  0  0  0  0  0  0  0  0  0
   13.8388   -3.7394    0.0000 C   0  0  0  0  0  0  0  0  0  0  0  0
   14.1105   -2.4290    0.0000 C   0  0  0  0  0  0  0  0  0  0  0  0
   13.3115   -1.3583    0.0000 C   0  0  0  0  0  0  0  0  0  0  0  0
   13.8708   -0.1438    0.0000 C   0  0  0  0  0  0  0  0  0  0  0  0
   15.1971    0.0000    0.0000 C   0  0  0  0  0  0  0  0  0  0  0  0
   15.9801   -1.0707    0.0000 C   0  0  0  0  0  0  0  0  0  0  0  0
   15.4368   -2.2852    0.0000 C   0  0  0  0  0  0  0  0  0  0  0  0
   15.9801   -3.5156    0.0000 N   0  0  0  0  0  0  0  0  0  0  0  0
    3.4517   -1.7259    0.0000 O   0  0  0  0  0  0  0  0  0  0  0  0
    3.4517   -0.3995    0.0000 C   0  0  0  0  0  0  0  0  0  0  0  0
  1  2  1  0  0  0  0
  2  3  1  0  0  0  0
  2  8  1  0  0  0  0
  3  4  1  0  0  0  0
  3  5  1  0  0  0  0
  5  6  1  0  0  0  0
  5  7  2  0  0  0  0
  8  9  1  0  0  0  0
  8 10  2  0  0  0  0
 11 12  2  0  0  0  0
 11 16  1  0  0  0  0
 12 13  1  0  0  0  0
 13 14  2  0  0  0  0
 14 15  1  0  0  0  0
 15 16  2  0  0  0  0
 15 39  1  0  0  0  0
 16 17  1  0  0  0  0
 17 18  1  0  0  0  0
 18 19  1  0  0  0  0
 19 20  1  0  0  0  0
 20 21  1  0  0  0  0
 21 22  1  0  0  0  0
 22 23  1  0  0  0  0
 22 24  1  0  0  0  0
 24 25  1  0  0  0  0
 25 26  1  0  0  0  0
 26 27  2  0  0  0  0
 26 31  1  0  0  0  0
 27 28  1  0  0  0  0
 28 29  2  0  0  0  0
 29 30  1  0  0  0  0
 30 31  2  0  0  0  0
 30 38  1  0  0  0  0
 31 32  1  0  0  0  0
 32 33  2  0  0  0  0
 32 37  1  0  0  0  0
 33 34  1  0  0  0  0
 34 35  2  0  0  0  0
 35 36  1  0  0  0  0
 36 37  2  0  0  0  0
 37 38  1  0  0  0  0
 39 40  1  0  0  0  0
M  END
> <ID>
11291

> <Formula>
C28H32N2O10

> <FW>
556.5611 (150.0868+406.4742)

> <DSSTox_CID>
25916

> <DSSTox_RID>
81223

> <DSSTox_GSID>
45916

> <DSSTox_FileID_Sort>
5904

> <TS_ChemName>
Carvedilol tartrate

> <TS_ChemName_Synonyms>


> <TS_CASRN>
72956-09-3_1

> <CASRN_ChemName_Relationship>
CAS for parent

> <TS_Description>
single chemical compound

> <ChemNote>
parent [72956-09-3]

> <STRUCTURE_Shown>
tested chemical

> <STRUCTURE_Formula>
C28H32N2O10

> <STRUCTURE_MW>
556.5611

> <STRUCTURE_ChemType>
defined organic

> <STRUCTURE_DefinedOrganicForm>
complex

> <STRUCTURE_IUPAC>
2,3-dihydroxybutanedioic acid - 1-(9H-carbazol-4-yloxy)-3-{[2-(2-methoxyphenoxy)ethyl]amino}propan-2-ol (1:1)

> <STRUCTURE_SMILES>
O=C(O)C(O)C(O)C(=O)O.COc4ccccc4OCCNCC(O)COc2cccc3nc1ccccc1c23

> <STRUCTURE_SMILES_Desalt>
COc4ccccc4OCCNCC(O)COc2cccc3nc1ccccc1c23

> <Substance_modify_yyyymmdd>
20130911

$$$$
