73-24-5
ChemmineR-0915142007XD

 10 11  0  0  0  0  0  0  0  0  1 V2000
    2.3080   -2.0060    0.0000 C   0  0  0  0  0  0  0  0  0  0  0  0
    2.3080   -3.3434    0.0000 C   0  0  0  0  0  0  0  0  0  0  0  0
    3.5720   -1.6048    0.0000 N   0  0  0  0  0  0  0  0  0  0  0  0
    3.5720   -3.7489    0.0000 N   0  0  0  0  0  0  0  0  0  0  0  0
    1.1648   -1.3373    0.0000 C   0  0  0  0  0  0  0  0  0  0  0  0
    1.1648   -4.0163    0.0000 N   0  0  0  0  0  0  0  0  0  0  0  0
    4.3140   -2.6963    0.0000 C   0  0  0  0  0  0  0  0  0  0  0  0
    0.0000   -1.9888    0.0000 N   0  0  0  0  0  0  0  0  0  0  0  0
    0.0000   -3.3606    0.0000 C   0  0  0  0  0  0  0  0  0  0  0  0
    1.1648    0.0000    0.0000 N   0  0  0  0  0  0  0  0  0  0  0  0
  1  2  2  0  0  0  0
  1  3  1  0  0  0  0
  1  5  1  0  0  0  0
  2  4  1  0  0  0  0
  2  6  1  0  0  0  0
  3  7  2  0  0  0  0
  4  7  1  0  0  0  0
  5  8  2  0  0  0  0
  5 10  1  0  0  0  0
  6  9  2  0  0  0  0
  8  9  1  0  0  0  0
M  END
> <ID>
2319

> <Formula>
C5H5N5

> <FW>
135.1267

> <DSSTox_CID>
2557

> <DSSTox_RID>
76627

> <DSSTox_GSID>
22557

> <DSSTox_FileID_Sort>
1311

> <TS_ChemName>
Adenine

> <TS_ChemName_Synonyms>


> <TS_CASRN>
73-24-5

> <CASRN_ChemName_Relationship>
primary

> <TS_Description>
single chemical compound

> <ChemNote>


> <STRUCTURE_Shown>
tested chemical

> <STRUCTURE_Formula>
C5H5N5

> <STRUCTURE_MW>
135.1267

> <STRUCTURE_ChemType>
defined organic

> <STRUCTURE_DefinedOrganicForm>
parent

> <STRUCTURE_IUPAC>
9H-purin-6-amine

> <STRUCTURE_SMILES>
Nc1ncnc2ncnc12

> <STRUCTURE_SMILES_Desalt>
Nc1ncnc2ncnc12

> <Substance_modify_yyyymmdd>
20080429

$$$$
