73-48-3
ChemmineR-0915142007XD

 27 29  0  0  0  0  0  0  0  0  1 V2000
    2.2239   -3.0749    0.0000 C   0  0  0  0  0  0  0  0  0  0  0  0
    0.9304   -4.1869    0.0000 S   0  0  0  0  0  0  0  0  0  0  0  0
    0.0000   -5.1173    0.0000 N   0  0  0  0  0  0  0  0  0  0  0  0
    1.8495   -5.1059    0.0000 O   0  0  0  0  0  0  0  0  0  0  0  0
    0.0681   -3.1657    0.0000 O   0  0  0  0  0  0  0  0  0  0  0  0
    2.2239   -1.7587    0.0000 C   0  0  0  0  0  0  0  0  0  0  0  0
    1.0893   -1.1006    0.0000 C   0  0  0  0  0  0  0  0  0  0  0  0
    0.0340   -0.3177    0.0000 F   0  0  0  0  0  0  0  0  0  0  0  0
    1.8154    0.0000    0.0000 F   0  0  0  0  0  0  0  0  0  0  0  0
    0.2383   -2.1105    0.0000 F   0  0  0  0  0  0  0  0  0  0  0  0
    3.3699   -1.1006    0.0000 C   0  0  0  0  0  0  0  0  0  0  0  0
    4.5046   -1.7587    0.0000 C   0  0  0  0  0  0  0  0  0  0  0  0
    4.5046   -3.0749    0.0000 C   0  0  0  0  0  0  0  0  0  0  0  0
    3.3699   -3.7330    0.0000 C   0  0  0  0  0  0  0  0  0  0  0  0
    5.6506   -3.7330    0.0000 S   0  0  0  0  0  0  0  0  0  0  0  0
    6.4902   -4.7428    0.0000 O   0  0  0  0  0  0  0  0  0  0  0  0
    4.7996   -4.7428    0.0000 O   0  0  0  0  0  0  0  0  0  0  0  0
    6.7852   -3.0749    0.0000 N   0  0  0  0  0  0  0  0  0  0  0  0
    6.7852   -1.7587    0.0000 C   0  0  0  0  0  0  0  0  0  0  0  0
    7.9312   -1.1006    0.0000 C   0  0  0  0  0  0  0  0  0  0  0  0
    9.0659   -1.7587    0.0000 C   0  0  0  0  0  0  0  0  0  0  0  0
   10.2119   -1.1006    0.0000 C   0  0  0  0  0  0  0  0  0  0  0  0
   11.3465   -1.7587    0.0000 C   0  0  0  0  0  0  0  0  0  0  0  0
   11.3465   -3.0749    0.0000 C   0  0  0  0  0  0  0  0  0  0  0  0
   10.2119   -3.7330    0.0000 C   0  0  0  0  0  0  0  0  0  0  0  0
    9.0659   -3.0749    0.0000 C   0  0  0  0  0  0  0  0  0  0  0  0
    5.6506   -1.1006    0.0000 N   0  0  0  0  0  0  0  0  0  0  0  0
  1  2  1  0  0  0  0
  1  6  2  0  0  0  0
  1 14  1  0  0  0  0
  2  3  1  0  0  0  0
  2  4  2  0  0  0  0
  2  5  2  0  0  0  0
  6  7  1  0  0  0  0
  6 11  1  0  0  0  0
  7  8  1  0  0  0  0
  7  9  1  0  0  0  0
  7 10  1  0  0  0  0
 11 12  2  0  0  0  0
 12 13  1  0  0  0  0
 12 27  1  0  0  0  0
 13 14  2  0  0  0  0
 13 15  1  0  0  0  0
 15 16  2  0  0  0  0
 15 17  2  0  0  0  0
 15 18  1  0  0  0  0
 18 19  1  0  0  0  0
 19 20  1  0  0  0  0
 19 27  1  0  0  0  0
 20 21  1  0  0  0  0
 21 22  2  0  0  0  0
 21 26  1  0  0  0  0
 22 23  1  0  0  0  0
 23 24  2  0  0  0  0
 24 25  1  0  0  0  0
 25 26  2  0  0  0  0
M  END
> <ID>
2396

> <Formula>
C15H14F3N3O4S2

> <FW>
421.4146

> <DSSTox_CID>
2647

> <DSSTox_RID>
76673

> <DSSTox_GSID>
22647

> <DSSTox_FileID_Sort>
1357

> <TS_ChemName>
Bendroflumethiazide

> <TS_ChemName_Synonyms>


> <TS_CASRN>
73-48-3

> <CASRN_ChemName_Relationship>
primary

> <TS_Description>
single chemical compound

> <ChemNote>


> <STRUCTURE_Shown>
tested chemical

> <STRUCTURE_Formula>
C15H14F3N3O4S2

> <STRUCTURE_MW>
421.4146

> <STRUCTURE_ChemType>
defined organic

> <STRUCTURE_DefinedOrganicForm>
parent

> <STRUCTURE_IUPAC>
3-benzyl-6-(trifluoromethyl)-3,4-dihydro-2H-1,2,4-benzothiadiazine-7-sulfonamide 1,1-dioxide

> <STRUCTURE_SMILES>
FC(F)(F)c1cc2NC(NS(=O)(=O)c2cc1S(N)(=O)=O)Cc3ccccc3

> <STRUCTURE_SMILES_Desalt>
FC(F)(F)c1cc2NC(NS(=O)(=O)c2cc1S(N)(=O)=O)Cc3ccccc3

> <Substance_modify_yyyymmdd>
20080429

$$$$
