7303-78-8
ChemmineR-0915142007XD

 18 19  0  0  0  0  0  0  0  0  1 V2000
    3.9963   -2.7454    0.0000 N    0  0  0  0  0  0  0  0  0  0  0  0
    2.6712   -2.7454    0.0000 C    0  0  0  0  0  0  0  0  0  0  0  0
    4.7913   -1.6748    0.0000 C    0  0  0  0  0  0  0  0  0  0  0  0
    4.7913   -3.8373    0.0000 C    0  0  0  0  0  0  0  0  0  0  0  0
    1.9928   -3.9009    0.0000 C    0  0  0  0  0  0  0  0  0  0  0  0
    1.9928   -1.6112    0.0000 C    0  0  0  0  0  0  0  0  0  0  0  0
    6.0527   -2.0776    0.0000 N    0  0  0  0  0  0  0  0  0  0  0  0
    4.3779   -0.4028    0.0000 O    0  0  0  0  0  0  0  0  0  0  0  0
    6.0527   -3.4133    0.0000 C    0  0  0  0  0  0  0  0  0  0  0  0
    0.6678   -3.9009    0.0000 C    0  0  0  0  0  0  0  0  0  0  0  0
    0.6678   -1.6112    0.0000 C    0  0  0  0  0  0  0  0  0  0  0  0
    7.1551   -1.3250    0.0000 C    0  0  0  0  0  0  0  0  0  0  0  0
    0.0000   -2.7454    0.0000 C    0  0  0  0  0  0  0  0  0  0  0  0
    0.0000   -5.0457    0.0000 Cl   0  0  0  0  0  0  0  0  0  0  0  0
    8.2893   -1.9928    0.0000 C    0  0  0  0  0  0  0  0  0  0  0  0
    9.4554   -1.3250    0.0000 N    0  0  0  0  0  0  0  0  0  0  0  0
   10.6002   -1.9928    0.0000 C    0  0  0  0  0  0  0  0  0  0  0  0
    9.4554    0.0000    0.0000 C    0  0  0  0  0  0  0  0  0  0  0  0
  1  2  1  0  0  0  0
  1  3  1  0  0  0  0
  1  4  1  0  0  0  0
  2  5  2  0  0  0  0
  2  6  1  0  0  0  0
  3  7  1  0  0  0  0
  3  8  2  0  0  0  0
  4  9  1  0  0  0  0
  5 10  1  0  0  0  0
  6 11  2  0  0  0  0
  7 12  1  0  0  0  0
  7  9  1  0  0  0  0
 10 13  2  0  0  0  0
 10 14  1  0  0  0  0
 11 13  1  0  0  0  0
 12 15  1  0  0  0  0
 15 16  1  0  0  0  0
 16 17  1  0  0  0  0
 16 18  1  0  0  0  0
M  END
> <ID>
16211

> <Formula>
C13H18ClN3O

> <FW>
267.7545

> <DSSTox_CID>
31602

> <DSSTox_RID>
97486

> <DSSTox_GSID>
57813

> <DSSTox_FileID_Sort>
8553

> <TS_ChemName>
Imidoline

> <TS_ChemName_Synonyms>


> <TS_CASRN>
7303-78-8

> <CASRN_ChemName_Relationship>
primary

> <TS_Description>
single chemical compound

> <ChemNote>


> <STRUCTURE_Shown>
tested chemical

> <STRUCTURE_Formula>
C13H18ClN3O

> <STRUCTURE_MW>
267.7545

> <STRUCTURE_ChemType>
defined organic

> <STRUCTURE_DefinedOrganicForm>
parent

> <STRUCTURE_IUPAC>
1-(3-chlorophenyl)-3-[2-(dimethylamino)ethyl]imidazolidin-2-one

> <STRUCTURE_SMILES>
CN(C)CCN1CCN(C1=O)c2cccc(Cl)c2

> <STRUCTURE_SMILES_Desalt>
CN(C)CCN1CCN(C1=O)c2cccc(Cl)c2

> <Substance_modify_yyyymmdd>
20131018

$$$$
