73231-34-2
ChemmineR-0915142007XD

 21 21  0  0  1  0  0  0  0  0  1 V2000
    4.5569   -2.0431    0.0000 C    0  0  0  0  0  0  0  0  0  0  0  0
    5.6932   -1.3315    0.0000 C    0  0  0  0  0  0  0  0  0  0  0  0
    3.3746   -1.3315    0.0000 C    0  0  0  0  0  0  0  0  0  0  0  0
    4.5569   -3.3287    0.0000 C    0  0  0  0  0  0  0  0  0  0  0  0
    6.8411   -2.0431    0.0000 C    0  0  0  0  0  0  0  0  0  0  0  0
    5.6932    0.0000    0.0000 O    0  0  0  0  0  0  0  0  0  0  0  0
    2.2268   -2.0431    0.0000 C    0  0  0  0  0  0  0  0  0  0  0  0
    3.3746   -3.9945    0.0000 C    0  0  0  0  0  0  0  0  0  0  0  0
    8.0233   -1.3315    0.0000 N    0  0  0  0  0  0  0  0  0  0  0  0
    6.8411   -3.3287    0.0000 C    0  0  0  0  0  0  0  0  0  0  0  0
    2.2268   -3.3287    0.0000 C    0  0  0  0  0  0  0  0  0  0  0  0
    9.2171   -2.0431    0.0000 C    0  0  0  0  0  0  0  0  0  0  0  0
    8.0233   -3.9945    0.0000 F    0  0  0  0  0  0  0  0  0  0  0  0
    1.0790   -3.9945    0.0000 S    0  0  0  0  0  0  0  0  0  0  0  0
   10.3420   -1.3315    0.0000 C    0  0  0  0  0  0  0  0  0  0  0  0
    9.2171   -3.3287    0.0000 O    0  0  0  0  0  0  0  0  0  0  0  0
    0.0000   -3.3287    0.0000 C    0  0  0  0  0  0  0  0  0  0  0  0
    0.4706   -5.1423    0.0000 O    0  0  0  0  0  0  0  0  0  0  0  0
    1.7447   -5.1423    0.0000 O    0  0  0  0  0  0  0  0  0  0  0  0
   11.4783   -2.0431    0.0000 Cl   0  0  0  0  0  0  0  0  0  0  0  0
   10.3420    0.0000    0.0000 Cl   0  0  0  0  0  0  0  0  0  0  0  0
  1  2  1  0  0  0  0
  1  3  2  0  0  0  0
  1  4  1  0  0  0  0
  2  5  1  0  0  0  0
  2  6  1  1  0  0  0
  3  7  1  0  0  0  0
  4  8  2  0  0  0  0
  5  9  1  0  0  0  0
  5 10  1  6  0  0  0
  7 11  2  0  0  0  0
  8 11  1  0  0  0  0
  9 12  1  0  0  0  0
 10 13  1  0  0  0  0
 11 14  1  0  0  0  0
 12 15  1  0  0  0  0
 12 16  2  0  0  0  0
 14 17  1  0  0  0  0
 14 18  2  0  0  0  0
 14 19  2  0  0  0  0
 15 20  1  0  0  0  0
 15 21  1  0  0  0  0
M  END
> <ID>
10986

> <Formula>
C12H14Cl2FNO4S

> <FW>
358.2133

> <DSSTox_CID>
25500

> <DSSTox_RID>
80918

> <DSSTox_GSID>
45500

> <DSSTox_FileID_Sort>
5599

> <TS_ChemName>
Florfenicol

> <TS_ChemName_Synonyms>


> <TS_CASRN>
73231-34-2

> <CASRN_ChemName_Relationship>
primary

> <TS_Description>
single chemical compound

> <ChemNote>
stereochem

> <STRUCTURE_Shown>
tested chemical

> <STRUCTURE_Formula>
C12H14Cl2FNO4S

> <STRUCTURE_MW>
358.2133

> <STRUCTURE_ChemType>
defined organic

> <STRUCTURE_DefinedOrganicForm>
parent

> <STRUCTURE_IUPAC>
2,2-dichloro-N-{(1R,2S)-3-fluoro-1-hydroxy-1-[4-(methylsulfonyl)phenyl]propan-2-yl}acetamide

> <STRUCTURE_SMILES>
O=S(C)(=O)c1ccc(cc1)[C@@H](O)[C@@H](CF)NC(=O)C(Cl)Cl

> <STRUCTURE_SMILES_Desalt>
O=S(C)(=O)c1ccc(cc1)[C@@H](O)[C@@H](CF)NC(=O)C(Cl)Cl

> <Substance_modify_yyyymmdd>
20100107

$$$$
