7324-00-7
ChemmineR-0915142007XD

 13 12  0  0  0  0  0  0  0  0  2 V2000
    3.3386   -9.2226    0.0000 C   0  0  0  0  0  0  0  0  0  0  0  0
    2.6746   -8.0698    0.0000 C   0  0  0  0  0  0  0  0  0  0  0  0
    3.3386   -6.9169    0.0000 C   0  0  0  0  0  0  0  0  0  0  0  0
    2.6746   -5.7641    0.0000 C   0  0  0  0  0  0  0  0  0  0  0  0
    4.6666    0.0000    0.0000 C   0  0  0  0  0  0  0  0  0  0  0  0
    3.3386   -4.6113    0.0000 C   0  0  0  0  0  0  0  0  0  0  0  0
    3.3386    0.0000    0.0000 C   0  0  0  0  0  0  0  0  0  0  0  0
    5.3307   -1.1528    0.0000 C   0  0  0  0  0  0  0  0  0  0  0  0
    2.6746   -3.4585    0.0000 C   0  0  0  0  0  0  0  0  0  0  0  0
    2.6746   -1.1528    0.0000 C   0  0  0  0  0  0  0  0  0  0  0  0
    4.6666   -2.3056    0.0000 C   0  0  0  0  0  0  0  0  0  0  0  0
    3.3386   -2.3056    0.0000 N   0  3  0  0  0  0  0  0  0  0  0  0
    0.0000   -1.1528    0.0000 I   0  5  0  0  0  0  0  0  0  0  0  0
  1  2  1  0  0  0  0
  2  3  1  0  0  0  0
  3  4  1  0  0  0  0
  4  6  1  0  0  0  0
  5  7  2  0  0  0  0
  5  8  1  0  0  0  0
  6  9  1  0  0  0  0
  7 10  1  0  0  0  0
  8 11  2  0  0  0  0
  9 12  1  0  0  0  0
 10 12  2  0  0  0  0
 11 12  1  0  0  0  0
M  END
> <ID>
14217

> <Formula>
C11H18IN

> <FW>
291.1718 (164.2668+126.9050)

> <DSSTox_CID>
29312

> <DSSTox_RID>
83428

> <DSSTox_GSID>
49353

> <DSSTox_FileID_Sort>
8103

> <TS_ChemName>
1-Hexylpyridinium iodide

> <TS_ChemName_Synonyms>


> <TS_CASRN>
7324-00-7

> <CASRN_ChemName_Relationship>
primary

> <TS_Description>
single chemical compound

> <ChemNote>


> <STRUCTURE_Shown>
tested chemical

> <STRUCTURE_Formula>
C11H18IN

> <STRUCTURE_MW>
291.1718

> <STRUCTURE_ChemType>
defined organic

> <STRUCTURE_DefinedOrganicForm>
salt

> <STRUCTURE_IUPAC>
1-hexylpyridinium iodide

> <STRUCTURE_SMILES>
[I-].CCCCCC[n+]1ccccc1

> <STRUCTURE_SMILES_Desalt>
CCCCCC[n+]1ccccc1

> <Substance_modify_yyyymmdd>
20111204

$$$$
