7328-97-4
ChemmineR-0915142007XD

 46 53  0  0  0  0  0  0  0  0  1 V2000
    6.4723    0.0000    0.0000 O   0  0  0  0  0  0  0  0  0  0  0  0
    6.4723   -1.3227    0.0000 C   0  0  0  0  0  0  0  0  0  0  0  0
    5.3259   -0.6525    0.0000 C   0  0  0  0  0  0  0  0  0  0  0  0
   17.6003  -10.0523    0.0000 O   0  0  0  0  0  0  0  0  0  0  0  0
   16.4540   -9.3998    0.0000 C   0  0  0  0  0  0  0  0  0  0  0  0
   17.6003   -8.7296    0.0000 C   0  0  0  0  0  0  0  0  0  0  0  0
   11.1280  -17.6356    0.0000 O   0  0  0  0  0  0  0  0  0  0  0  0
   11.1280  -16.3129    0.0000 C   0  0  0  0  0  0  0  0  0  0  0  0
   12.2744  -16.9830    0.0000 C   0  0  0  0  0  0  0  0  0  0  0  0
    0.0000   -7.5833    0.0000 O   0  0  0  0  0  0  0  0  0  0  0  0
    1.1463   -8.2358    0.0000 C   0  0  0  0  0  0  0  0  0  0  0  0
    0.0000   -8.9060    0.0000 C   0  0  0  0  0  0  0  0  0  0  0  0
    8.4651   -9.3998    0.0000 C   0  0  0  0  0  0  0  0  0  0  0  0
    9.1352   -8.2358    0.0000 C   0  0  0  0  0  0  0  0  0  0  0  0
    4.4794   -9.3998    0.0000 C   0  0  0  0  0  0  0  0  0  0  0  0
    5.1496   -8.2358    0.0000 C   0  0  0  0  0  0  0  0  0  0  0  0
    6.4723   -8.2358    0.0000 C   0  0  0  0  0  0  0  0  0  0  0  0
    7.1424   -9.3998    0.0000 C   0  0  0  0  0  0  0  0  0  0  0  0
    6.4723  -10.5461    0.0000 C   0  0  0  0  0  0  0  0  0  0  0  0
    5.1496  -10.5461    0.0000 C   0  0  0  0  0  0  0  0  0  0  0  0
   10.4755  -12.8563    0.0000 C   0  0  0  0  0  0  0  0  0  0  0  0
    9.1352  -12.8563    0.0000 C   0  0  0  0  0  0  0  0  0  0  0  0
    8.4651  -11.7100    0.0000 C   0  0  0  0  0  0  0  0  0  0  0  0
    9.1352  -10.5461    0.0000 C   0  0  0  0  0  0  0  0  0  0  0  0
   10.4755  -10.5461    0.0000 C   0  0  0  0  0  0  0  0  0  0  0  0
   11.1280  -11.7100    0.0000 C   0  0  0  0  0  0  0  0  0  0  0  0
   13.1385   -8.2358    0.0000 C   0  0  0  0  0  0  0  0  0  0  0  0
   12.4507   -9.3998    0.0000 C   0  0  0  0  0  0  0  0  0  0  0  0
   11.1280   -9.3998    0.0000 C   0  0  0  0  0  0  0  0  0  0  0  0
   10.4755   -8.2358    0.0000 C   0  0  0  0  0  0  0  0  0  0  0  0
   11.1280   -7.0895    0.0000 C   0  0  0  0  0  0  0  0  0  0  0  0
   12.4507   -7.0895    0.0000 C   0  0  0  0  0  0  0  0  0  0  0  0
    7.1424   -4.7792    0.0000 C   0  0  0  0  0  0  0  0  0  0  0  0
    8.4651   -4.7792    0.0000 C   0  0  0  0  0  0  0  0  0  0  0  0
    9.1352   -5.9255    0.0000 C   0  0  0  0  0  0  0  0  0  0  0  0
    8.4651   -7.0895    0.0000 C   0  0  0  0  0  0  0  0  0  0  0  0
    7.1424   -7.0895    0.0000 C   0  0  0  0  0  0  0  0  0  0  0  0
    6.4723   -5.9255    0.0000 C   0  0  0  0  0  0  0  0  0  0  0  0
    3.1391   -9.3998    0.0000 O   0  0  0  0  0  0  0  0  0  0  0  0
   11.1280  -14.0026    0.0000 O   0  0  0  0  0  0  0  0  0  0  0  0
   14.4612   -8.2358    0.0000 O   0  0  0  0  0  0  0  0  0  0  0  0
    6.4723   -3.6329    0.0000 O   0  0  0  0  0  0  0  0  0  0  0  0
    2.4866   -8.2358    0.0000 C   0  0  0  0  0  0  0  0  0  0  0  0
   10.4755  -15.1490    0.0000 C   0  0  0  0  0  0  0  0  0  0  0  0
   15.1137   -9.3998    0.0000 C   0  0  0  0  0  0  0  0  0  0  0  0
    7.1424   -2.4866    0.0000 C   0  0  0  0  0  0  0  0  0  0  0  0
  1  2  1  0  0  0  0
  1  3  1  0  0  0  0
  2  3  1  0  0  0  0
  2 46  1  0  0  0  0
  4  5  1  0  0  0  0
  4  6  1  0  0  0  0
  5  6  1  0  0  0  0
  5 45  1  0  0  0  0
  7  8  1  0  0  0  0
  7  9  1  0  0  0  0
  8  9  1  0  0  0  0
  8 44  1  0  0  0  0
 10 11  1  0  0  0  0
 10 12  1  0  0  0  0
 11 12  1  0  0  0  0
 11 43  1  0  0  0  0
 13 14  1  0  0  0  0
 13 18  1  0  0  0  0
 13 24  1  0  0  0  0
 14 30  1  0  0  0  0
 14 36  1  0  0  0  0
 15 20  2  0  0  0  0
 15 16  1  0  0  0  0
 15 39  1  0  0  0  0
 16 17  2  0  0  0  0
 17 18  1  0  0  0  0
 18 19  2  0  0  0  0
 19 20  1  0  0  0  0
 21 26  2  0  0  0  0
 21 22  1  0  0  0  0
 21 40  1  0  0  0  0
 22 23  2  0  0  0  0
 23 24  1  0  0  0  0
 24 25  2  0  0  0  0
 25 26  1  0  0  0  0
 27 32  2  0  0  0  0
 27 28  1  0  0  0  0
 27 41  1  0  0  0  0
 28 29  2  0  0  0  0
 29 30  1  0  0  0  0
 30 31  2  0  0  0  0
 31 32  1  0  0  0  0
 33 38  2  0  0  0  0
 33 34  1  0  0  0  0
 33 42  1  0  0  0  0
 34 35  2  0  0  0  0
 35 36  1  0  0  0  0
 36 37  2  0  0  0  0
 37 38  1  0  0  0  0
 39 43  1  0  0  0  0
 40 44  1  0  0  0  0
 41 45  1  0  0  0  0
 42 46  1  0  0  0  0
M  END
> <ID>
5923

> <Formula>
C38H38O8

> <FW>
622.7035

> <DSSTox_CID>
9286

> <DSSTox_RID>
78749

> <DSSTox_GSID>
29286

> <DSSTox_FileID_Sort>
3431

> <TS_ChemName>
2,2',2'',2'''-[Ethane-1,1,2,2-tetrayltetrakis(4,1-phenyleneoxymethylene)]tetraoxirane

> <TS_ChemName_Synonyms>
2,2',2'',2'''-[Ethane-1,1,2,2-tetrayltetrakis(benzene-4,1-diyloxymethanediyl)]tetraoxirane (Oxirane, 2,2',2'',2'''-[1,2-ethanediylidenetetrakis(4,1-phenyleneoxymethylene)]tetrakis-) (1,1,2,2-Tetrakis[p-glycidyloxyphenyl]ethane)

> <TS_CASRN>
7328-97-4

> <CASRN_ChemName_Relationship>
primary

> <TS_Description>
single chemical compound

> <ChemNote>


> <STRUCTURE_Shown>
tested chemical

> <STRUCTURE_Formula>
C38H38O8

> <STRUCTURE_MW>
622.7035

> <STRUCTURE_ChemType>
defined organic

> <STRUCTURE_DefinedOrganicForm>
parent

> <STRUCTURE_IUPAC>
2,2',2'',2'''-[ethane-1,1,2,2-tetrayltetrakis(benzene-4,1-diyloxymethanediyl)]tetraoxirane

> <STRUCTURE_SMILES>
c2cc(OCC1CO1)ccc2C(c4ccc(OCC3CO3)cc4)C(c6ccc(OCC5CO5)cc6)c8ccc(OCC7CO7)cc8

> <STRUCTURE_SMILES_Desalt>
c2cc(OCC1CO1)ccc2C(c4ccc(OCC3CO3)cc4)C(c6ccc(OCC5CO5)cc6)c8ccc(OCC7CO7)cc8

> <Substance_modify_yyyymmdd>
20080429

$$$$
