7328-17-8
ChemmineR-0915142007XD

 13 12  0  0  0  0  0  0  0  0  1 V2000
   10.3405   -1.3273    0.0000 C   0  0  0  0  0  0  0  0  0  0  0  0
   11.4909   -1.9973    0.0000 C   0  0  0  0  0  0  0  0  0  0  0  0
   12.6412   -1.3273    0.0000 C   0  0  0  0  0  0  0  0  0  0  0  0
   10.3405    0.0000    0.0000 O   0  0  0  0  0  0  0  0  0  0  0  0
    9.1902   -1.9973    0.0000 O   0  0  0  0  0  0  0  0  0  0  0  0
    8.0398   -1.3273    0.0000 C   0  0  0  0  0  0  0  0  0  0  0  0
    6.8895   -1.9973    0.0000 C   0  0  0  0  0  0  0  0  0  0  0  0
    5.7391   -1.3273    0.0000 O   0  0  0  0  0  0  0  0  0  0  0  0
    4.6014   -1.9973    0.0000 C   0  0  0  0  0  0  0  0  0  0  0  0
    3.4511   -1.3273    0.0000 C   0  0  0  0  0  0  0  0  0  0  0  0
    2.3007   -1.9973    0.0000 O   0  0  0  0  0  0  0  0  0  0  0  0
    1.1504   -1.3273    0.0000 C   0  0  0  0  0  0  0  0  0  0  0  0
    0.0000   -1.9973    0.0000 C   0  0  0  0  0  0  0  0  0  0  0  0
  1  2  1  0  0  0  0
  1  5  1  0  0  0  0
  1  4  2  0  0  0  0
  2  3  2  0  0  0  0
  5  6  1  0  0  0  0
  6  7  1  0  0  0  0
  7  8  1  0  0  0  0
  8  9  1  0  0  0  0
  9 10  1  0  0  0  0
 10 11  1  0  0  0  0
 11 12  1  0  0  0  0
 12 13  1  0  0  0  0
M  END
> <ID>
10630

> <Formula>
C9H16O4

> <FW>
188.2209

> <DSSTox_CID>
24983

> <DSSTox_RID>
80632

> <DSSTox_GSID>
44983

> <DSSTox_FileID_Sort>
5314

> <TS_ChemName>
2-(2-Ethoxyethoxy)ethyl prop-2-enoate

> <TS_ChemName_Synonyms>
2-(2-Ethoxyethoxy)ethyl prop-2-enoate (2-Propenoic acid, 2-(2-ethoxyethoxy)ethyl ester)

> <TS_CASRN>
7328-17-8

> <CASRN_ChemName_Relationship>
primary

> <TS_Description>
single chemical compound

> <ChemNote>


> <STRUCTURE_Shown>
tested chemical

> <STRUCTURE_Formula>
C9H16O4

> <STRUCTURE_MW>
188.2209

> <STRUCTURE_ChemType>
defined organic

> <STRUCTURE_DefinedOrganicForm>
parent

> <STRUCTURE_IUPAC>
2-(2-ethoxyethoxy)ethyl prop-2-enoate

> <STRUCTURE_SMILES>
CCOCCOCCOC(=O)C=C

> <STRUCTURE_SMILES_Desalt>
CCOCCOCCOC(=O)C=C

> <Substance_modify_yyyymmdd>
20091116

$$$$
