73310-10-8
ChemmineR-0915142007XD

 24 23  0  0  0  0  0  0  0  0  1 V2000
   13.8179   -0.6736    0.0000 C   0  0  0  0  0  0  0  0  0  0  0  0
   12.6606    0.0000    0.0000 C   0  0  0  0  0  0  0  0  0  0  0  0
   11.5034   -0.6736    0.0000 C   0  0  0  0  0  0  0  0  0  0  0  0
   11.5034   -2.0036    0.0000 C   0  0  0  0  0  0  0  0  0  0  0  0
   10.3634   -2.6599    0.0000 C   0  0  0  0  0  0  0  0  0  0  0  0
    9.2061   -2.0036    0.0000 C   0  0  0  0  0  0  0  0  0  0  0  0
    8.0662   -2.6599    0.0000 C   0  0  0  0  0  0  0  0  0  0  0  0
    8.0662   -3.9899    0.0000 C   0  0  0  0  0  0  0  0  0  0  0  0
    6.9089   -4.6635    0.0000 C   0  0  0  0  0  0  0  0  0  0  0  0
    5.7690   -3.9899    0.0000 C   0  0  0  0  0  0  0  0  0  0  0  0
    4.6117   -4.6635    0.0000 C   0  0  0  0  0  0  0  0  0  0  0  0
    4.6117   -5.9762    0.0000 C   0  0  0  0  0  0  0  0  0  0  0  0
    3.4545   -6.6326    0.0000 C   0  0  0  0  0  0  0  0  0  0  0  0
    3.4545   -7.9625    0.0000 C   0  0  0  0  0  0  0  0  0  0  0  0
    2.2972   -8.6362    0.0000 C   0  0  0  0  0  0  0  0  0  0  0  0
    2.2972   -9.9661    0.0000 C   0  0  0  0  0  0  0  0  0  0  0  0
    1.1572  -10.6225    0.0000 C   0  0  0  0  0  0  0  0  0  0  0  0
    1.1572  -11.9524    0.0000 C   0  0  0  0  0  0  0  0  0  0  0  0
    0.0000  -12.6261    0.0000 C   0  0  0  0  0  0  0  0  0  0  0  0
    0.0000  -13.9560    0.0000 C   0  0  0  0  0  0  0  0  0  0  0  0
   13.8179   -2.0036    0.0000 O   0  0  0  0  0  0  0  0  0  0  0  0
   14.9751    0.0000    0.0000 O   0  0  0  0  0  0  0  0  0  0  0  0
   16.1151   -0.6736    0.0000 C   0  0  0  0  0  0  0  0  0  0  0  0
   17.2723    0.0000    0.0000 C   0  0  0  0  0  0  0  0  0  0  0  0
  1  2  1  0  0  0  0
  1 22  1  0  0  0  0
  1 21  2  0  0  0  0
  2  3  2  0  0  0  0
  3  4  1  0  0  0  0
  4  5  2  0  0  0  0
  5  6  1  0  0  0  0
  6  7  2  0  0  0  0
  7  8  1  0  0  0  0
  8  9  2  0  0  0  0
  9 10  1  0  0  0  0
 10 11  2  0  0  0  0
 11 12  1  0  0  0  0
 12 13  1  0  0  0  0
 13 14  1  0  0  0  0
 14 15  1  0  0  0  0
 15 16  1  0  0  0  0
 16 17  1  0  0  0  0
 17 18  1  0  0  0  0
 18 19  1  0  0  0  0
 19 20  1  0  0  0  0
 22 23  1  0  0  0  0
 23 24  1  0  0  0  0
M  END
> <ID>
16212

> <Formula>
C22H34O2

> <FW>
330.5042

> <DSSTox_CID>
31603

> <DSSTox_RID>
97487

> <DSSTox_GSID>
57814

> <DSSTox_FileID_Sort>
8554

> <TS_ChemName>
Eicosapentaenoic acid ethyl ester

> <TS_ChemName_Synonyms>


> <TS_CASRN>
73310-10-8

> <CASRN_ChemName_Relationship>
primary

> <TS_Description>
single chemical compound

> <ChemNote>


> <STRUCTURE_Shown>
tested chemical

> <STRUCTURE_Formula>
C22H34O2

> <STRUCTURE_MW>
330.5042

> <STRUCTURE_ChemType>
defined organic

> <STRUCTURE_DefinedOrganicForm>
parent

> <STRUCTURE_IUPAC>
ethyl (2Z,4Z,6Z,8Z,10Z)-icosa-2,4,6,8,10-pentaenoate

> <STRUCTURE_SMILES>
O=C(/C=C\C=C/C=C\C=C/C=C\CCCCCCCCC)OCC

> <STRUCTURE_SMILES_Desalt>
O=C(/C=C\C=C/C=C\C=C/C=C\CCCCCCCCC)OCC

> <Substance_modify_yyyymmdd>
20131121

$$$$
