73367-80-3
ChemmineR-0915142007XD

 15 14  0  0  0  0  0  0  0  0  1 V2000
    5.9858   -4.6024    0.0000 C    0  0  0  0  0  0  0  0  0  0  0  0
    7.3160   -4.6024    0.0000 C    0  0  0  0  0  0  0  0  0  0  0  0
    5.3207   -5.7597    0.0000 C    0  0  0  0  0  0  0  0  0  0  0  0
    7.9811   -3.4585    0.0000 C    0  0  0  0  0  0  0  0  0  0  0  0
    3.9905   -5.7597    0.0000 C    0  0  0  0  0  0  0  0  0  0  0  0
    9.3112   -3.4585    0.0000 C    0  0  0  0  0  0  0  0  0  0  0  0
    3.3254   -6.9036    0.0000 C    0  0  0  0  0  0  0  0  0  0  0  0
    9.9763   -2.3012    0.0000 C    0  0  0  0  0  0  0  0  0  0  0  0
    1.9953   -6.9036    0.0000 C    0  0  0  0  0  0  0  0  0  0  0  0
   11.3065   -2.3012    0.0000 C    0  0  0  0  0  0  0  0  0  0  0  0
    1.3302   -8.0609    0.0000 C    0  0  0  0  0  0  0  0  0  0  0  0
   11.9716   -1.1440    0.0000 C    0  0  0  0  0  0  0  0  0  0  0  0
    0.0000   -8.0609    0.0000 Br   0  0  0  0  0  0  0  0  0  0  0  0
   13.3018   -1.1440    0.0000 O    0  0  0  0  0  0  0  0  0  0  0  0
   11.3065    0.0000    0.0000 O    0  0  0  0  0  0  0  0  0  0  0  0
  1  2  1  0  0  0  0
  1  3  1  0  0  0  0
  2  4  1  0  0  0  0
  3  5  1  0  0  0  0
  4  6  1  0  0  0  0
  5  7  1  0  0  0  0
  6  8  1  0  0  0  0
  7  9  1  0  0  0  0
  8 10  1  0  0  0  0
  9 11  1  0  0  0  0
 10 12  1  0  0  0  0
 11 13  1  0  0  0  0
 12 14  2  0  0  0  0
 12 15  1  0  0  0  0
M  END
> <ID>
14218

> <Formula>
C12H23BrO2

> <FW>
279.2138

> <DSSTox_CID>
29313

> <DSSTox_RID>
83429

> <DSSTox_GSID>
49354

> <DSSTox_FileID_Sort>
8104

> <TS_ChemName>
12-BromododecanoicAcid

> <TS_ChemName_Synonyms>


> <TS_CASRN>
73367-80-3

> <CASRN_ChemName_Relationship>
primary

> <TS_Description>
single chemical compound

> <ChemNote>


> <STRUCTURE_Shown>
tested chemical

> <STRUCTURE_Formula>
C12H23BrO2

> <STRUCTURE_MW>
279.2138

> <STRUCTURE_ChemType>
defined organic

> <STRUCTURE_DefinedOrganicForm>
parent

> <STRUCTURE_IUPAC>
12-bromododecanoic acid

> <STRUCTURE_SMILES>
O=C(O)CCCCCCCCCCCBr

> <STRUCTURE_SMILES_Desalt>
O=C(O)CCCCCCCCCCCBr

> <Substance_modify_yyyymmdd>
20111204

$$$$
