73384-60-8
ChemmineR-0915142007XD

 20 22  0  0  0  0  0  0  0  0  1 V2000
    4.3528   -3.4430    0.0000 C   0  0  0  0  0  0  0  0  0  0  0  0
    3.5671   -4.5286    0.0000 N   0  0  0  0  0  0  0  0  0  0  0  0
    5.6763   -3.4430    0.0000 C   0  0  0  0  0  0  0  0  0  0  0  0
    3.5671   -2.3780    0.0000 N   0  0  0  0  0  0  0  0  0  0  0  0
    2.3057   -4.1150    0.0000 C   0  0  0  0  0  0  0  0  0  0  0  0
    6.3380   -2.2953    0.0000 C   0  0  0  0  0  0  0  0  0  0  0  0
    2.3057   -2.7813    0.0000 C   0  0  0  0  0  0  0  0  0  0  0  0
    7.6718   -2.2953    0.0000 C   0  0  0  0  0  0  0  0  0  0  0  0
    9.6776   -3.4430    0.0000 S   0  0  0  0  0  0  0  0  0  0  0  0
    8.3438   -3.4430    0.0000 C   0  0  0  0  0  0  0  0  0  0  0  0
    6.3380   -4.6010    0.0000 C   0  0  0  0  0  0  0  0  0  0  0  0
    1.1580   -4.7768    0.0000 N   0  0  0  0  0  0  0  0  0  0  0  0
    7.6718   -4.6010    0.0000 C   0  0  0  0  0  0  0  0  0  0  0  0
   10.3393   -2.2953    0.0000 O   0  0  0  0  0  0  0  0  0  0  0  0
    5.6763   -1.1477    0.0000 O   0  0  0  0  0  0  0  0  0  0  0  0
   10.3393   -4.6010    0.0000 C   0  0  0  0  0  0  0  0  0  0  0  0
    1.1580   -2.1196    0.0000 C   0  0  0  0  0  0  0  0  0  0  0  0
    0.0000   -4.1150    0.0000 C   0  0  0  0  0  0  0  0  0  0  0  0
    6.3380    0.0000    0.0000 C   0  0  0  0  0  0  0  0  0  0  0  0
    0.0000   -2.7813    0.0000 C   0  0  0  0  0  0  0  0  0  0  0  0
  1  2  2  0  0  0  0
  1  3  1  0  0  0  0
  1  4  1  0  0  0  0
  2  5  1  0  0  0  0
  3  6  2  0  0  0  0
  3 11  1  0  0  0  0
  4  7  1  0  0  0  0
  5 12  1  0  0  0  0
  5  7  2  0  0  0  0
  6  8  1  0  0  0  0
  6 15  1  0  0  0  0
  7 17  1  0  0  0  0
  8 10  2  0  0  0  0
  9 10  1  0  0  0  0
  9 14  2  0  0  0  0
  9 16  1  0  0  0  0
 10 13  1  0  0  0  0
 11 13  2  0  0  0  0
 12 18  2  0  0  0  0
 15 19  1  0  0  0  0
 17 20  2  0  0  0  0
 18 20  1  0  0  0  0
M  END
> <ID>
7831

> <Formula>
C14H13N3O2S

> <FW>
287.3369

> <DSSTox_CID>
20617

> <DSSTox_RID>
79513

> <DSSTox_GSID>
40617

> <DSSTox_FileID_Sort>
4195

> <TS_ChemName>
Sulmazole

> <TS_ChemName_Synonyms>


> <TS_CASRN>
73384-60-8

> <CASRN_ChemName_Relationship>
primary

> <TS_Description>
single chemical compound

> <ChemNote>
tautomers

> <STRUCTURE_Shown>
tested chemical

> <STRUCTURE_Formula>
C14H13N3O2S

> <STRUCTURE_MW>
287.3369

> <STRUCTURE_ChemType>
defined organic

> <STRUCTURE_DefinedOrganicForm>
parent

> <STRUCTURE_IUPAC>
2-[2-methoxy-4-(methylsulfinyl)phenyl]-1H-imidazo[4,5-b]pyridine

> <STRUCTURE_SMILES>
CS(=O)c3ccc(c1nc2ncccc2n1)c(OC)c3

> <STRUCTURE_SMILES_Desalt>
CS(=O)c3ccc(c1nc2ncccc2n1)c(OC)c3

> <Substance_modify_yyyymmdd>
20080429

$$$$
