73573-42-9
ChemmineR-0915142007XD

 46 51  0  0  1  0  0  0  0  0  1 V2000
    6.8384   -3.2837    0.0000 C   0  0  0  0  0  0  0  0  0  0  0  0
    5.7066   -3.9691    0.0000 N   0  0  0  0  0  0  0  0  0  0  0  0
    6.8384   -1.9766    0.0000 C   0  0  0  0  0  0  0  0  0  0  0  0
    9.1019   -7.1731    0.0000 C   0  0  0  0  0  0  0  0  0  0  0  0
    9.1019   -5.8979    0.0000 C   0  0  0  0  0  0  0  0  0  0  0  0
    7.9701   -3.9691    0.0000 C   0  0  0  0  0  0  0  0  0  0  0  0
    9.0700   -3.2837    0.0000 N   0  0  0  0  0  0  0  0  0  0  0  0
    4.5430   -3.2837    0.0000 C   0  0  0  0  0  0  0  0  0  0  0  0
    4.5430   -1.9766    0.0000 C   0  0  0  0  0  0  0  0  0  0  0  0
   10.1699   -5.2762    0.0000 C   0  0  0  0  0  0  0  0  0  0  0  0
   11.3176   -7.1731    0.0000 C   0  0  0  0  0  0  0  0  0  0  0  0
    7.9701   -5.2762    0.0000 C   0  0  0  0  0  0  0  0  0  0  0  0
   10.2336   -7.8585    0.0000 C   0  0  0  0  0  0  0  0  0  0  0  0
    7.9701   -7.9064    0.0000 C   0  0  0  0  0  0  0  0  0  0  0  0
   10.1699   -3.9691    0.0000 C   0  0  0  0  0  0  0  0  0  0  0  0
   11.3176   -5.8979    0.0000 C   0  0  0  0  0  0  0  0  0  0  0  0
    7.9223   -1.3390    0.0000 C   0  0  0  0  0  0  0  0  0  0  0  0
   12.4653   -7.8745    0.0000 O   0  0  0  0  0  0  0  0  0  0  0  0
    3.4590   -3.9691    0.0000 C   0  0  0  0  0  0  0  0  0  0  0  0
   13.6289   -7.1890    0.0000 C   0  0  0  0  0  0  0  0  0  0  0  0
    3.4590   -1.3390    0.0000 C   0  0  0  0  0  0  0  0  0  0  0  0
    9.0700   -1.9766    0.0000 C   0  0  0  0  0  0  0  0  0  0  0  0
   13.6289   -5.9457    0.0000 C   0  0  0  0  0  0  0  0  0  0  0  0
   13.6289   -1.9606    0.0000 C   0  0  0  0  0  0  0  0  0  0  0  0
   14.7607   -5.2762    0.0000 C   0  0  0  0  0  0  0  0  0  0  0  0
   14.8244   -1.3071    0.0000 C   0  0  0  0  0  0  0  0  0  0  0  0
    6.8702   -7.2050    0.0000 O   0  0  0  0  0  0  0  0  0  0  0  0
   13.6289   -3.2996    0.0000 C   0  0  0  0  0  0  0  0  0  0  0  0
   14.7607   -7.8745    0.0000 O   0  0  0  0  0  0  0  0  0  0  0  0
   14.7607   -4.0010    0.0000 C   0  0  0  0  0  0  0  0  0  0  0  0
   15.9243   -1.9925    0.0000 C   0  0  0  0  0  0  0  0  0  0  0  0
    2.3113   -3.2837    0.0000 C   0  0  0  0  0  0  0  0  0  0  0  0
    2.3113   -1.9766    0.0000 C   0  0  0  0  0  0  0  0  0  0  0  0
   10.2336   -9.1816    0.0000 O   0  0  0  0  0  0  0  0  0  0  0  0
    7.9701   -9.1816    0.0000 O   0  0  0  0  0  0  0  0  0  0  0  0
   15.9402   -3.3474    0.0000 C   0  0  0  0  0  0  0  0  0  0  0  0
   12.4971   -1.2752    0.0000 O   0  0  0  0  0  0  0  0  0  0  0  0
   14.8404    0.0000    0.0000 O   0  0  0  0  0  0  0  0  0  0  0  0
    1.1477   -3.9691    0.0000 O   0  0  0  0  0  0  0  0  0  0  0  0
   11.3494   -9.8351    0.0000 C   0  0  0  0  0  0  0  0  0  0  0  0
    9.1178   -9.8351    0.0000 C   0  0  0  0  0  0  0  0  0  0  0  0
   11.4770   -1.9288    0.0000 C   0  0  0  0  0  0  0  0  0  0  0  0
    0.0000   -3.2359    0.0000 C   0  0  0  0  0  0  0  0  0  0  0  0
    6.8384   -4.7661    0.0000 H   0  0  0  0  0  0  0  0  0  0  0  0
    7.9382   -6.6471    0.0000 H   0  0  0  0  0  0  0  0  0  0  0  0
   11.2538   -4.5908    0.0000 H   0  0  0  0  0  0  0  0  0  0  0  0
  1  2  1  0  0  0  0
  1  3  2  0  0  0  0
  1  6  1  0  0  0  0
  2  8  1  0  0  0  0
  3  9  1  0  0  0  0
  3 17  1  0  0  0  0
  4  5  1  0  0  0  0
  4 13  1  0  0  0  0
  4 14  1  1  0  0  0
  5 12  1  0  0  0  0
  5 10  1  0  0  0  0
  5 45  1  6  0  0  0
  6  7  1  0  0  0  0
  6 12  1  0  0  0  0
  6 44  1  1  0  0  0
  7 15  1  0  0  0  0
  7 22  1  0  0  0  0
  8 19  1  0  0  0  0
  8  9  2  0  0  0  0
  9 21  1  0  0  0  0
 10 16  1  0  0  0  0
 10 46  1  6  0  0  0
 10 15  1  0  0  0  0
 11 16  1  0  0  0  0
 11 18  1  1  0  0  0
 11 13  1  0  0  0  0
 13 34  1  6  0  0  0
 14 27  2  0  0  0  0
 14 35  1  0  0  0  0
 17 22  1  0  0  0  0
 18 20  1  0  0  0  0
 19 32  2  0  0  0  0
 20 23  1  0  0  0  0
 20 29  2  0  0  0  0
 21 33  2  0  0  0  0
 23 25  2  0  0  0  0
 24 28  1  0  0  0  0
 24 37  1  0  0  0  0
 24 26  2  0  0  0  0
 25 30  1  0  0  0  0
 26 31  1  0  0  0  0
 26 38  1  0  0  0  0
 28 30  2  0  0  0  0
 30 36  1  0  0  0  0
 31 36  2  0  0  0  0
 32 39  1  0  0  0  0
 32 33  1  0  0  0  0
 34 40  1  0  0  0  0
 35 41  1  0  0  0  0
 37 42  1  0  0  0  0
 39 43  1  0  0  0  0
M  END
> <ID>
16213

> <Formula>
C33H38N2O8

> <FW>
590.6634

> <DSSTox_CID>
31604

> <DSSTox_RID>
97488

> <DSSTox_GSID>
57815

> <DSSTox_FileID_Sort>
8555

> <TS_ChemName>
Rescimetol

> <TS_ChemName_Synonyms>


> <TS_CASRN>
73573-42-9

> <CASRN_ChemName_Relationship>
primary

> <TS_Description>
single chemical compound

> <ChemNote>


> <STRUCTURE_Shown>
tested chemical

> <STRUCTURE_Formula>
C33H38N2O8

> <STRUCTURE_MW>
590.6634

> <STRUCTURE_ChemType>
defined organic

> <STRUCTURE_DefinedOrganicForm>
parent

> <STRUCTURE_IUPAC>
methyl (3beta,16beta,17alpha,18beta,20alpha)-18-{[(2E)-3-(4-hydroxy-3-methoxyphenyl)prop-2-enoyl]oxy}-11,17-dimethoxyyohimban-16-carboxylate

> <STRUCTURE_SMILES>
Oc1ccc(cc1OC)/C=C/C(=O)O[C@@H]3C[C@@H]4CN5CCc2c6ccc(OC)cc6nc2[C@H]5C[C@@H]4[C@@H]([C@H]3OC)C(=O)OC

> <STRUCTURE_SMILES_Desalt>
Oc1ccc(cc1OC)/C=C/C(=O)O[C@@H]3C[C@@H]4CN5CCc2c6ccc(OC)cc6nc2[C@H]5C[C@@H]4[C@@H]([C@H]3OC)C(=O)OC

> <Substance_modify_yyyymmdd>
20131018

$$$$
