73573-88-3
ChemmineR-0915142007XD

 29 31  0  0  1  0  0  0  0  0  1 V2000
    5.7677   -6.6599    0.0000 C   0  0  0  0  0  0  0  0  0  0  0  0
    4.6059   -6.0063    0.0000 C   0  0  0  0  0  0  0  0  0  0  0  0
    9.2222   -0.6743    0.0000 C   0  0  0  0  0  0  0  0  0  0  0  0
    3.4648   -4.0250    0.0000 C   0  0  0  0  0  0  0  0  0  0  0  0
    5.7677   -7.9773    0.0000 C   0  0  0  0  0  0  0  0  0  0  0  0
    4.6059   -4.6889    0.0000 O   0  0  0  0  0  0  0  0  0  0  0  0
    6.9088   -5.9960    0.0000 C   0  0  0  0  0  0  0  0  0  0  0  0
    6.9088   -8.6412    0.0000 C   0  0  0  0  0  0  0  0  0  0  0  0
    9.2222   -2.0021    0.0000 O   0  0  0  0  0  0  0  0  0  0  0  0
    8.0707   -7.9773    0.0000 C   0  0  0  0  0  0  0  0  0  0  0  0
    8.0707    0.0000    0.0000 C   0  0  0  0  0  0  0  0  0  0  0  0
    6.9088   -4.6578    0.0000 C   0  0  0  0  0  0  0  0  0  0  0  0
    8.0707   -6.6391    0.0000 C   0  0  0  0  0  0  0  0  0  0  0  0
    8.0707   -2.6660    0.0000 C   0  0  0  0  0  0  0  0  0  0  0  0
    3.4648   -2.6556    0.0000 O   0  0  0  0  0  0  0  0  0  0  0  0
    6.9088   -0.6743    0.0000 C   0  0  0  0  0  0  0  0  0  0  0  0
   10.3736    0.0000    0.0000 O   0  0  0  0  0  0  0  0  0  0  0  0
    6.9088   -2.0021    0.0000 C   0  0  0  0  0  0  0  0  0  0  0  0
    4.6059   -8.6516    0.0000 C   0  0  0  0  0  0  0  0  0  0  0  0
    2.3029   -4.6889    0.0000 C   0  0  0  0  0  0  0  0  0  0  0  0
    8.0707   -4.0042    0.0000 C   0  0  0  0  0  0  0  0  0  0  0  0
    3.4648   -6.6806    0.0000 C   0  0  0  0  0  0  0  0  0  0  0  0
    3.4648   -7.9877    0.0000 C   0  0  0  0  0  0  0  0  0  0  0  0
    5.7574    0.0000    0.0000 O   0  0  0  0  0  0  0  0  0  0  0  0
    9.2014   -5.9856    0.0000 C   0  0  0  0  0  0  0  0  0  0  0  0
    1.1618   -4.0250    0.0000 C   0  0  0  0  0  0  0  0  0  0  0  0
    2.3029   -6.0271    0.0000 C   0  0  0  0  0  0  0  0  0  0  0  0
    0.0000   -4.6993    0.0000 C   0  0  0  0  0  0  0  0  0  0  0  0
    5.7677   -5.3528    0.0000 H   0  0  0  0  0  0  0  0  0  0  0  0
  1  2  1  0  0  0  0
  1  5  1  0  0  0  0
  1  7  1  0  0  0  0
  1 29  1  1  0  0  0
  2  6  1  6  0  0  0
  2 22  1  0  0  0  0
  3  9  1  0  0  0  0
  3 17  2  0  0  0  0
  3 11  1  0  0  0  0
  4  6  1  0  0  0  0
  4 15  2  0  0  0  0
  4 20  1  0  0  0  0
  5  8  1  0  0  0  0
  5 19  2  0  0  0  0
  7 12  1  1  0  0  0
  7 13  1  0  0  0  0
  8 10  2  0  0  0  0
  9 14  1  0  0  0  0
 10 13  1  0  0  0  0
 11 16  1  0  0  0  0
 12 21  1  0  0  0  0
 13 25  1  1  0  0  0
 14 21  1  6  0  0  0
 14 18  1  0  0  0  0
 16 18  1  0  0  0  0
 16 24  1  1  0  0  0
 19 23  1  0  0  0  0
 20 26  1  0  0  0  0
 20 27  1  1  0  0  0
 22 23  1  0  0  0  0
 26 28  1  0  0  0  0
M  END
> <ID>
7882

> <Formula>
C23H34O5

> <FW>
390.5131

> <DSSTox_CID>
20684

> <DSSTox_RID>
79540

> <DSSTox_GSID>
40684

> <DSSTox_FileID_Sort>
4222

> <TS_ChemName>
Mevastatin

> <TS_ChemName_Synonyms>


> <TS_CASRN>
73573-88-3

> <CASRN_ChemName_Relationship>
primary

> <TS_Description>
single chemical compound

> <ChemNote>
stereochem

> <STRUCTURE_Shown>
tested chemical

> <STRUCTURE_Formula>
C23H34O5

> <STRUCTURE_MW>
390.5131

> <STRUCTURE_ChemType>
defined organic

> <STRUCTURE_DefinedOrganicForm>
parent

> <STRUCTURE_IUPAC>
(1S,7S,8S,8aR)-8-{2-[(2R,4R)-4-hydroxy-6-oxotetrahydro-2H-pyran-2-yl]ethyl}-7-methyl-1,2,3,7,8,8a-hexahydronaphthalen-1-yl (2S)-2-methylbutanoate

> <STRUCTURE_SMILES>
C[C@@H](CC)C(=O)O[C@H]2CCC=C3C=C[C@H](C)[C@H](CC[C@@H]1C[C@@H](O)CC(=O)O1)[C@@H]23

> <STRUCTURE_SMILES_Desalt>
C[C@@H](CC)C(=O)O[C@H]2CCC=C3C=C[C@H](C)[C@H](CC[C@@H]1C[C@@H](O)CC(=O)O1)[C@@H]23

> <Substance_modify_yyyymmdd>
20080429

$$$$
