73590-85-9
ChemmineR-0915142007XD

 23 25  0  0  0  0  0  0  0  0  1 V2000
    0.0000   -3.9389    0.0000 C   0  0  0  0  0  0  0  0  0  0  0  0
    1.1454   -3.2824    0.0000 O   0  0  0  0  0  0  0  0  0  0  0  0
    2.3047   -3.9389    0.0000 C   0  0  0  0  0  0  0  0  0  0  0  0
    2.3047   -5.2658    0.0000 C   0  0  0  0  0  0  0  0  0  0  0  0
    3.4500   -5.9363    0.0000 C   0  0  0  0  0  0  0  0  0  0  0  0
    4.6093   -5.2658    0.0000 C   0  0  0  0  0  0  0  0  0  0  0  0
    5.8664   -5.6849    0.0000 N   0  0  0  0  0  0  0  0  0  0  0  0
    6.6486   -4.6093    0.0000 C   0  0  0  0  0  0  0  0  0  0  0  0
    5.8664   -3.5338    0.0000 N   0  0  0  0  0  0  0  0  0  0  0  0
    4.6093   -3.9389    0.0000 C   0  0  0  0  0  0  0  0  0  0  0  0
    3.4500   -3.2824    0.0000 C   0  0  0  0  0  0  0  0  0  0  0  0
    7.9895   -4.6093    0.0000 S   0  0  0  0  0  0  0  0  0  0  0  0
    8.6460   -3.4500    0.0000 C   0  0  0  0  0  0  0  0  0  0  0  0
    9.9730   -3.4500    0.0000 C   0  0  0  0  0  0  0  0  0  0  0  0
   10.6434   -4.6093    0.0000 N   0  0  0  0  0  0  0  0  0  0  0  0
   11.9703   -4.6093    0.0000 C   0  0  0  0  0  0  0  0  0  0  0  0
   12.6408   -3.4500    0.0000 C   0  0  0  0  0  0  0  0  0  0  0  0
   13.9677   -3.4500    0.0000 C   0  0  0  0  0  0  0  0  0  0  0  0
   11.9703   -2.3047    0.0000 C   0  0  0  0  0  0  0  0  0  0  0  0
   10.6434   -2.3047    0.0000 C   0  0  0  0  0  0  0  0  0  0  0  0
    9.9730   -1.1454    0.0000 C   0  0  0  0  0  0  0  0  0  0  0  0
   12.6408   -1.1454    0.0000 O   0  0  0  0  0  0  0  0  0  0  0  0
   11.9703    0.0000    0.0000 C   0  0  0  0  0  0  0  0  0  0  0  0
  1  2  1  0  0  0  0
  2  3  1  0  0  0  0
  3  4  2  0  0  0  0
  3 11  1  0  0  0  0
  4  5  1  0  0  0  0
  5  6  2  0  0  0  0
  6  7  1  0  0  0  0
  6 10  1  0  0  0  0
  7  8  1  0  0  0  0
  8  9  2  0  0  0  0
  8 12  1  0  0  0  0
  9 10  1  0  0  0  0
 10 11  2  0  0  0  0
 12 13  1  0  0  0  0
 13 14  1  0  0  0  0
 14 15  2  0  0  0  0
 14 20  1  0  0  0  0
 15 16  1  0  0  0  0
 16 17  2  0  0  0  0
 17 18  1  0  0  0  0
 17 19  1  0  0  0  0
 19 20  2  0  0  0  0
 19 22  1  0  0  0  0
 20 21  1  0  0  0  0
 22 23  1  0  0  0  0
M  END
> <ID>
16214

> <Formula>
C17H19N3O2S

> <FW>
329.4167

> <DSSTox_CID>
31605

> <DSSTox_RID>
97489

> <DSSTox_GSID>
57816

> <DSSTox_FileID_Sort>
8556

> <TS_ChemName>
Omeprazole sulfide

> <TS_ChemName_Synonyms>


> <TS_CASRN>
73590-85-9

> <CASRN_ChemName_Relationship>
primary

> <TS_Description>
single chemical compound

> <ChemNote>


> <STRUCTURE_Shown>
tested chemical

> <STRUCTURE_Formula>
C17H19N3O2S

> <STRUCTURE_MW>
329.4167

> <STRUCTURE_ChemType>
defined organic

> <STRUCTURE_DefinedOrganicForm>
parent

> <STRUCTURE_IUPAC>
5-methoxy-2-{[(4-methoxy-3,5-dimethylpyridin-2-yl)methyl]sulfanyl}-1H-benzimidazole

> <STRUCTURE_SMILES>
Cc3c(OC)c(C)cnc3CSc1nc2cc(ccc2n1)OC

> <STRUCTURE_SMILES_Desalt>
Cc3c(OC)c(C)cnc3CSc1nc2cc(ccc2n1)OC

> <Substance_modify_yyyymmdd>
20131018

$$$$
