7360-44-3
ChemmineR-0915142007XD

  7  6  0  0  0  0  0  0  0  0  1 V2000
    1.1505   -1.3254    0.0000 Al   0  0  0  0  0  0  0  0  0  0  0  0
    1.1505    0.0000    0.0000 O    0  0  0  0  0  0  0  0  0  0  0  0
    0.0000   -1.9973    0.0000 O    0  0  0  0  0  0  0  0  0  0  0  0
    2.3010   -1.9973    0.0000 O    0  0  0  0  0  0  0  0  0  0  0  0
    3.4515   -1.3254    0.0000 C    0  0  0  0  0  0  0  0  0  0  0  0
    4.6020   -1.9973    0.0000 C    0  0  0  0  0  0  0  0  0  0  0  0
    3.4515    0.0000    0.0000 O    0  0  0  0  0  0  0  0  0  0  0  0
  1  2  1  0  0  0  0
  1  3  1  0  0  0  0
  1  4  1  0  0  0  0
  4  5  1  0  0  0  0
  5  6  1  0  0  0  0
  5  7  2  0  0  0  0
M  END
> <ID>
10375

> <Formula>
C2H5AlO4

> <FW>
120.0402

> <DSSTox_CID>
24723

> <DSSTox_RID>
80423

> <DSSTox_GSID>
44723

> <DSSTox_FileID_Sort>
5105

> <TS_ChemName>
Aluminum hydroxide acetate (1:2:1)

> <TS_ChemName_Synonyms>
Aluminum hydroxide acetate (1:2:1) (Aluminum, (acetato-.kappa.O)dihydroxy-)

> <TS_CASRN>
7360-44-3

> <CASRN_ChemName_Relationship>
primary

> <TS_Description>
single chemical compound

> <ChemNote>


> <STRUCTURE_Shown>
tested chemical

> <STRUCTURE_Formula>
C2H5AlO4

> <STRUCTURE_MW>
120.0402

> <STRUCTURE_ChemType>
organometallic

> <STRUCTURE_DefinedOrganicForm>


> <STRUCTURE_IUPAC>
aluminium hydroxide acetate (1:2:1)

> <STRUCTURE_SMILES>
O[Al](O)OC(C)=O

> <STRUCTURE_SMILES_Desalt>
O[Al](O)OC(C)=O

> <Substance_modify_yyyymmdd>
20091116

$$$$
