7364-25-2
ChemmineR-0915142007XD

 10 11  0  0  0  0  0  0  0  0  1 V2000
    3.5747   -1.2525    0.0000 C   0  0  0  0  0  0  0  0  0  0  0  0
    4.3488   -2.3353    0.0000 N   0  0  0  0  0  0  0  0  0  0  0  0
    2.3049   -1.6743    0.0000 C   0  0  0  0  0  0  0  0  0  0  0  0
    3.5747   -3.4138    0.0000 N   0  0  0  0  0  0  0  0  0  0  0  0
    2.3049   -3.0094    0.0000 C   0  0  0  0  0  0  0  0  0  0  0  0
    3.9792    0.0000    0.0000 O   0  0  0  0  0  0  0  0  0  0  0  0
    1.1437   -1.0133    0.0000 C   0  0  0  0  0  0  0  0  0  0  0  0
    1.1437   -3.6704    0.0000 C   0  0  0  0  0  0  0  0  0  0  0  0
    0.0000   -1.6743    0.0000 C   0  0  0  0  0  0  0  0  0  0  0  0
    0.0000   -3.0094    0.0000 C   0  0  0  0  0  0  0  0  0  0  0  0
  1  2  1  0  0  0  0
  1  3  1  0  0  0  0
  1  6  2  0  0  0  0
  2  4  1  0  0  0  0
  3  5  2  0  0  0  0
  3  7  1  0  0  0  0
  4  5  1  0  0  0  0
  5  8  1  0  0  0  0
  7  9  2  0  0  0  0
  8 10  2  0  0  0  0
  9 10  1  0  0  0  0
M  END
> <ID>
14292

> <Formula>
C7H6N2O

> <FW>
134.1353

> <DSSTox_CID>
29388

> <DSSTox_RID>
83503

> <DSSTox_GSID>
49428

> <DSSTox_FileID_Sort>
8178

> <TS_ChemName>
3-Indazolinone

> <TS_ChemName_Synonyms>


> <TS_CASRN>
7364-25-2

> <CASRN_ChemName_Relationship>
primary

> <TS_Description>
single chemical compound

> <ChemNote>


> <STRUCTURE_Shown>
tested chemical

> <STRUCTURE_Formula>
C7H6N2O

> <STRUCTURE_MW>
134.1353

> <STRUCTURE_ChemType>
defined organic

> <STRUCTURE_DefinedOrganicForm>
parent

> <STRUCTURE_IUPAC>
1,2-dihydro-3H-indazol-3-one

> <STRUCTURE_SMILES>
O=C1NNc2ccccc12

> <STRUCTURE_SMILES_Desalt>
O=C1NNc2ccccc12

> <Substance_modify_yyyymmdd>
20111204

$$$$
