737-31-5
ChemmineR-0915142007XD

 21 20  0  0  0  0  0  0  0  0  2 V2000
    2.8538   -2.3972    0.0000 C    0  0  0  0  0  0  0  0  0  0  0  0
    2.8538   -4.6803    0.0000 C    0  0  0  0  0  0  0  0  0  0  0  0
    4.8597   -3.5306    0.0000 C    0  0  0  0  0  0  0  0  0  0  0  0
    2.2015   -3.5306    0.0000 C    0  0  0  0  0  0  0  0  0  0  0  0
    4.1748   -2.3972    0.0000 C    0  0  0  0  0  0  0  0  0  0  0  0
    4.1748   -4.6803    0.0000 C    0  0  0  0  0  0  0  0  0  0  0  0
    2.1852   -1.2231    0.0000 C    0  0  0  0  0  0  0  0  0  0  0  0
    2.2015   -5.8381    0.0000 N    0  0  0  0  0  0  0  0  0  0  0  0
    6.1806   -3.5306    0.0000 N    0  0  0  0  0  0  0  0  0  0  0  0
    0.8725   -5.8381    0.0000 C    0  0  0  0  0  0  0  0  0  0  0  0
    6.8329   -4.6803    0.0000 C    0  0  0  0  0  0  0  0  0  0  0  0
    2.8375   -0.1060    0.0000 O    0  5  0  0  0  0  0  0  0  0  0  0
    0.8317   -1.2231    0.0000 O    0  0  0  0  0  0  0  0  0  0  0  0
    0.8725   -3.5306    0.0000 I    0  0  0  0  0  0  0  0  0  0  0  0
    4.8597   -1.2231    0.0000 I    0  0  0  0  0  0  0  0  0  0  0  0
    4.8597   -5.8708    0.0000 I    0  0  0  0  0  0  0  0  0  0  0  0
    0.1875   -6.9715    0.0000 O    0  0  0  0  0  0  0  0  0  0  0  0
    8.1538   -4.6803    0.0000 O    0  0  0  0  0  0  0  0  0  0  0  0
    6.1806   -5.8218    0.0000 C    0  0  0  0  0  0  0  0  0  0  0  0
    0.1875   -4.6803    0.0000 C    0  0  0  0  0  0  0  0  0  0  0  0
    0.0000    0.0000    0.0000 Na   0  3  0  0  0  0  0  0  0  0  0  0
  1  4  2  0  0  0  0
  1  5  1  0  0  0  0
  1  7  1  0  0  0  0
  2  4  1  0  0  0  0
  2  8  1  0  0  0  0
  2  6  2  0  0  0  0
  3  5  2  0  0  0  0
  3  6  1  0  0  0  0
  3  9  1  0  0  0  0
  4 14  1  0  0  0  0
  5 15  1  0  0  0  0
  6 16  1  0  0  0  0
  7 12  1  0  0  0  0
  7 13  2  0  0  0  0
  8 10  1  0  0  0  0
  9 11  1  0  0  0  0
 10 17  2  0  0  0  0
 10 20  1  0  0  0  0
 11 18  2  0  0  0  0
 11 19  1  0  0  0  0
M  END
> <ID>
2626

> <Formula>
C11H8I3N2NaO4

> <FW>
635.8954 (612.9062+22.9892)

> <DSSTox_CID>
2912

> <DSSTox_RID>
76785

> <DSSTox_GSID>
22912

> <DSSTox_FileID_Sort>
1469

> <TS_ChemName>
Diatrizoate sodium

> <TS_ChemName_Synonyms>


> <TS_CASRN>
737-31-5

> <CASRN_ChemName_Relationship>
primary

> <TS_Description>
single chemical compound

> <ChemNote>


> <STRUCTURE_Shown>
tested chemical

> <STRUCTURE_Formula>
C11H8I3N2NaO4

> <STRUCTURE_MW>
635.8954

> <STRUCTURE_ChemType>
defined organic

> <STRUCTURE_DefinedOrganicForm>
salt

> <STRUCTURE_IUPAC>
sodium 3,5-bis(acetylamino)-2,4,6-triiodobenzoate

> <STRUCTURE_SMILES>
[Na+].O=C(C)Nc1c(I)c(c(I)c(NC(C)=O)c1I)C([O-])=O

> <STRUCTURE_SMILES_Desalt>
O=C(C)Nc1c(I)c(c(I)c(NC(C)=O)c1I)C(=O)O

> <Substance_modify_yyyymmdd>
20080429

$$$$
