73771-04-7
ChemmineR-0915142007XD

 38 41  0  0  1  0  0  0  0  0  1 V2000
    7.0462   -3.0611    0.0000 C   0  0  0  0  0  0  0  0  0  0  0  0
    8.2734   -2.6337    0.0000 C   0  0  0  0  0  0  0  0  0  0  0  0
    3.5575   -4.9640    0.0000 C   0  0  0  0  0  0  0  0  0  0  0  0
    5.9292   -4.9640    0.0000 C   0  0  0  0  0  0  0  0  0  0  0  0
    7.0462   -4.3435    0.0000 C   0  0  0  0  0  0  0  0  0  0  0  0
    4.7434   -4.3711    0.0000 C   0  0  0  0  0  0  0  0  0  0  0  0
    3.5575   -6.3291    0.0000 C   0  0  0  0  0  0  0  0  0  0  0  0
    5.8741   -2.3855    0.0000 C   0  0  0  0  0  0  0  0  0  0  0  0
    4.7434   -3.0749    0.0000 C   0  0  0  0  0  0  0  0  0  0  0  0
    2.3579   -4.3711    0.0000 C   0  0  0  0  0  0  0  0  0  0  0  0
    8.6181   -1.3513    0.0000 C   0  0  0  0  0  0  0  0  0  0  0  0
    2.3579   -7.0599    0.0000 C   0  0  0  0  0  0  0  0  0  0  0  0
    9.4179   -2.6337    0.0000 O   0  0  0  0  0  0  0  0  0  0  0  0
   10.1349   -3.7644    0.0000 C   0  0  0  0  0  0  0  0  0  0  0  0
    9.0731   -3.6816    0.0000 C   0  0  0  0  0  0  0  0  0  0  0  0
    8.2734   -4.7020    0.0000 C   0  0  0  0  0  0  0  0  0  0  0  0
    5.9292   -6.3291    0.0000 C   0  0  0  0  0  0  0  0  0  0  0  0
    1.1858   -4.9640    0.0000 C   0  0  0  0  0  0  0  0  0  0  0  0
    1.1858   -6.3291    0.0000 C   0  0  0  0  0  0  0  0  0  0  0  0
    4.7434   -7.0599    0.0000 C   0  0  0  0  0  0  0  0  0  0  0  0
   12.1756   -1.6409    0.0000 C   0  0  0  0  0  0  0  0  0  0  0  0
    9.9556   -1.0342    0.0000 C   0  0  0  0  0  0  0  0  0  0  0  0
   11.5000   -3.7644    0.0000 O   0  0  0  0  0  0  0  0  0  0  0  0
    7.6529   -0.3585    0.0000 O   0  0  0  0  0  0  0  0  0  0  0  0
   10.8657   -1.9856    0.0000 O   0  0  0  0  0  0  0  0  0  0  0  0
   13.1822   -2.5647    0.0000 O   0  0  0  0  0  0  0  0  0  0  0  0
    0.0000   -7.0599    0.0000 O   0  0  0  0  0  0  0  0  0  0  0  0
    7.0462   -1.7236    0.0000 C   0  0  0  0  0  0  0  0  0  0  0  0
    3.5438   -2.3855    0.0000 O   0  0  0  0  0  0  0  0  0  0  0  0
    9.4179   -4.8675    0.0000 O   0  0  0  0  0  0  0  0  0  0  0  0
    3.5575   -3.6816    0.0000 C   0  0  0  0  0  0  0  0  0  0  0  0
   12.6583   -0.3585    0.0000 C   0  0  0  0  0  0  0  0  0  0  0  0
   10.1349   -6.0533    0.0000 C   0  0  0  0  0  0  0  0  0  0  0  0
   13.7889    0.0000    0.0000 C   0  0  0  0  0  0  0  0  0  0  0  0
    9.4179   -7.2392    0.0000 C   0  0  0  0  0  0  0  0  0  0  0  0
    5.9292   -3.8471    0.0000 H   0  0  0  0  0  0  0  0  0  0  0  0
    4.7020   -5.7086    0.0000 H   0  0  0  0  0  0  0  0  0  0  0  0
    7.0462   -5.7086    0.0000 H   0  0  0  0  0  0  0  0  0  0  0  0
  1  2  1  0  0  0  0
  1  5  1  0  0  0  0
  1  8  1  0  0  0  0
  1 28  1  1  0  0  0
  2 11  1  1  0  0  0
  2 13  1  0  0  0  0
  2 15  1  0  0  0  0
  3  6  1  0  0  0  0
  3  7  1  0  0  0  0
  3 10  1  0  0  0  0
  3 31  1  1  0  0  0
  4  5  1  0  0  0  0
  4 17  1  0  0  0  0
  4 36  1  1  0  0  0
  4  6  1  0  0  0  0
  5 16  1  0  0  0  0
  5 38  1  6  0  0  0
  6  9  1  0  0  0  0
  6 37  1  6  0  0  0
  7 12  2  0  0  0  0
  7 20  1  0  0  0  0
  8  9  1  0  0  0  0
  9 29  1  1  0  0  0
 10 18  2  0  0  0  0
 11 22  1  0  0  0  0
 11 24  2  0  0  0  0
 12 19  1  0  0  0  0
 13 14  1  0  0  0  0
 14 23  2  0  0  0  0
 14 30  1  0  0  0  0
 15 16  1  0  0  0  0
 17 20  1  0  0  0  0
 18 19  1  0  0  0  0
 19 27  2  0  0  0  0
 21 25  1  0  0  0  0
 21 26  2  0  0  0  0
 21 32  1  0  0  0  0
 22 25  1  0  0  0  0
 30 33  1  0  0  0  0
 32 34  1  0  0  0  0
 33 35  1  0  0  0  0
M  END
> <ID>
10987

> <Formula>
C27H36O8

> <FW>
488.5699

> <DSSTox_CID>
25502

> <DSSTox_RID>
80919

> <DSSTox_GSID>
45502

> <DSSTox_FileID_Sort>
5600

> <TS_ChemName>
Prednicarbate

> <TS_ChemName_Synonyms>


> <TS_CASRN>
73771-04-7

> <CASRN_ChemName_Relationship>
primary

> <TS_Description>
single chemical compound

> <ChemNote>
stereochem; tautomers

> <STRUCTURE_Shown>
tested chemical

> <STRUCTURE_Formula>
C27H36O8

> <STRUCTURE_MW>
488.5699

> <STRUCTURE_ChemType>
defined organic

> <STRUCTURE_DefinedOrganicForm>
parent

> <STRUCTURE_IUPAC>
(11beta)-17-[(ethoxycarbonyl)oxy]-11-hydroxy-3,20-dioxopregna-1,4-dien-21-yl propanoate

> <STRUCTURE_SMILES>
CCC(=O)OCC(=O)[C@@]4(OC(=O)OCC)CC[C@@H]3[C@]4(C)C[C@H](O)[C@H]2[C@H]3CCC1=CC(=O)C=C[C@@]12C

> <STRUCTURE_SMILES_Desalt>
CCC(=O)OCC(=O)[C@@]4(OC(=O)OCC)CC[C@@H]3[C@]4(C)C[C@H](O)[C@H]2[C@H]3CCC1=CC(=O)C=C[C@@]12C

> <Substance_modify_yyyymmdd>
20100107

$$$$
