7378-99-6
ChemmineR-0915142007XD

 11 10  0  0  0  0  0  0  0  0  1 V2000
    2.2989   -1.9972    0.0000 C   0  0  0  0  0  0  0  0  0  0  0  0
    3.4640   -1.3419    0.0000 C   0  0  0  0  0  0  0  0  0  0  0  0
    4.6186   -1.9972    0.0000 C   0  0  0  0  0  0  0  0  0  0  0  0
    5.7837   -1.3419    0.0000 C   0  0  0  0  0  0  0  0  0  0  0  0
    6.9383   -1.9972    0.0000 C   0  0  0  0  0  0  0  0  0  0  0  0
    8.1034   -1.3419    0.0000 C   0  0  0  0  0  0  0  0  0  0  0  0
    9.2580   -1.9972    0.0000 C   0  0  0  0  0  0  0  0  0  0  0  0
   10.4023   -1.3419    0.0000 C   0  0  0  0  0  0  0  0  0  0  0  0
    1.1443   -1.3419    0.0000 N   0  0  0  0  0  0  0  0  0  0  0  0
    1.1443    0.0000    0.0000 C   0  0  0  0  0  0  0  0  0  0  0  0
    0.0000   -1.9972    0.0000 C   0  0  0  0  0  0  0  0  0  0  0  0
  1  2  1  0  0  0  0
  1  9  1  0  0  0  0
  2  3  1  0  0  0  0
  3  4  1  0  0  0  0
  4  5  1  0  0  0  0
  5  6  1  0  0  0  0
  6  7  1  0  0  0  0
  7  8  1  0  0  0  0
  9 10  1  0  0  0  0
  9 11  1  0  0  0  0
M  END
> <ID>
7109

> <Formula>
C10H23N

> <FW>
157.2963

> <DSSTox_CID>
16299

> <DSSTox_RID>
79278

> <DSSTox_GSID>
36299

> <DSSTox_FileID_Sort>
3960

> <TS_ChemName>
N,N-Dimethyloctylamine

> <TS_ChemName_Synonyms>


> <TS_CASRN>
7378-99-6

> <CASRN_ChemName_Relationship>
primary

> <TS_Description>
single chemical compound

> <ChemNote>


> <STRUCTURE_Shown>
tested chemical

> <STRUCTURE_Formula>
C10H23N

> <STRUCTURE_MW>
157.2963

> <STRUCTURE_ChemType>
defined organic

> <STRUCTURE_DefinedOrganicForm>
parent

> <STRUCTURE_IUPAC>
N,N-dimethyloctan-1-amine

> <STRUCTURE_SMILES>
CN(C)CCCCCCCC

> <STRUCTURE_SMILES_Desalt>
CN(C)CCCCCCCC

> <Substance_modify_yyyymmdd>
20080429

$$$$
