738-70-5
ChemmineR-0915142007XD

 21 22  0  0  0  0  0  0  0  0  1 V2000
    9.2029   -2.0002    0.0000 N   0  0  0  0  0  0  0  0  0  0  0  0
    8.0421   -1.3162    0.0000 C   0  0  0  0  0  0  0  0  0  0  0  0
    6.9229   -2.0002    0.0000 C   0  0  0  0  0  0  0  0  0  0  0  0
    9.2029   -3.3163    0.0000 C   0  0  0  0  0  0  0  0  0  0  0  0
    2.3214   -3.2853    0.0000 C   0  0  0  0  0  0  0  0  0  0  0  0
    3.4718   -3.9589    0.0000 C   0  0  0  0  0  0  0  0  0  0  0  0
    2.3214   -1.9691    0.0000 C   0  0  0  0  0  0  0  0  0  0  0  0
    8.0421   -3.9589    0.0000 N   0  0  0  0  0  0  0  0  0  0  0  0
    4.6014   -1.9898    0.0000 C   0  0  0  0  0  0  0  0  0  0  0  0
    5.7622   -1.3162    0.0000 C   0  0  0  0  0  0  0  0  0  0  0  0
    6.9229   -3.3163    0.0000 C   0  0  0  0  0  0  0  0  0  0  0  0
    4.6014   -3.3060    0.0000 C   0  0  0  0  0  0  0  0  0  0  0  0
    3.4614   -1.3162    0.0000 C   0  0  0  0  0  0  0  0  0  0  0  0
    8.0421    0.0000    0.0000 N   0  0  0  0  0  0  0  0  0  0  0  0
   10.3636   -3.9900    0.0000 N   0  0  0  0  0  0  0  0  0  0  0  0
    1.1607   -3.9589    0.0000 O   0  0  0  0  0  0  0  0  0  0  0  0
    3.4718   -5.2751    0.0000 O   0  0  0  0  0  0  0  0  0  0  0  0
    1.1607   -1.2851    0.0000 O   0  0  0  0  0  0  0  0  0  0  0  0
    0.0000   -3.2853    0.0000 C   0  0  0  0  0  0  0  0  0  0  0  0
    2.2489   -5.9694    0.0000 C   0  0  0  0  0  0  0  0  0  0  0  0
    0.0000   -1.9587    0.0000 C   0  0  0  0  0  0  0  0  0  0  0  0
  1  2  2  0  0  0  0
  1  4  1  0  0  0  0
  2  3  1  0  0  0  0
  2 14  1  0  0  0  0
  3 10  1  0  0  0  0
  3 11  2  0  0  0  0
  4  8  2  0  0  0  0
  4 15  1  0  0  0  0
  5  7  2  0  0  0  0
  5 16  1  0  0  0  0
  5  6  1  0  0  0  0
  6 12  2  0  0  0  0
  6 17  1  0  0  0  0
  7 13  1  0  0  0  0
  7 18  1  0  0  0  0
  8 11  1  0  0  0  0
  9 10  1  0  0  0  0
  9 12  1  0  0  0  0
  9 13  2  0  0  0  0
 16 19  1  0  0  0  0
 17 20  1  0  0  0  0
 18 21  1  0  0  0  0
M  END
> <ID>
3316

> <Formula>
C14H18N4O3

> <FW>
290.3177

> <DSSTox_CID>
3712

> <DSSTox_RID>
77158

> <DSSTox_GSID>
23712

> <DSSTox_FileID_Sort>
1841

> <TS_ChemName>
Trimethoprim

> <TS_ChemName_Synonyms>


> <TS_CASRN>
738-70-5

> <CASRN_ChemName_Relationship>
primary

> <TS_Description>
single chemical compound

> <ChemNote>


> <STRUCTURE_Shown>
tested chemical

> <STRUCTURE_Formula>
C14H18N4O3

> <STRUCTURE_MW>
290.3177

> <STRUCTURE_ChemType>
defined organic

> <STRUCTURE_DefinedOrganicForm>
parent

> <STRUCTURE_IUPAC>
5-(3,4,5-trimethoxybenzyl)pyrimidine-2,4-diamine

> <STRUCTURE_SMILES>
Nc2nc(N)ncc2Cc1cc(OC)c(OC)c(OC)c1

> <STRUCTURE_SMILES_Desalt>
Nc2nc(N)ncc2Cc1cc(OC)c(OC)c(OC)c1

> <Substance_modify_yyyymmdd>
20080429

$$$$
