73803-48-2
ChemmineR-0915142007XD

 27 30  0  0  1  0  0  0  0  0  1 V2000
    7.2575   -7.7551    0.0000 N    0  0  0  0  0  0  0  0  0  0  0  0
    8.6096   -7.8200    0.0000 S    0  0  0  0  0  0  0  0  0  0  0  0
   10.1671   -7.7551    0.0000 O    0  0  0  0  0  0  0  0  0  0  0  0
    8.5663   -9.0638    0.0000 O    0  0  0  0  0  0  0  0  0  0  0  0
    8.5663   -6.4463    0.0000 C    0  0  0  0  0  0  0  0  0  0  0  0
    9.6803   -5.7974    0.0000 C    0  0  0  0  0  0  0  0  0  0  0  0
   10.8160   -6.4463    0.0000 Cl   0  0  0  0  0  0  0  0  0  0  0  0
    9.6803   -4.4886    0.0000 C    0  0  0  0  0  0  0  0  0  0  0  0
    8.5663   -3.8397    0.0000 C    0  0  0  0  0  0  0  0  0  0  0  0
    7.4306   -4.4886    0.0000 C    0  0  0  0  0  0  0  0  0  0  0  0
    7.4306   -5.7974    0.0000 C    0  0  0  0  0  0  0  0  0  0  0  0
    6.2949   -3.8397    0.0000 C    0  0  0  0  0  0  0  0  0  0  0  0
    6.2949   -2.5201    0.0000 O    0  0  0  0  0  0  0  0  0  0  0  0
    5.1592   -4.4886    0.0000 N    0  0  0  0  0  0  0  0  0  0  0  0
    4.0236   -3.8397    0.0000 N    0  0  0  0  0  0  0  0  0  0  0  0
    3.8938   -2.5418    0.0000 C    0  0  0  0  0  0  0  0  0  0  0  0
    2.6175   -2.2714    0.0000 C    0  0  0  0  0  0  0  0  0  0  0  0
    3.4503   -1.2547    0.0000 H    0  0  0  0  0  0  0  0  0  0  0  0
    1.9577   -1.1357    0.0000 C    0  0  0  0  0  0  0  0  0  0  0  0
    2.6175    0.0000    0.0000 H    0  0  0  0  0  0  0  0  0  0  0  0
    0.6490   -1.1357    0.0000 C    0  0  0  0  0  0  0  0  0  0  0  0
    0.0000   -2.2714    0.0000 C    0  0  0  0  0  0  0  0  0  0  0  0
    0.6490   -3.3854    0.0000 C    0  0  0  0  0  0  0  0  0  0  0  0
    0.6490   -1.8928    0.0000 C    0  0  0  0  0  0  0  0  0  0  0  0
    1.9577   -3.3854    0.0000 C    0  0  0  0  0  0  0  0  0  0  0  0
    1.5142   -4.6293    0.0000 H    0  0  0  0  0  0  0  0  0  0  0  0
    2.8338   -4.3697    0.0000 C    0  0  0  0  0  0  0  0  0  0  0  0
  1  2  1  0  0  0  0
  2  3  2  0  0  0  0
  2  4  2  0  0  0  0
  2  5  1  0  0  0  0
  5  6  2  0  0  0  0
  5 11  1  0  0  0  0
  6  7  1  0  0  0  0
  6  8  1  0  0  0  0
  8  9  2  0  0  0  0
  9 10  1  0  0  0  0
 10 11  2  0  0  0  0
 10 12  1  0  0  0  0
 12 13  2  0  0  0  0
 12 14  1  0  0  0  0
 14 15  1  0  0  0  0
 15 16  1  0  0  0  0
 15 27  1  0  0  0  0
 16 17  1  0  0  0  0
 17 18  1  1  0  0  0
 17 19  1  0  0  0  0
 17 25  1  0  0  0  0
 19 20  1  0  0  0  0
 19 21  1  0  0  0  0
 19 24  1  1  0  0  0
 21 22  1  0  0  0  0
 22 23  1  0  0  0  0
 23 24  1  0  0  0  0
 23 25  1  0  0  0  0
 25 26  1  1  0  0  0
 25 27  1  0  0  0  0
M  END
> <ID>
16215

> <Formula>
C16H20ClN3O3S

> <FW>
369.8663

> <DSSTox_CID>
31606

> <DSSTox_RID>
97490

> <DSSTox_GSID>
57817

> <DSSTox_FileID_Sort>
8557

> <TS_ChemName>
Tripamide

> <TS_ChemName_Synonyms>


> <TS_CASRN>
73803-48-2

> <CASRN_ChemName_Relationship>
primary

> <TS_Description>
single chemical compound

> <ChemNote>


> <STRUCTURE_Shown>
tested chemical

> <STRUCTURE_Formula>
C16H20ClN3O3S

> <STRUCTURE_MW>
369.8663

> <STRUCTURE_ChemType>
defined organic

> <STRUCTURE_DefinedOrganicForm>
parent

> <STRUCTURE_IUPAC>
4-chloro-N-[(3aR,7S,7aS)-octahydro-2H-4,7-methanoisoindol-2-yl]-3-sulfamoylbenzamide

> <STRUCTURE_SMILES>
NS(=O)(=O)c1cc(ccc1Cl)C(=O)NN3C[C@@H]4C2CC[C@@H](C2)[C@@H]4C3

> <STRUCTURE_SMILES_Desalt>
NS(=O)(=O)c1cc(ccc1Cl)C(=O)NN3C[C@@H]4C2CC[C@@H](C2)[C@@H]4C3

> <Substance_modify_yyyymmdd>
20131121

$$$$
