73816-42-9
ChemmineR-0915142007XD

 49 52  0  0  1  0  0  0  0  0  1 V2000
   18.7865   -6.4423    0.0000 O    0  0  0  0  0  0  0  0  0  0  0  0
   19.4515   -5.2785    0.0000 C    0  0  0  0  0  0  0  0  0  0  0  0
   20.7816   -5.2785    0.0000 O    0  0  0  0  0  0  0  0  0  0  0  0
   18.7865   -4.1355    0.0000 C    0  0  0  0  0  0  0  0  0  0  0  0
   19.4515   -2.9510    0.0000 C    0  0  0  0  0  0  0  0  0  0  0  0
   20.7816   -2.9510    0.0000 O    0  0  0  0  0  0  0  0  0  0  0  0
   18.7865   -1.8288    0.0000 C    0  0  0  0  0  0  0  0  0  0  0  0
   17.4565   -1.8288    0.0000 C    0  0  0  0  0  0  0  0  0  0  0  0
   16.7915   -2.9510    0.0000 C    0  0  0  0  0  0  0  0  0  0  0  0
   17.4565   -4.1355    0.0000 C    0  0  0  0  0  0  0  0  0  0  0  0
   15.4615   -2.9510    0.0000 S    0  0  0  0  0  0  0  0  0  0  0  0
   15.4615   -1.6210    0.0000 O    0  0  0  0  0  0  0  0  0  0  0  0
   15.4615   -4.3018    0.0000 O    0  0  0  0  0  0  0  0  0  0  0  0
   14.1315   -2.9510    0.0000 O    0  0  0  0  0  0  0  0  0  0  0  0
    6.8787   -3.9901    0.0000 C    0  0  0  0  0  0  0  0  0  0  0  0
    4.5927   -3.9901    0.0000 C    0  0  0  0  0  0  0  0  0  0  0  0
    6.8787   -2.6393    0.0000 C    0  0  0  0  0  0  0  0  0  0  0  0
    9.2062   -3.9901    0.0000 C    0  0  0  0  0  0  0  0  0  0  0  0
    5.7357   -4.6551    0.0000 C    0  0  0  0  0  0  0  0  0  0  0  0
    8.0217   -4.6551    0.0000 C    0  0  0  0  0  0  0  0  0  0  0  0
    9.2062   -2.6393    0.0000 C    0  0  0  0  0  0  0  0  0  0  0  0
    4.5927   -2.6393    0.0000 C    0  0  0  0  0  0  0  0  0  0  0  0
    3.4497   -4.6551    0.0000 C    0  0  0  0  0  0  0  0  0  0  0  0
    3.4497   -1.9742    0.0000 C    0  0  0  0  0  0  0  0  0  0  0  0
    2.3068   -3.9901    0.0000 C    0  0  0  0  0  0  0  0  0  0  0  0
    2.3068   -2.6393    0.0000 C    0  0  0  0  0  0  0  0  0  0  0  0
    8.0217   -1.9742    0.0000 C    0  0  0  0  0  0  0  0  0  0  0  0
    5.7357   -1.9742    0.0000 C    0  0  0  0  0  0  0  0  0  0  0  0
   10.3700   -4.6551    0.0000 C    0  0  0  0  0  0  0  0  0  0  0  0
    1.1638   -4.6551    0.0000 C    0  0  0  0  0  0  0  0  0  0  0  0
    1.1638   -1.9742    0.0000 C    0  0  0  0  0  0  0  0  0  0  0  0
    8.0217   -0.6442    0.0000 N    0  0  0  0  0  0  0  0  0  0  0  0
    8.0217   -5.9851    0.0000 O    0  0  0  0  0  0  0  0  0  0  0  0
    3.4497   -5.9851    0.0000 O    0  0  0  0  0  0  0  0  0  0  0  0
    3.4497   -0.6442    0.0000 C    0  0  0  0  0  0  0  0  0  0  0  0
    6.9410   -5.2785    0.0000 O    0  0  0  0  0  0  0  0  0  0  0  0
   10.3700   -5.9851    0.0000 O    0  0  0  0  0  0  0  0  0  0  0  0
    5.7357   -5.9851    0.0000 O    0  0  0  0  0  0  0  0  0  0  0  0
   10.3700   -1.9742    0.0000 O    0  0  0  0  0  0  0  0  0  0  0  0
    0.0000   -3.9901    0.0000 C    0  0  0  0  0  0  0  0  0  0  0  0
    0.0000   -2.6393    0.0000 C    0  0  0  0  0  0  0  0  0  0  0  0
    5.7357   -0.6442    0.0000 O    0  0  0  0  0  0  0  0  0  0  0  0
   11.5130   -4.0108    0.0000 N    0  0  0  0  0  0  0  0  0  0  0  0
    1.1638   -0.6442    0.0000 Cl   0  0  0  0  0  0  0  0  0  0  0  0
    1.1638   -5.9851    0.0000 O    0  0  0  0  0  0  0  0  0  0  0  0
    6.8787    0.0000    0.0000 C    0  0  0  0  0  0  0  0  0  0  0  0
    9.2062    0.0000    0.0000 C    0  0  0  0  0  0  0  0  0  0  0  0
    6.8995   -1.3300    0.0000 H    0  0  0  0  0  0  0  0  0  0  0  0
    4.5927   -1.3716    0.0000 H    0  0  0  0  0  0  0  0  0  0  0  0
  1  2  1  0  0  0  0
  2  3  2  0  0  0  0
  2  4  1  0  0  0  0
  4  5  2  0  0  0  0
  4 10  1  0  0  0  0
  5  6  1  0  0  0  0
  5  7  1  0  0  0  0
  7  8  2  0  0  0  0
  8  9  1  0  0  0  0
  9 10  2  0  0  0  0
  9 11  1  0  0  0  0
 11 12  1  0  0  0  0
 11 13  2  0  0  0  0
 11 14  2  0  0  0  0
 15 17  1  0  0  0  0
 15 19  1  0  0  0  0
 15 20  1  0  0  0  0
 15 36  1  6  0  0  0
 16 19  2  0  0  0  0
 16 22  1  0  0  0  0
 16 23  1  0  0  0  0
 17 27  1  0  0  0  0
 17 28  1  0  0  0  0
 17 48  1  6  0  0  0
 18 20  1  0  0  0  0
 18 21  2  0  0  0  0
 18 29  1  0  0  0  0
 19 38  1  0  0  0  0
 20 33  2  0  0  0  0
 21 39  1  0  0  0  0
 21 27  1  0  0  0  0
 22 24  1  0  0  0  0
 22 28  1  0  0  0  0
 22 49  1  6  0  0  0
 23 25  1  0  0  0  0
 23 34  2  0  0  0  0
 24 35  2  0  0  0  0
 24 26  1  0  0  0  0
 25 26  2  0  0  0  0
 25 30  1  0  0  0  0
 26 31  1  0  0  0  0
 27 32  1  6  0  0  0
 28 42  1  6  0  0  0
 29 37  2  0  0  0  0
 29 43  1  0  0  0  0
 30 40  2  0  0  0  0
 30 45  1  0  0  0  0
 31 44  1  0  0  0  0
 31 41  2  0  0  0  0
 32 46  1  0  0  0  0
 32 47  1  0  0  0  0
 40 41  1  0  0  0  0
M  END
> <ID>
11057

> <Formula>
C29H27ClN2O14S

> <FW>
695.0477 (218.1839+476.8637)

> <DSSTox_CID>
25596

> <DSSTox_RID>
80989

> <DSSTox_GSID>
45596

> <DSSTox_FileID_Sort>
5670

> <TS_ChemName>
Meclocycline sulfosalicylate

> <TS_ChemName_Synonyms>


> <TS_CASRN>
73816-42-9

> <CASRN_ChemName_Relationship>
primary

> <TS_Description>
single chemical compound

> <ChemNote>
stereochem; tautomers; parent [2013-58-3]

> <STRUCTURE_Shown>
tested chemical

> <STRUCTURE_Formula>
C29H27ClN2O14S

> <STRUCTURE_MW>
695.0477

> <STRUCTURE_ChemType>
defined organic

> <STRUCTURE_DefinedOrganicForm>
complex

> <STRUCTURE_IUPAC>
2-hydroxy-5-sulfobenzoic acid - (4S,4aR,5S,5aR,12aS)-7-chloro-4-(dimethylamino)-3,5,10,12,12a-pentahydroxy-6-methylidene-1,11-dioxo-1,4,4a,5,5a,6,11,12a-octahydrotetracene-2-carboxamide (1:1)

> <STRUCTURE_SMILES>
O=C(O)c1cc(ccc1O)S(=O)(=O)O.NC(=O)C=3C(=O)[C@@]4(O)C(O)=C2C(=O)c1c(O)ccc(Cl)c1C(=C)[C@H]2[C@H](O)[C@H]4[C@@H](C=3O)N(C)C

> <STRUCTURE_SMILES_Desalt>
NC(=O)C=3C(=O)[C@@]4(O)C(O)=C2C(=O)c1c(O)ccc(Cl)c1C(=C)[C@H]2[C@H](O)[C@H]4[C@@H](C=3O)N(C)C

> <Substance_modify_yyyymmdd>
20100107

$$$$
