73963-72-1
ChemmineR-0915142007XD

 27 30  0  0  0  0  0  0  0  0  1 V2000
    1.1555   -2.7012    0.0000 N   0  0  0  0  0  0  0  0  0  0  0  0
    0.6453   -0.7203    0.0000 N   0  0  0  0  0  0  0  0  0  0  0  0
    0.2101   -1.8908    0.0000 N   0  0  0  0  0  0  0  0  0  0  0  0
    2.0259   -0.7203    0.0000 N   0  0  0  0  0  0  0  0  0  0  0  0
    2.2210   -1.9959    0.0000 C   0  0  0  0  0  0  0  0  0  0  0  0
   12.6806   -0.0150    0.0000 N   0  0  0  0  0  0  0  0  0  0  0  0
   11.5251   -0.6753    0.0000 C   0  0  0  0  0  0  0  0  0  0  0  0
   13.8511   -0.6753    0.0000 C   0  0  0  0  0  0  0  0  0  0  0  0
   11.5251   -2.0109    0.0000 C   0  0  0  0  0  0  0  0  0  0  0  0
    1.1555   -4.0218    0.0000 C   0  0  0  0  0  0  0  0  0  0  0  0
   10.3696   -2.6862    0.0000 C   0  0  0  0  0  0  0  0  0  0  0  0
   15.0066    0.0000    0.0000 O   0  0  0  0  0  0  0  0  0  0  0  0
   10.3696   -0.0150    0.0000 C   0  0  0  0  0  0  0  0  0  0  0  0
   12.6806   -2.6862    0.0000 C   0  0  0  0  0  0  0  0  0  0  0  0
   13.8511   -2.0109    0.0000 C   0  0  0  0  0  0  0  0  0  0  0  0
    9.2140   -2.0109    0.0000 C   0  0  0  0  0  0  0  0  0  0  0  0
    9.2140   -0.6753    0.0000 C   0  0  0  0  0  0  0  0  0  0  0  0
    3.4515   -2.7012    0.0000 C   0  0  0  0  0  0  0  0  0  0  0  0
    8.0735   -2.7012    0.0000 O   0  0  0  0  0  0  0  0  0  0  0  0
    0.0000   -4.6971    0.0000 C   0  0  0  0  0  0  0  0  0  0  0  0
    2.2960   -4.6971    0.0000 C   0  0  0  0  0  0  0  0  0  0  0  0
    6.9180   -2.0259    0.0000 C   0  0  0  0  0  0  0  0  0  0  0  0
    4.6070   -2.0259    0.0000 C   0  0  0  0  0  0  0  0  0  0  0  0
    5.7625   -2.7012    0.0000 C   0  0  0  0  0  0  0  0  0  0  0  0
    2.2960   -6.0327    0.0000 C   0  0  0  0  0  0  0  0  0  0  0  0
    0.0000   -6.0327    0.0000 C   0  0  0  0  0  0  0  0  0  0  0  0
    1.1555   -6.6929    0.0000 C   0  0  0  0  0  0  0  0  0  0  0  0
  1  3  1  0  0  0  0
  1  5  1  0  0  0  0
  1 10  1  0  0  0  0
  2  3  2  0  0  0  0
  2  4  1  0  0  0  0
  4  5  2  0  0  0  0
  5 18  1  0  0  0  0
  6  7  1  0  0  0  0
  6  8  1  0  0  0  0
  7 13  2  0  0  0  0
  7  9  1  0  0  0  0
  8 12  2  0  0  0  0
  8 15  1  0  0  0  0
  9 11  2  0  0  0  0
  9 14  1  0  0  0  0
 10 20  1  0  0  0  0
 10 21  1  0  0  0  0
 11 16  1  0  0  0  0
 13 17  1  0  0  0  0
 14 15  1  0  0  0  0
 16 19  1  0  0  0  0
 16 17  2  0  0  0  0
 18 23  1  0  0  0  0
 19 22  1  0  0  0  0
 20 26  1  0  0  0  0
 21 25  1  0  0  0  0
 22 24  1  0  0  0  0
 23 24  1  0  0  0  0
 25 27  1  0  0  0  0
 26 27  1  0  0  0  0
M  END
> <ID>
10761

> <Formula>
C20H27N5O2

> <FW>
369.4607

> <DSSTox_CID>
25132

> <DSSTox_RID>
80693

> <DSSTox_GSID>
45132

> <DSSTox_FileID_Sort>
5375

> <TS_ChemName>
Cilostazol

> <TS_ChemName_Synonyms>


> <TS_CASRN>
73963-72-1

> <CASRN_ChemName_Relationship>
primary

> <TS_Description>
single chemical compound

> <ChemNote>


> <STRUCTURE_Shown>
tested chemical

> <STRUCTURE_Formula>
C20H27N5O2

> <STRUCTURE_MW>
369.4607

> <STRUCTURE_ChemType>
defined organic

> <STRUCTURE_DefinedOrganicForm>
parent

> <STRUCTURE_IUPAC>
6-[4-(1-cyclohexyl-1H-tetrazol-5-yl)butoxy]-3,4-dihydroquinolin-2(1H)-one

> <STRUCTURE_SMILES>
O=C1CCc2cc(ccc2N1)OCCCCc4nnnn4C3CCCCC3

> <STRUCTURE_SMILES_Desalt>
O=C1CCc2cc(ccc2N1)OCCCCc4nnnn4C3CCCCC3

> <Substance_modify_yyyymmdd>
20100107

$$$$
