7397-62-8
ChemmineR-0915142007XD

  9  8  0  0  0  0  0  0  0  0  1 V2000
    2.3204   -1.3178    0.0000 C   0  0  0  0  0  0  0  0  0  0  0  0
    2.3204    0.0000    0.0000 O   0  0  0  0  0  0  0  0  0  0  0  0
    3.4765   -1.9808    0.0000 O   0  0  0  0  0  0  0  0  0  0  0  0
    1.1561   -1.9808    0.0000 C   0  0  0  0  0  0  0  0  0  0  0  0
    0.0000   -1.3178    0.0000 O   0  0  0  0  0  0  0  0  0  0  0  0
    4.6246   -1.3178    0.0000 C   0  0  0  0  0  0  0  0  0  0  0  0
    5.7807   -1.9808    0.0000 C   0  0  0  0  0  0  0  0  0  0  0  0
    6.9449   -1.3178    0.0000 C   0  0  0  0  0  0  0  0  0  0  0  0
    8.0849   -1.9808    0.0000 C   0  0  0  0  0  0  0  0  0  0  0  0
  1  2  2  0  0  0  0
  1  3  1  0  0  0  0
  1  4  1  0  0  0  0
  3  6  1  0  0  0  0
  4  5  1  0  0  0  0
  6  7  1  0  0  0  0
  7  8  1  0  0  0  0
  8  9  1  0  0  0  0
M  END
> <ID>
10377

> <Formula>
C6H12O3

> <FW>
132.1577

> <DSSTox_CID>
24725

> <DSSTox_RID>
80425

> <DSSTox_GSID>
44725

> <DSSTox_FileID_Sort>
5107

> <TS_ChemName>
Butyl hydroxyacetate

> <TS_ChemName_Synonyms>
Butyl hydroxyacetate (Acetic acid, hydroxy-, butyl ester)

> <TS_CASRN>
7397-62-8

> <CASRN_ChemName_Relationship>
primary

> <TS_Description>
single chemical compound

> <ChemNote>


> <STRUCTURE_Shown>
tested chemical

> <STRUCTURE_Formula>
C6H12O3

> <STRUCTURE_MW>
132.1577

> <STRUCTURE_ChemType>
defined organic

> <STRUCTURE_DefinedOrganicForm>
parent

> <STRUCTURE_IUPAC>
butyl hydroxyacetate

> <STRUCTURE_SMILES>
OCC(=O)OCCCC

> <STRUCTURE_SMILES_Desalt>
OCC(=O)OCCCC

> <Substance_modify_yyyymmdd>
20091116

$$$$
