74-11-3
ChemmineR-0915142007XD

 10 10  0  0  0  0  0  0  0  0  1 V2000
    0.6640   -1.1546    0.0000 C    0  0  0  0  0  0  0  0  0  0  0  0
    0.0000    0.0000    0.0000 O    0  0  0  0  0  0  0  0  0  0  0  0
    0.0000   -2.3031    0.0000 O    0  0  0  0  0  0  0  0  0  0  0  0
    1.9921   -1.1546    0.0000 C    0  0  0  0  0  0  0  0  0  0  0  0
    2.6561    0.0000    0.0000 C    0  0  0  0  0  0  0  0  0  0  0  0
    3.9901    0.0000    0.0000 C    0  0  0  0  0  0  0  0  0  0  0  0
    4.6542   -1.1546    0.0000 C    0  0  0  0  0  0  0  0  0  0  0  0
    5.9822   -1.1546    0.0000 Cl   0  0  0  0  0  0  0  0  0  0  0  0
    3.9901   -2.3031    0.0000 C    0  0  0  0  0  0  0  0  0  0  0  0
    2.6561   -2.3031    0.0000 C    0  0  0  0  0  0  0  0  0  0  0  0
  1  2  2  0  0  0  0
  1  3  1  0  0  0  0
  1  4  1  0  0  0  0
  4  5  2  0  0  0  0
  4 10  1  0  0  0  0
  5  6  1  0  0  0  0
  6  7  2  0  0  0  0
  7  8  1  0  0  0  0
  7  9  1  0  0  0  0
  9 10  2  0  0  0  0
M  END
> <ID>
3846

> <Formula>
C7H5ClO2

> <FW>
156.5664

> <DSSTox_CID>
4772

> <DSSTox_RID>
77525

> <DSSTox_GSID>
24772

> <DSSTox_FileID_Sort>
2208

> <TS_ChemName>
4-Chlorobenzoic acid

> <TS_ChemName_Synonyms>


> <TS_CASRN>
74-11-3

> <CASRN_ChemName_Relationship>
primary

> <TS_Description>
single chemical compound

> <ChemNote>


> <STRUCTURE_Shown>
tested chemical

> <STRUCTURE_Formula>
C7H5ClO2

> <STRUCTURE_MW>
156.5664

> <STRUCTURE_ChemType>
defined organic

> <STRUCTURE_DefinedOrganicForm>
parent

> <STRUCTURE_IUPAC>
4-chlorobenzoic acid

> <STRUCTURE_SMILES>
OC(=O)c1ccc(Cl)cc1

> <STRUCTURE_SMILES_Desalt>
OC(=O)c1ccc(Cl)cc1

> <Substance_modify_yyyymmdd>
20080429

$$$$
