74-79-3
ChemmineR-0915142007XD

 12 11  0  0  1  0  0  0  0  0  1 V2000
    1.1615   -1.9820    0.0000 C   0  0  0  0  0  0  0  0  0  0  0  0
    8.0569   -1.9820    0.0000 C   0  0  0  0  0  0  0  0  0  0  0  0
    1.1615   -3.3186    0.0000 N   0  0  0  0  0  0  0  0  0  0  0  0
    9.2185   -1.3182    0.0000 O   0  0  0  0  0  0  0  0  0  0  0  0
    2.3046   -1.3182    0.0000 N   0  0  0  0  0  0  0  0  0  0  0  0
    6.9138   -1.3182    0.0000 C   0  0  0  0  0  0  0  0  0  0  0  0
    0.0000   -1.3182    0.0000 N   0  0  0  0  0  0  0  0  0  0  0  0
    8.0569   -3.3186    0.0000 O   0  0  0  0  0  0  0  0  0  0  0  0
    6.9138    0.0000    0.0000 N   0  0  0  0  0  0  0  0  0  0  0  0
    3.4477   -1.9820    0.0000 C   0  0  0  0  0  0  0  0  0  0  0  0
    5.7523   -1.9820    0.0000 C   0  0  0  0  0  0  0  0  0  0  0  0
    4.6092   -1.3182    0.0000 C   0  0  0  0  0  0  0  0  0  0  0  0
  1  3  2  0  0  0  0
  1  5  1  0  0  0  0
  1  7  1  0  0  0  0
  2  6  1  0  0  0  0
  2  4  2  0  0  0  0
  2  8  1  0  0  0  0
  5 10  1  0  0  0  0
  6 11  1  0  0  0  0
  6  9  1  6  0  0  0
 10 12  1  0  0  0  0
 11 12  1  0  0  0  0
M  END
> <ID>
8072

> <Formula>
C6H14N4O2

> <FW>
174.201

> <DSSTox_CID>
21056

> <DSSTox_RID>
79618

> <DSSTox_GSID>
41056

> <DSSTox_FileID_Sort>
4300

> <TS_ChemName>
L-Arginine

> <TS_ChemName_Synonyms>


> <TS_CASRN>
74-79-3

> <CASRN_ChemName_Relationship>
primary

> <TS_Description>
single chemical compound

> <ChemNote>
stereochem; tautomers

> <STRUCTURE_Shown>
tested chemical

> <STRUCTURE_Formula>
C6H14N4O2

> <STRUCTURE_MW>
174.201

> <STRUCTURE_ChemType>
defined organic

> <STRUCTURE_DefinedOrganicForm>
parent

> <STRUCTURE_IUPAC>
L-arginine

> <STRUCTURE_SMILES>
N[C@@H](CCCNC(=N)N)C(=O)O

> <STRUCTURE_SMILES_Desalt>
N[C@@H](CCCNC(=N)N)C(=O)O

> <Substance_modify_yyyymmdd>
20080429

$$$$
