74-96-4
ChemmineR-0915142007XD

  3  2  0  0  0  0  0  0  0  0  1 V2000
    2.3030   -0.6656    0.0000 C    0  0  0  0  0  0  0  0  0  0  0  0
    1.1515    0.0000    0.0000 C    0  0  0  0  0  0  0  0  0  0  0  0
    0.0000   -0.6656    0.0000 Br   0  0  0  0  0  0  0  0  0  0  0  0
  1  2  1  0  0  0  0
  2  3  1  0  0  0  0
M  END
> <ID>
195

> <Formula>
C2H5Br

> <FW>
108.9651

> <DSSTox_CID>
199

> <DSSTox_RID>
75428

> <DSSTox_GSID>
20199

> <DSSTox_FileID_Sort>
112

> <TS_ChemName>
Bromoethane

> <TS_ChemName_Synonyms>
Bromoethane (ethyl bromide) (Ethane, bromo-)

> <TS_CASRN>
74-96-4

> <CASRN_ChemName_Relationship>
primary

> <TS_Description>
single chemical compound

> <ChemNote>


> <STRUCTURE_Shown>
tested chemical

> <STRUCTURE_Formula>
C2H5Br

> <STRUCTURE_MW>
108.9651

> <STRUCTURE_ChemType>
defined organic

> <STRUCTURE_DefinedOrganicForm>
parent

> <STRUCTURE_IUPAC>
bromoethane

> <STRUCTURE_SMILES>
BrCC

> <STRUCTURE_SMILES_Desalt>
BrCC

> <Substance_modify_yyyymmdd>
20080429

$$$$
