74050-98-9
ChemmineR-0915142007XD

 29 32  0  0  0  0  0  0  0  0  1 V2000
    0.0000   -2.3116    0.0000 C   0  0  0  0  0  0  0  0  0  0  0  0
    0.6584   -1.1558    0.0000 C   0  0  0  0  0  0  0  0  0  0  0  0
    1.9897   -1.1558    0.0000 C   0  0  0  0  0  0  0  0  0  0  0  0
    2.6627   -2.3116    0.0000 C   0  0  0  0  0  0  0  0  0  0  0  0
    1.9897   -3.4673    0.0000 C   0  0  0  0  0  0  0  0  0  0  0  0
    0.6584   -3.4673    0.0000 C   0  0  0  0  0  0  0  0  0  0  0  0
    2.6627   -4.6085    0.0000 N   0  0  0  0  0  0  0  0  0  0  0  0
    3.9940   -4.6085    0.0000 C   0  0  0  0  0  0  0  0  0  0  0  0
    4.6524   -5.7643    0.0000 O   0  0  0  0  0  0  0  0  0  0  0  0
    4.6524   -3.4673    0.0000 N   0  0  0  0  0  0  0  0  0  0  0  0
    5.9837   -3.4673    0.0000 C   0  0  0  0  0  0  0  0  0  0  0  0
    6.6567   -4.6085    0.0000 C   0  0  0  0  0  0  0  0  0  0  0  0
    7.9734   -4.6085    0.0000 N   0  0  0  0  0  0  0  0  0  0  0  0
    8.6464   -3.4673    0.0000 C   0  0  0  0  0  0  0  0  0  0  0  0
    9.9777   -3.4673    0.0000 C   0  0  0  0  0  0  0  0  0  0  0  0
   10.6361   -4.6085    0.0000 C   0  0  0  0  0  0  0  0  0  0  0  0
   11.9674   -4.6085    0.0000 C   0  0  0  0  0  0  0  0  0  0  0  0
   12.6404   -5.7643    0.0000 O   0  0  0  0  0  0  0  0  0  0  0  0
   12.6404   -3.4673    0.0000 C   0  0  0  0  0  0  0  0  0  0  0  0
   11.9674   -2.3116    0.0000 C   0  0  0  0  0  0  0  0  0  0  0  0
   12.6404   -1.1558    0.0000 C   0  0  0  0  0  0  0  0  0  0  0  0
   13.9717   -1.1558    0.0000 C   0  0  0  0  0  0  0  0  0  0  0  0
   14.6301    0.0000    0.0000 F   0  0  0  0  0  0  0  0  0  0  0  0
   14.6301   -2.3116    0.0000 C   0  0  0  0  0  0  0  0  0  0  0  0
   13.9717   -3.4673    0.0000 C   0  0  0  0  0  0  0  0  0  0  0  0
    9.9777   -5.7643    0.0000 C   0  0  0  0  0  0  0  0  0  0  0  0
    8.6464   -5.7643    0.0000 C   0  0  0  0  0  0  0  0  0  0  0  0
    3.9940   -2.3116    0.0000 C   0  0  0  0  0  0  0  0  0  0  0  0
    4.6524   -1.1558    0.0000 O   0  0  0  0  0  0  0  0  0  0  0  0
  1  2  2  0  0  0  0
  1  6  1  0  0  0  0
  2  3  1  0  0  0  0
  3  4  2  0  0  0  0
  4  5  1  0  0  0  0
  4 28  1  0  0  0  0
  5  6  2  0  0  0  0
  5  7  1  0  0  0  0
  7  8  1  0  0  0  0
  8  9  2  0  0  0  0
  8 10  1  0  0  0  0
 10 11  1  0  0  0  0
 10 28  1  0  0  0  0
 11 12  1  0  0  0  0
 12 13  1  0  0  0  0
 13 14  1  0  0  0  0
 13 27  1  0  0  0  0
 14 15  1  0  0  0  0
 15 16  1  0  0  0  0
 16 17  1  0  0  0  0
 16 26  1  0  0  0  0
 17 18  2  0  0  0  0
 17 19  1  0  0  0  0
 19 20  2  0  0  0  0
 19 25  1  0  0  0  0
 20 21  1  0  0  0  0
 21 22  2  0  0  0  0
 22 23  1  0  0  0  0
 22 24  1  0  0  0  0
 24 25  2  0  0  0  0
 26 27  1  0  0  0  0
 28 29  2  0  0  0  0
M  END
> <ID>
2864

> <Formula>
C22H22FN3O3

> <FW>
395.4268

> <DSSTox_CID>
3188

> <DSSTox_RID>
76913

> <DSSTox_GSID>
23188

> <DSSTox_FileID_Sort>
1597

> <TS_ChemName>
Ketanserin

> <TS_ChemName_Synonyms>


> <TS_CASRN>
74050-98-9

> <CASRN_ChemName_Relationship>
primary

> <TS_Description>
single chemical compound

> <ChemNote>


> <STRUCTURE_Shown>
tested chemical

> <STRUCTURE_Formula>
C22H22FN3O3

> <STRUCTURE_MW>
395.4268

> <STRUCTURE_ChemType>
defined organic

> <STRUCTURE_DefinedOrganicForm>
parent

> <STRUCTURE_IUPAC>
3-{2-[4-(4-fluorobenzoyl)piperidin-1-yl]ethyl}quinazoline-2,4(1H,3H)-dione

> <STRUCTURE_SMILES>
Fc1ccc(cc1)C(=O)C4CCN(CCN2C(=O)c3ccccc3NC2=O)CC4

> <STRUCTURE_SMILES_Desalt>
Fc1ccc(cc1)C(=O)C4CCN(CCN2C(=O)c3ccccc3NC2=O)CC4

> <Substance_modify_yyyymmdd>
20080429

$$$$
