74051-80-2
ChemmineR-0915142007XD

 22 22  0  0  0  0  0  0  0  0  1 V2000
    8.0947   -2.0237    0.0000 C   0  0  0  0  0  0  0  0  0  0  0  0
    6.9058   -2.6940    0.0000 C   0  0  0  0  0  0  0  0  0  0  0  0
    8.0947   -0.7209    0.0000 C   0  0  0  0  0  0  0  0  0  0  0  0
    9.2204   -2.6940    0.0000 C   0  0  0  0  0  0  0  0  0  0  0  0
    5.7675   -2.0237    0.0000 C   0  0  0  0  0  0  0  0  0  0  0  0
    6.9058   -0.0379    0.0000 C   0  0  0  0  0  0  0  0  0  0  0  0
    5.7675   -0.7209    0.0000 C   0  0  0  0  0  0  0  0  0  0  0  0
    9.2204    0.0000    0.0000 O   0  0  0  0  0  0  0  0  0  0  0  0
   10.3714   -2.0237    0.0000 N   0  0  0  0  0  0  0  0  0  0  0  0
    6.9058   -4.0094    0.0000 O   0  0  0  0  0  0  0  0  0  0  0  0
    4.6039    0.0000    0.0000 C   0  0  0  0  0  0  0  0  0  0  0  0
   11.4971   -1.3660    0.0000 O   0  0  0  0  0  0  0  0  0  0  0  0
    2.3146    0.0000    0.0000 S   0  0  0  0  0  0  0  0  0  0  0  0
    3.4529   -0.6703    0.0000 C   0  0  0  0  0  0  0  0  0  0  0  0
    9.2204   -4.0474    0.0000 C   0  0  0  0  0  0  0  0  0  0  0  0
    1.1889   -0.6703    0.0000 C   0  0  0  0  0  0  0  0  0  0  0  0
   12.6480   -2.0237    0.0000 C   0  0  0  0  0  0  0  0  0  0  0  0
   10.3334   -4.7177    0.0000 C   0  0  0  0  0  0  0  0  0  0  0  0
    3.4529   -2.0237    0.0000 C   0  0  0  0  0  0  0  0  0  0  0  0
    0.0000    0.0000    0.0000 C   0  0  0  0  0  0  0  0  0  0  0  0
   12.6354   -3.3391    0.0000 C   0  0  0  0  0  0  0  0  0  0  0  0
   10.3334   -6.0458    0.0000 C   0  0  0  0  0  0  0  0  0  0  0  0
  1  2  2  0  0  0  0
  1  3  1  0  0  0  0
  1  4  1  0  0  0  0
  2  5  1  0  0  0  0
  2 10  1  0  0  0  0
  3  6  1  0  0  0  0
  3  8  2  0  0  0  0
  4  9  2  0  0  0  0
  4 15  1  0  0  0  0
  5  7  1  0  0  0  0
  6  7  1  0  0  0  0
  7 11  1  0  0  0  0
  9 12  1  0  0  0  0
 11 14  1  0  0  0  0
 12 17  1  0  0  0  0
 13 14  1  0  0  0  0
 13 16  1  0  0  0  0
 14 19  1  0  0  0  0
 15 18  1  0  0  0  0
 16 20  1  0  0  0  0
 17 21  1  0  0  0  0
 18 22  1  0  0  0  0
M  END
> <ID>
3611

> <Formula>
C17H29NO3S

> <FW>
327.4821

> <DSSTox_CID>
4304

> <DSSTox_RID>
77362

> <DSSTox_GSID>
24304

> <DSSTox_FileID_Sort>
2045

> <TS_ChemName>
Sethoxydim

> <TS_ChemName_Synonyms>


> <TS_CASRN>
74051-80-2

> <CASRN_ChemName_Relationship>
primary

> <TS_Description>
single chemical compound

> <ChemNote>


> <STRUCTURE_Shown>
tested chemical

> <STRUCTURE_Formula>
C17H29NO3S

> <STRUCTURE_MW>
327.4821

> <STRUCTURE_ChemType>
defined organic

> <STRUCTURE_DefinedOrganicForm>
parent

> <STRUCTURE_IUPAC>
2-(N-ethoxybutanimidoyl)-5-[2-(ethylsulfanyl)propyl]-3-hydroxycyclohex-2-en-1-one

> <STRUCTURE_SMILES>
CCC\C(=N\OCC)C1=C(O)CC(CC(C)SCC)CC1=O

> <STRUCTURE_SMILES_Desalt>
CCC\C(=N\OCC)C1=C(O)CC(CC(C)SCC)CC1=O

> <Substance_modify_yyyymmdd>
20080429

$$$$
