741-58-2
ChemmineR-0915142007XD

 23 23  0  0  0  0  0  0  0  0  1 V2000
    9.3037   -3.6356    0.0000 P   0  0  0  0  0  0  0  0  0  0  0  0
    9.3037   -4.9611    0.0000 O   0  0  0  0  0  0  0  0  0  0  0  0
   10.6418   -3.6356    0.0000 O   0  0  0  0  0  0  0  0  0  0  0  0
    7.9782   -3.6356    0.0000 S   0  0  0  0  0  0  0  0  0  0  0  0
    9.3037   -2.3101    0.0000 S   0  0  0  0  0  0  0  0  0  0  0  0
   11.2982   -2.4869    0.0000 C   0  0  0  0  0  0  0  0  0  0  0  0
   10.6418   -1.3255    0.0000 C   0  0  0  0  0  0  0  0  0  0  0  0
   12.6237   -2.4869    0.0000 C   0  0  0  0  0  0  0  0  0  0  0  0
   10.4650   -5.6428    0.0000 C   0  0  0  0  0  0  0  0  0  0  0  0
   11.6138   -4.9611    0.0000 C   0  0  0  0  0  0  0  0  0  0  0  0
   10.4650   -6.9683    0.0000 C   0  0  0  0  0  0  0  0  0  0  0  0
    7.3091   -2.4869    0.0000 C   0  0  0  0  0  0  0  0  0  0  0  0
    5.9710   -2.4869    0.0000 C   0  0  0  0  0  0  0  0  0  0  0  0
    5.3146   -1.3255    0.0000 N   0  0  0  0  0  0  0  0  0  0  0  0
    3.9891   -1.3255    0.0000 S   0  0  0  0  0  0  0  0  0  0  0  0
    3.9891    0.0000    0.0000 O   0  0  0  0  0  0  0  0  0  0  0  0
    3.9891   -2.6636    0.0000 O   0  0  0  0  0  0  0  0  0  0  0  0
    2.6636   -1.3255    0.0000 C   0  0  0  0  0  0  0  0  0  0  0  0
    1.9819   -2.4869    0.0000 C   0  0  0  0  0  0  0  0  0  0  0  0
    1.9819   -0.1894    0.0000 C   0  0  0  0  0  0  0  0  0  0  0  0
    0.6564   -2.4869    0.0000 C   0  0  0  0  0  0  0  0  0  0  0  0
    0.6564   -0.1894    0.0000 C   0  0  0  0  0  0  0  0  0  0  0  0
    0.0000   -1.3255    0.0000 C   0  0  0  0  0  0  0  0  0  0  0  0
  1  2  1  0  0  0  0
  1  3  1  0  0  0  0
  1  5  2  0  0  0  0
  1  4  1  0  0  0  0
  2  9  1  0  0  0  0
  3  6  1  0  0  0  0
  4 12  1  0  0  0  0
  6  7  1  0  0  0  0
  6  8  1  0  0  0  0
  9 10  1  0  0  0  0
  9 11  1  0  0  0  0
 12 13  1  0  0  0  0
 13 14  1  0  0  0  0
 14 15  1  0  0  0  0
 15 16  2  0  0  0  0
 15 17  2  0  0  0  0
 15 18  1  0  0  0  0
 18 19  2  0  0  0  0
 18 20  1  0  0  0  0
 19 21  1  0  0  0  0
 20 22  2  0  0  0  0
 21 23  2  0  0  0  0
 22 23  1  0  0  0  0
M  END
> <ID>
6419

> <Formula>
C14H24NO4PS3

> <FW>
397.5134

> <DSSTox_CID>
12329

> <DSSTox_RID>
78915

> <DSSTox_GSID>
32329

> <DSSTox_FileID_Sort>
3597

> <TS_ChemName>
Bensulide

> <TS_ChemName_Synonyms>


> <TS_CASRN>
741-58-2

> <CASRN_ChemName_Relationship>
primary

> <TS_Description>
single chemical compound

> <ChemNote>


> <STRUCTURE_Shown>
tested chemical

> <STRUCTURE_Formula>
C14H24NO4PS3

> <STRUCTURE_MW>
397.5134

> <STRUCTURE_ChemType>
defined organic

> <STRUCTURE_DefinedOrganicForm>
parent

> <STRUCTURE_IUPAC>
S-{2-[(phenylsulfonyl)amino]ethyl} O,O-dipropan-2-yl phosphorodithioate

> <STRUCTURE_SMILES>
O=S(=O)(NCCSP(=S)(OC(C)C)OC(C)C)c1ccccc1

> <STRUCTURE_SMILES_Desalt>
O=S(=O)(NCCSP(=S)(OC(C)C)OC(C)C)c1ccccc1

> <Substance_modify_yyyymmdd>
20080429

$$$$
