74103-07-4
ChemmineR-0915142007XD

 27 28  0  0  1  0  0  0  0  0  1 V2000
    6.6509   -7.3159    0.0000 N   0  0  0  0  0  0  0  0  0  0  0  0
    5.3207   -7.3159    0.0000 C   0  0  0  0  0  0  0  0  0  0  0  0
    5.3207   -8.6461    0.0000 C   0  0  0  0  0  0  0  0  0  0  0  0
    6.4769   -9.3112    0.0000 O   0  0  0  0  0  0  0  0  0  0  0  0
    3.9905   -7.3159    0.0000 C   0  0  0  0  0  0  0  0  0  0  0  0
    3.3254   -8.4722    0.0000 O   0  0  0  0  0  0  0  0  0  0  0  0
    5.3207   -5.9858    0.0000 C   0  0  0  0  0  0  0  0  0  0  0  0
    6.4769   -5.3207    0.0000 O   0  0  0  0  0  0  0  0  0  0  0  0
    0.0000   -2.0873    0.0000 O   0  0  0  0  0  0  0  0  0  0  0  0
    1.1562   -1.4223    0.0000 C   0  0  0  0  0  0  0  0  0  0  0  0
    1.1562   -0.0921    0.0000 O   0  0  0  0  0  0  0  0  0  0  0  0
    2.3022   -2.0873    0.0000 C   0  0  0  0  0  0  0  0  0  0  0  0
    2.4455   -3.4073    0.0000 C   0  0  0  0  0  0  0  0  0  0  0  0
    3.7449   -3.6836    0.0000 C   0  0  0  0  0  0  0  0  0  0  0  0
    4.4100   -2.5376    0.0000 N   0  0  0  0  0  0  0  0  0  0  0  0
    3.5198   -1.5450    0.0000 C   0  0  0  0  0  0  0  0  0  0  0  0
    4.1849   -0.3991    0.0000 C   0  0  0  0  0  0  0  0  0  0  0  0
    5.4844   -0.6753    0.0000 C   0  0  0  0  0  0  0  0  0  0  0  0
    5.6277   -1.9953    0.0000 C   0  0  0  0  0  0  0  0  0  0  0  0
    6.7736   -2.6603    0.0000 C   0  0  0  0  0  0  0  0  0  0  0  0
    6.7736   -3.9905    0.0000 O   0  0  0  0  0  0  0  0  0  0  0  0
    7.9299   -1.9953    0.0000 C   0  0  0  0  0  0  0  0  0  0  0  0
    7.9299   -0.6651    0.0000 C   0  0  0  0  0  0  0  0  0  0  0  0
    9.0759    0.0000    0.0000 C   0  0  0  0  0  0  0  0  0  0  0  0
   10.2321   -0.6651    0.0000 C   0  0  0  0  0  0  0  0  0  0  0  0
   10.2321   -1.9953    0.0000 C   0  0  0  0  0  0  0  0  0  0  0  0
    9.0759   -2.6603    0.0000 C   0  0  0  0  0  0  0  0  0  0  0  0
  1  2  1  0  0  0  0
  2  3  1  0  0  0  0
  2  5  1  0  0  0  0
  2  7  1  0  0  0  0
  3  4  1  0  0  0  0
  5  6  1  0  0  0  0
  7  8  1  0  0  0  0
  9 10  1  0  0  0  0
 10 11  2  0  0  0  0
 12 10  1  1  0  0  0
 12 13  1  0  0  0  0
 12 16  1  0  0  0  0
 13 14  1  0  0  0  0
 14 15  1  0  0  0  0
 15 16  1  0  0  0  0
 15 19  1  0  0  0  0
 16 17  2  0  0  0  0
 17 18  1  0  0  0  0
 18 19  2  0  0  0  0
 19 20  1  0  0  0  0
 20 21  2  0  0  0  0
 20 22  1  0  0  0  0
 22 23  2  0  0  0  0
 22 27  1  0  0  0  0
 23 24  1  0  0  0  0
 24 25  2  0  0  0  0
 25 26  1  0  0  0  0
 26 27  2  0  0  0  0
M  END
> <ID>
11058

> <Formula>
C19H24N2O6

> <FW>
376.4037 (121.1350+255.2686)

> <DSSTox_CID>
25597

> <DSSTox_RID>
80990

> <DSSTox_GSID>
45597

> <DSSTox_FileID_Sort>
5671

> <TS_ChemName>
Ketorolac tromethamine

> <TS_ChemName_Synonyms>


> <TS_CASRN>
74103-07-4

> <CASRN_ChemName_Relationship>
primary

> <TS_Description>
single chemical compound

> <ChemNote>
parent [74103-06-3]

> <STRUCTURE_Shown>
tested chemical

> <STRUCTURE_Formula>
C19H24N2O6

> <STRUCTURE_MW>
376.4037

> <STRUCTURE_ChemType>
defined organic

> <STRUCTURE_DefinedOrganicForm>
complex

> <STRUCTURE_IUPAC>
(1R)-5-benzoyl-2,3-dihydro-1H-pyrrolizine-1-carboxylic acid - 2-amino-2-(hydroxymethyl)propane-1,3-diol (1:1)

> <STRUCTURE_SMILES>
OCC(N)(CO)CO.O=C(O)[C@@H]1CCn2c(ccc12)C(=O)c3ccccc3

> <STRUCTURE_SMILES_Desalt>
O=C(O)[C@@H]1CCn2c(ccc12)C(=O)c3ccccc3

> <Substance_modify_yyyymmdd>
20100107

$$$$
