74115-24-5
ChemmineR-0915142007XD

 20 22  0  0  0  0  0  0  0  0  1 V2000
    3.9902   -2.3559    0.0000 C    0  0  0  0  0  0  0  0  0  0  0  0
    6.6326   -2.3347    0.0000 C    0  0  0  0  0  0  0  0  0  0  0  0
    4.6481   -3.5020    0.0000 N    0  0  0  0  0  0  0  0  0  0  0  0
    5.9640   -3.5020    0.0000 N    0  0  0  0  0  0  0  0  0  0  0  0
    4.6481   -1.1992    0.0000 N    0  0  0  0  0  0  0  0  0  0  0  0
    5.9746   -1.1992    0.0000 N    0  0  0  0  0  0  0  0  0  0  0  0
    2.6636   -2.3559    0.0000 C    0  0  0  0  0  0  0  0  0  0  0  0
    7.9485   -2.3347    0.0000 C    0  0  0  0  0  0  0  0  0  0  0  0
    8.6276   -1.1992    0.0000 C    0  0  0  0  0  0  0  0  0  0  0  0
    2.0057   -1.2098    0.0000 C    0  0  0  0  0  0  0  0  0  0  0  0
    2.6636   -0.0424    0.0000 Cl   0  0  0  0  0  0  0  0  0  0  0  0
    7.9485    0.0000    0.0000 Cl   0  0  0  0  0  0  0  0  0  0  0  0
    1.9845   -3.5232    0.0000 C    0  0  0  0  0  0  0  0  0  0  0  0
    8.6276   -3.4914    0.0000 C    0  0  0  0  0  0  0  0  0  0  0  0
    0.6686   -1.2098    0.0000 C    0  0  0  0  0  0  0  0  0  0  0  0
    9.9435   -1.1992    0.0000 C    0  0  0  0  0  0  0  0  0  0  0  0
    9.9435   -3.4914    0.0000 C    0  0  0  0  0  0  0  0  0  0  0  0
    0.6686   -3.5232    0.0000 C    0  0  0  0  0  0  0  0  0  0  0  0
   10.6121   -2.3347    0.0000 C    0  0  0  0  0  0  0  0  0  0  0  0
    0.0000   -2.3665    0.0000 C    0  0  0  0  0  0  0  0  0  0  0  0
  1  3  1  0  0  0  0
  1  5  2  0  0  0  0
  1  7  1  0  0  0  0
  2  6  2  0  0  0  0
  2  8  1  0  0  0  0
  2  4  1  0  0  0  0
  3  4  2  0  0  0  0
  5  6  1  0  0  0  0
  7 10  1  0  0  0  0
  7 13  2  0  0  0  0
  8  9  2  0  0  0  0
  8 14  1  0  0  0  0
  9 12  1  0  0  0  0
  9 16  1  0  0  0  0
 10 11  1  0  0  0  0
 10 15  2  0  0  0  0
 13 18  1  0  0  0  0
 14 17  2  0  0  0  0
 15 20  1  0  0  0  0
 16 19  2  0  0  0  0
 17 19  1  0  0  0  0
 18 20  2  0  0  0  0
M  END
> <ID>
3406

> <Formula>
C14H8Cl2N4

> <FW>
303.1461

> <DSSTox_CID>
3881

> <DSSTox_RID>
77217

> <DSSTox_GSID>
23881

> <DSSTox_FileID_Sort>
1900

> <TS_ChemName>
Clofentezine

> <TS_ChemName_Synonyms>
Clofentezine (Apollo)

> <TS_CASRN>
74115-24-5

> <CASRN_ChemName_Relationship>
primary

> <TS_Description>
single chemical compound

> <ChemNote>


> <STRUCTURE_Shown>
tested chemical

> <STRUCTURE_Formula>
C14H8Cl2N4

> <STRUCTURE_MW>
303.1461

> <STRUCTURE_ChemType>
defined organic

> <STRUCTURE_DefinedOrganicForm>
parent

> <STRUCTURE_IUPAC>
3,6-bis(2-chlorophenyl)-1,2,4,5-tetrazine

> <STRUCTURE_SMILES>
Clc3ccccc3c1nnc(nn1)c2ccccc2Cl

> <STRUCTURE_SMILES_Desalt>
Clc3ccccc3c1nnc(nn1)c2ccccc2Cl

> <Substance_modify_yyyymmdd>
20080429

$$$$
