74135-10-7
ChemmineR-0915142007XD

 55 48  0  0  1  0  0  0  0  0  3 V2000
    9.8500   -6.0404    0.0000 C    0  0  0  0  0  0  0  0  0  0  0  0
    7.0700   -6.0919    0.0000 C    0  0  0  0  0  0  0  0  0  0  0  0
   10.2447   -7.3103    0.0000 C    0  0  0  0  0  0  0  0  0  0  0  0
    5.9203   -6.7612    0.0000 C    0  0  0  0  0  0  0  0  0  0  0  0
   10.9311   -5.2510    0.0000 O    0  0  0  0  0  0  0  0  0  0  0  0
    8.5630   -6.8984    0.0000 O    0  0  0  0  0  0  0  0  0  0  0  0
    4.7706   -6.0919    0.0000 C    0  0  0  0  0  0  0  0  0  0  0  0
    7.0700   -4.7534    0.0000 O    0  0  0  0  0  0  0  0  0  0  0  0
   11.5832   -7.3103    0.0000 C    0  0  0  0  0  0  0  0  0  0  0  0
    4.7706   -4.7534    0.0000 C    0  0  0  0  0  0  0  0  0  0  0  0
   11.9950   -6.0404    0.0000 C    0  0  0  0  0  0  0  0  0  0  0  0
    5.9203   -4.1013    0.0000 C    0  0  0  0  0  0  0  0  0  0  0  0
    8.9748   -5.0623    0.0000 C    0  0  0  0  0  0  0  0  0  0  0  0
    9.4725   -8.3742    0.0000 O    0  0  0  0  0  0  0  0  0  0  0  0
    5.9203   -8.0825    0.0000 O    0  0  0  0  0  0  0  0  0  0  0  0
    3.6208   -6.7612    0.0000 O    0  0  0  0  0  0  0  0  0  0  0  0
   12.3554   -8.3742    0.0000 O    0  0  0  0  0  0  0  0  0  0  0  0
    3.6208   -4.1013    0.0000 O    0  0  0  0  0  0  0  0  0  0  0  0
   13.2477   -5.6457    0.0000 C    0  0  0  0  0  0  0  0  0  0  0  0
    5.9203   -2.7800    0.0000 C    0  0  0  0  0  0  0  0  0  0  0  0
    9.3524   -3.9297    0.0000 O    0  0  0  0  0  0  0  0  0  0  0  0
   14.2259   -6.5209    0.0000 O    0  0  0  0  0  0  0  0  0  0  0  0
    4.7706   -2.1107    0.0000 O    0  0  0  0  0  0  0  0  0  0  0  0
    4.7706   -0.7722    0.0000 S    0  0  0  0  0  0  0  0  0  0  0  0
    3.6208   -0.1201    0.0000 O    0  0  0  0  0  0  0  0  0  0  0  0
    5.9203   -0.1201    0.0000 O    0  5  0  0  0  0  0  0  0  0  0  0
    2.4711   -4.7706    0.0000 S    0  0  0  0  0  0  0  0  0  0  0  0
    2.4711   -6.1091    0.0000 O    0  0  0  0  0  0  0  0  0  0  0  0
    1.3042   -4.1013    0.0000 O    0  5  0  0  0  0  0  0  0  0  0  0
    3.6208   -8.0825    0.0000 S    0  0  0  0  0  0  0  0  0  0  0  0
    4.7706   -8.7517    0.0000 O    0  0  0  0  0  0  0  0  0  0  0  0
    2.4711   -8.7517    0.0000 O    0  5  0  0  0  0  0  0  0  0  0  0
    7.0700   -8.7517    0.0000 S    0  0  0  0  0  0  0  0  0  0  0  0
    8.2198   -8.0825    0.0000 O    0  0  0  0  0  0  0  0  0  0  0  0
    7.0700  -10.0731    0.0000 O    0  5  0  0  0  0  0  0  0  0  0  0
    9.9873   -9.5926    0.0000 S    0  0  0  0  0  0  0  0  0  0  0  0
   11.3258   -9.7299    0.0000 O    0  0  0  0  0  0  0  0  0  0  0  0
    9.2151  -10.6565    0.0000 O    0  5  0  0  0  0  0  0  0  0  0  0
   13.6939   -8.2369    0.0000 S    0  0  0  0  0  0  0  0  0  0  0  0
   14.0714   -7.3274    0.0000 O    0  0  0  0  0  0  0  0  0  0  0  0
   14.4661   -9.3009    0.0000 O    0  5  0  0  0  0  0  0  0  0  0  0
   15.4957   -6.1091    0.0000 S    0  0  0  0  0  0  0  0  0  0  0  0
   15.7703   -4.7877    0.0000 O    0  0  0  0  0  0  0  0  0  0  0  0
   16.4910   -6.9842    0.0000 O    0  5  0  0  0  0  0  0  0  0  0  0
   10.6565   -3.6551    0.0000 S    0  0  0  0  0  0  0  0  0  0  0  0
   11.0684   -2.4024    0.0000 O    0  0  0  0  0  0  0  0  0  0  0  0
   11.5317   -4.6333    0.0000 O    0  5  0  0  0  0  0  0  0  0  0  0
    7.2588    0.0000    0.0000 Na   0  3  0  0  0  0  0  0  0  0  0  0
    0.0000   -4.0841    0.0000 Na   0  3  0  0  0  0  0  0  0  0  0  0
    1.5444   -9.5411    0.0000 Na   0  3  0  0  0  0  0  0  0  0  0  0
    8.0139   -9.2322    0.0000 Na   0  3  0  0  0  0  0  0  0  0  0  0
   10.9483  -10.9826    0.0000 Na   0  3  0  0  0  0  0  0  0  0  0  0
   14.8608   -7.8937    0.0000 Na   0  3  0  0  0  0  0  0  0  0  0  0
   17.1603   -5.3368    0.0000 Na   0  3  0  0  0  0  0  0  0  0  0  0
   12.7672   -3.2948    0.0000 Na   0  3  0  0  0  0  0  0  0  0  0  0
  1  3  1  0  0  0  0
  1  5  1  0  0  0  0
  1  6  1  6  0  0  0
  1 13  1  1  0  0  0
  2  6  1  6  0  0  0
  2  4  1  0  0  0  0
  2  8  1  0  0  0  0
  3  9  1  0  0  0  0
  3 14  1  6  0  0  0
  4  7  1  0  0  0  0
  4 15  1  6  0  0  0
  5 11  1  0  0  0  0
  7 16  1  1  0  0  0
  7 10  1  0  0  0  0
  8 12  1  0  0  0  0
  9 17  1  1  0  0  0
  9 11  1  0  0  0  0
 10 12  1  0  0  0  0
 10 18  1  6  0  0  0
 11 19  1  6  0  0  0
 12 20  1  1  0  0  0
 13 21  1  0  0  0  0
 14 36  1  0  0  0  0
 15 33  1  0  0  0  0
 16 30  1  0  0  0  0
 17 39  1  0  0  0  0
 18 27  1  0  0  0  0
 19 22  1  0  0  0  0
 20 23  1  0  0  0  0
 21 45  1  0  0  0  0
 22 42  1  0  0  0  0
 23 24  1  0  0  0  0
 24 25  2  0  0  0  0
 24 26  1  0  0  0  0
 27 28  2  0  0  0  0
 27 29  1  0  0  0  0
 30 31  2  0  0  0  0
 30 32  1  0  0  0  0
 33 34  2  0  0  0  0
 33 35  1  0  0  0  0
 36 37  2  0  0  0  0
 36 38  1  0  0  0  0
 39 40  2  0  0  0  0
 39 41  1  0  0  0  0
 42 43  2  0  0  0  0
 42 44  1  0  0  0  0
 45 46  2  0  0  0  0
 45 47  1  0  0  0  0
M  END
> <ID>
14053

> <Formula>
C12H14Na8O27S8

> <FW>
1030.6615 (846.7477+22.9892+22.9892+22.9892+22.9892+22.9892+22.9892+22.9892+22.9892)

> <DSSTox_CID>
28995

> <DSSTox_RID>
83260

> <DSSTox_GSID>
49069

> <DSSTox_FileID_Sort>
7935

> <TS_ChemName>
Sucrose octasulfate, sodium salt

> <TS_ChemName_Synonyms>


> <TS_CASRN>
74135-10-7

> <CASRN_ChemName_Relationship>
primary

> <TS_Description>
single chemical compound

> <ChemNote>


> <STRUCTURE_Shown>
tested chemical

> <STRUCTURE_Formula>
C12H14Na8O27S8

> <STRUCTURE_MW>
1030.6615

> <STRUCTURE_ChemType>
defined organic

> <STRUCTURE_DefinedOrganicForm>
salt

> <STRUCTURE_IUPAC>
octasodium 1,3,4,6-tetra-O-sulfinato-beta-D-fructofuranosyl 2,3,4,6-tetra-O-sulfinato-alpha-D-glucopyranoside

> <STRUCTURE_SMILES>
[Na+].[Na+].[Na+].[Na+].[Na+].[Na+].[Na+].[Na+].[O-]S(=O)O[C@H]1[C@H](O[C@H](COS([O-])=O)[C@@H](OS([O-])=O)[C@@H]1OS([O-])=O)O[C@]2(COS([O-])=O)O[C@H](COS([O-])=O)[C@@H](OS([O-])=O)[C@@H]2OS([O-])=O

> <STRUCTURE_SMILES_Desalt>
O=S(O)O[C@H]1[C@H](O[C@H](COS(=O)O)[C@@H](OS(=O)O)[C@@H]1OS(=O)O)O[C@]2(COS(=O)O)O[C@H](COS(=O)O)[C@@H](OS(=O)O)[C@@H]2OS(=O)O

> <Substance_modify_yyyymmdd>
20111204

$$$$
