742-20-1
ChemmineR-0915142007XD

 23 25  0  0  0  0  0  0  0  0  1 V2000
    7.3682   -5.6830    0.0000 C    0  0  0  0  0  0  0  0  0  0  0  0
    8.0329   -6.8346    0.0000 S    0  0  0  0  0  0  0  0  0  0  0  0
    8.6977   -7.9861    0.0000 N    0  0  0  0  0  0  0  0  0  0  0  0
    6.8814   -7.4993    0.0000 O    0  0  0  0  0  0  0  0  0  0  0  0
    9.1845   -6.1698    0.0000 O    0  0  0  0  0  0  0  0  0  0  0  0
    8.0329   -4.5314    0.0000 C    0  0  0  0  0  0  0  0  0  0  0  0
    9.3624   -4.5314    0.0000 Cl   0  0  0  0  0  0  0  0  0  0  0  0
    7.3682   -3.3798    0.0000 C    0  0  0  0  0  0  0  0  0  0  0  0
    6.0388   -3.3798    0.0000 C    0  0  0  0  0  0  0  0  0  0  0  0
    5.3740   -4.5314    0.0000 C    0  0  0  0  0  0  0  0  0  0  0  0
    6.0388   -5.6830    0.0000 C    0  0  0  0  0  0  0  0  0  0  0  0
    4.0446   -4.5314    0.0000 S    0  0  0  0  0  0  0  0  0  0  0  0
    4.2693   -5.8421    0.0000 O    0  0  0  0  0  0  0  0  0  0  0  0
    2.7900   -4.9808    0.0000 O    0  0  0  0  0  0  0  0  0  0  0  0
    3.3798   -3.3798    0.0000 N    0  0  0  0  0  0  0  0  0  0  0  0
    4.0446   -2.2283    0.0000 C    0  0  0  0  0  0  0  0  0  0  0  0
    3.3798   -1.0767    0.0000 C    0  0  0  0  0  0  0  0  0  0  0  0
    2.0504   -1.0767    0.0000 C    0  0  0  0  0  0  0  0  0  0  0  0
    1.2639    0.0000    0.0000 C    0  0  0  0  0  0  0  0  0  0  0  0
    0.0000   -0.4119    0.0000 C    0  0  0  0  0  0  0  0  0  0  0  0
    0.0000   -1.7414    0.0000 C    0  0  0  0  0  0  0  0  0  0  0  0
    1.2639   -2.1534    0.0000 C    0  0  0  0  0  0  0  0  0  0  0  0
    5.3740   -2.2283    0.0000 N    0  0  0  0  0  0  0  0  0  0  0  0
  1  2  1  0  0  0  0
  1  6  2  0  0  0  0
  1 11  1  0  0  0  0
  2  3  1  0  0  0  0
  2  4  2  0  0  0  0
  2  5  2  0  0  0  0
  6  7  1  0  0  0  0
  6  8  1  0  0  0  0
  8  9  2  0  0  0  0
  9 10  1  0  0  0  0
  9 23  1  0  0  0  0
 10 11  2  0  0  0  0
 10 12  1  0  0  0  0
 12 13  2  0  0  0  0
 12 14  2  0  0  0  0
 12 15  1  0  0  0  0
 15 16  1  0  0  0  0
 16 17  1  0  0  0  0
 16 23  1  0  0  0  0
 17 18  1  0  0  0  0
 18 19  1  0  0  0  0
 18 22  1  0  0  0  0
 19 20  1  0  0  0  0
 20 21  1  0  0  0  0
 21 22  1  0  0  0  0
M  END
> <ID>
2592

> <Formula>
C13H18ClN3O4S2

> <FW>
379.8827

> <DSSTox_CID>
2868

> <DSSTox_RID>
76765

> <DSSTox_GSID>
22868

> <DSSTox_FileID_Sort>
1449

> <TS_ChemName>
Cyclopenthiazide

> <TS_ChemName_Synonyms>


> <TS_CASRN>
742-20-1

> <CASRN_ChemName_Relationship>
primary

> <TS_Description>
single chemical compound

> <ChemNote>


> <STRUCTURE_Shown>
tested chemical

> <STRUCTURE_Formula>
C13H18ClN3O4S2

> <STRUCTURE_MW>
379.8827

> <STRUCTURE_ChemType>
defined organic

> <STRUCTURE_DefinedOrganicForm>
parent

> <STRUCTURE_IUPAC>
6-chloro-3-(cyclopentylmethyl)-3,4-dihydro-2H-1,2,4-benzothiadiazine-7-sulfonamide 1,1-dioxide

> <STRUCTURE_SMILES>
NS(=O)(=O)c3cc1c(NC(NS1(=O)=O)CC2CCCC2)cc3Cl

> <STRUCTURE_SMILES_Desalt>
NS(=O)(=O)c3cc1c(NC(NS1(=O)=O)CC2CCCC2)cc3Cl

> <Substance_modify_yyyymmdd>
20080429

$$$$
