7421-40-1
ChemmineR-0915142007XD

 46 48  0  0  1  0  0  0  0  0  2 V2000
   14.8978   -0.1341    0.0000 Na   0  3  0  0  0  0  0  0  0  0  0  0
    1.1918   -3.5010    0.0000 Na   0  3  0  0  0  0  0  0  0  0  0  0
   10.3242   -4.8567    0.0000 C    0  0  0  0  0  0  0  0  0  0  0  0
    9.1770   -6.8381    0.0000 C    0  0  0  0  0  0  0  0  0  0  0  0
   10.3242   -6.2124    0.0000 C    0  0  0  0  0  0  0  0  0  0  0  0
    6.8679   -6.8381    0.0000 C    0  0  0  0  0  0  0  0  0  0  0  0
    8.0150   -6.2124    0.0000 C    0  0  0  0  0  0  0  0  0  0  0  0
    9.1770   -4.2012    0.0000 C    0  0  0  0  0  0  0  0  0  0  0  0
    8.0150   -4.8567    0.0000 C    0  0  0  0  0  0  0  0  0  0  0  0
    6.8679   -8.2236    0.0000 C    0  0  0  0  0  0  0  0  0  0  0  0
   11.4713   -4.2012    0.0000 C    0  0  0  0  0  0  0  0  0  0  0  0
    5.7059   -8.8940    0.0000 C    0  0  0  0  0  0  0  0  0  0  0  0
   12.6035   -2.1900    0.0000 C    0  0  0  0  0  0  0  0  0  0  0  0
   11.4713   -2.8455    0.0000 C    0  0  0  0  0  0  0  0  0  0  0  0
   12.6035   -4.8567    0.0000 C    0  0  0  0  0  0  0  0  0  0  0  0
    4.5885   -8.2236    0.0000 C    0  0  0  0  0  0  0  0  0  0  0  0
    9.1770   -8.2236    0.0000 C    0  0  0  0  0  0  0  0  0  0  0  0
   13.3782   -1.0428    0.0000 C    0  0  0  0  0  0  0  0  0  0  0  0
    5.7059   -6.2124    0.0000 C    0  0  0  0  0  0  0  0  0  0  0  0
   11.4713   -6.8381    0.0000 C    0  0  0  0  0  0  0  0  0  0  0  0
    8.0150   -8.8940    0.0000 C    0  0  0  0  0  0  0  0  0  0  0  0
    3.4116   -8.9238    0.0000 O    0  0  0  0  0  0  0  0  0  0  0  0
    2.2496   -8.2534    0.0000 C    0  0  0  0  0  0  0  0  0  0  0  0
    1.1918   -5.0503    0.0000 C    0  0  0  0  0  0  0  0  0  0  0  0
    6.8381   -4.2459    0.0000 O    0  0  0  0  0  0  0  0  0  0  0  0
   12.6035   -6.2124    0.0000 C    0  0  0  0  0  0  0  0  0  0  0  0
    4.5885   -6.8381    0.0000 C    0  0  0  0  0  0  0  0  0  0  0  0
   13.7656   -2.8455    0.0000 C    0  0  0  0  0  0  0  0  0  0  0  0
   13.7656   -4.2012    0.0000 C    0  0  0  0  0  0  0  0  0  0  0  0
   12.7823    0.0000    0.0000 O    0  0  0  0  0  0  0  0  0  0  0  0
    1.0428   -8.8642    0.0000 O    0  0  0  0  0  0  0  0  0  0  0  0
    0.0000   -4.4097    0.0000 O    0  0  0  0  0  0  0  0  0  0  0  0
    9.2068   -5.7207    0.0000 C    0  0  0  0  0  0  0  0  0  0  0  0
    6.8381   -5.4675    0.0000 C    0  0  0  0  0  0  0  0  0  0  0  0
   10.3689   -7.4489    0.0000 C    0  0  0  0  0  0  0  0  0  0  0  0
   14.6594   -1.0428    0.0000 O    0  5  0  0  0  0  0  0  0  0  0  0
    2.2496   -6.9126    0.0000 C    0  0  0  0  0  0  0  0  0  0  0  0
    1.1918   -6.3167    0.0000 C    0  0  0  0  0  0  0  0  0  0  0  0
    2.3092   -4.2906    0.0000 O    0  5  0  0  0  0  0  0  0  0  0  0
    6.2422  -10.3391    0.0000 C    0  0  0  0  0  0  0  0  0  0  0  0
    5.0801  -10.3987    0.0000 C    0  0  0  0  0  0  0  0  0  0  0  0
   11.8288   -1.0726    0.0000 C    0  0  0  0  0  0  0  0  0  0  0  0
   12.6035   -3.4563    0.0000 C    0  0  0  0  0  0  0  0  0  0  0  0
    6.7934   -9.4899    0.0000 H    0  0  0  0  0  0  0  0  0  0  0  0
   11.4564   -5.4973    0.0000 H    0  0  0  0  0  0  0  0  0  0  0  0
    8.0150   -7.4042    0.0000 H    0  0  0  0  0  0  0  0  0  0  0  0
  3  5  1  0  0  0  0
  3  8  2  0  0  0  0
  3 11  1  0  0  0  0
  4  5  1  0  0  0  0
  4 17  1  0  0  0  0
  4 33  1  1  0  0  0
  4  7  1  0  0  0  0
  5 20  1  0  0  0  0
  5 35  1  6  0  0  0
  6  7  1  0  0  0  0
  6 10  1  0  0  0  0
  6 19  1  0  0  0  0
  6 34  1  1  0  0  0
  7  9  1  0  0  0  0
  7 46  1  6  0  0  0
  8  9  1  0  0  0  0
  9 25  2  0  0  0  0
 10 12  1  0  0  0  0
 10 44  1  6  0  0  0
 10 21  1  0  0  0  0
 11 14  1  0  0  0  0
 11 15  1  0  0  0  0
 11 45  1  1  0  0  0
 12 40  1  0  0  0  0
 12 41  1  0  0  0  0
 12 16  1  0  0  0  0
 13 14  1  0  0  0  0
 13 18  1  0  0  0  0
 13 42  1  6  0  0  0
 13 28  1  0  0  0  0
 15 26  1  0  0  0  0
 15 29  1  0  0  0  0
 15 43  1  1  0  0  0
 16 27  1  0  0  0  0
 16 22  1  1  0  0  0
 17 21  1  0  0  0  0
 18 30  2  0  0  0  0
 18 36  1  0  0  0  0
 19 27  1  0  0  0  0
 20 26  1  0  0  0  0
 22 23  1  0  0  0  0
 23 31  2  0  0  0  0
 23 37  1  0  0  0  0
 24 38  1  0  0  0  0
 24 32  2  0  0  0  0
 24 39  1  0  0  0  0
 28 29  1  0  0  0  0
 37 38  1  0  0  0  0
M  END
> <ID>
11037

> <Formula>
C34H48Na2O7

> <FW>
614.7203 (22.9892+22.9892+568.7418)

> <DSSTox_CID>
25572

> <DSSTox_RID>
80969

> <DSSTox_GSID>
45572

> <DSSTox_FileID_Sort>
5650

> <TS_ChemName>
Carbenoxolone sodium

> <TS_ChemName_Synonyms>


> <TS_CASRN>
7421-40-1

> <CASRN_ChemName_Relationship>
primary

> <TS_Description>
single chemical compound

> <ChemNote>
stereochem; parent [5697-56-3]

> <STRUCTURE_Shown>
tested chemical

> <STRUCTURE_Formula>
C34H48Na2O7

> <STRUCTURE_MW>
614.7203

> <STRUCTURE_ChemType>
defined organic

> <STRUCTURE_DefinedOrganicForm>
salt

> <STRUCTURE_IUPAC>
disodium (3beta)-3-[(3-carboxylatopropanoyl)oxy]-11-oxoolean-12-en-30-oate

> <STRUCTURE_SMILES>
[Na+].[Na+].[O-]C(=O)CCC(=O)O[C@H]4CC[C@]3(C)[C@H]5C(=O)C=C1[C@@](C)(CC[C@@]2(C)CC[C@@](C)(C[C@@H]12)C([O-])=O)[C@]5(C)CC[C@H]3C4(C)C

> <STRUCTURE_SMILES_Desalt>
O=C(O)CCC(=O)O[C@H]4CC[C@]3(C)[C@H]5C(=O)C=C1[C@@](C)(CC[C@@]2(C)CC[C@@](C)(C[C@@H]12)C(=O)O)[C@]5(C)CC[C@H]3C4(C)C

> <Substance_modify_yyyymmdd>
20100107

$$$$
