74222-97-2
ChemmineR-0915142007XD

 25 26  0  0  0  0  0  0  0  0  1 V2000
    4.6047   -1.9734    0.0000 S   0  0  0  0  0  0  0  0  0  0  0  0
    5.7559   -1.3030    0.0000 N   0  0  0  0  0  0  0  0  0  0  0  0
    9.1968   -1.9608    0.0000 C   0  0  0  0  0  0  0  0  0  0  0  0
    2.3024   -1.9988    0.0000 C   0  0  0  0  0  0  0  0  0  0  0  0
    6.8944   -1.9608    0.0000 C   0  0  0  0  0  0  0  0  0  0  0  0
    3.4535   -2.6692    0.0000 C   0  0  0  0  0  0  0  0  0  0  0  0
    8.0456   -1.3030    0.0000 N   0  0  0  0  0  0  0  0  0  0  0  0
   10.3480   -1.3030    0.0000 N   0  0  0  0  0  0  0  0  0  0  0  0
    9.1968   -3.3017    0.0000 N   0  0  0  0  0  0  0  0  0  0  0  0
    2.3024   -0.6705    0.0000 C   0  0  0  0  0  0  0  0  0  0  0  0
    3.9342   -0.8223    0.0000 O   0  0  0  0  0  0  0  0  0  0  0  0
    5.2752   -3.1246    0.0000 O   0  0  0  0  0  0  0  0  0  0  0  0
   10.3480   -3.9595    0.0000 C   0  0  0  0  0  0  0  0  0  0  0  0
   11.4991   -1.9608    0.0000 C   0  0  0  0  0  0  0  0  0  0  0  0
    6.8944   -3.3017    0.0000 O   0  0  0  0  0  0  0  0  0  0  0  0
   11.4991   -3.3017    0.0000 C   0  0  0  0  0  0  0  0  0  0  0  0
    3.4535    0.0000    0.0000 O   0  0  0  0  0  0  0  0  0  0  0  0
    1.1512    0.0000    0.0000 O   0  0  0  0  0  0  0  0  0  0  0  0
    1.1512   -2.6692    0.0000 C   0  0  0  0  0  0  0  0  0  0  0  0
    3.4535   -3.9848    0.0000 C   0  0  0  0  0  0  0  0  0  0  0  0
   10.3480   -5.3005    0.0000 C   0  0  0  0  0  0  0  0  0  0  0  0
   12.6503   -1.2903    0.0000 C   0  0  0  0  0  0  0  0  0  0  0  0
    0.0000   -0.6705    0.0000 C   0  0  0  0  0  0  0  0  0  0  0  0
    1.1512   -3.9848    0.0000 C   0  0  0  0  0  0  0  0  0  0  0  0
    2.3024   -4.6427    0.0000 C   0  0  0  0  0  0  0  0  0  0  0  0
  1  2  1  0  0  0  0
  1  6  1  0  0  0  0
  1 11  2  0  0  0  0
  1 12  2  0  0  0  0
  2  5  1  0  0  0  0
  3  7  1  0  0  0  0
  3  8  2  0  0  0  0
  3  9  1  0  0  0  0
  4  6  1  0  0  0  0
  4 10  1  0  0  0  0
  4 19  2  0  0  0  0
  5  7  1  0  0  0  0
  5 15  2  0  0  0  0
  6 20  2  0  0  0  0
  8 14  1  0  0  0  0
  9 13  2  0  0  0  0
 10 17  2  0  0  0  0
 10 18  1  0  0  0  0
 13 16  1  0  0  0  0
 13 21  1  0  0  0  0
 14 22  1  0  0  0  0
 14 16  2  0  0  0  0
 18 23  1  0  0  0  0
 19 24  1  0  0  0  0
 20 25  1  0  0  0  0
 24 25  2  0  0  0  0
M  END
> <ID>
6955

> <Formula>
C15H16N4O5S

> <FW>
364.3763

> <DSSTox_CID>
14936

> <DSSTox_RID>
79224

> <DSSTox_GSID>
34936

> <DSSTox_FileID_Sort>
3906

> <TS_ChemName>
Sulfometuron-methyl

> <TS_ChemName_Synonyms>


> <TS_CASRN>
74222-97-2

> <CASRN_ChemName_Relationship>
primary

> <TS_Description>
single chemical compound

> <ChemNote>


> <STRUCTURE_Shown>
tested chemical

> <STRUCTURE_Formula>
C15H16N4O5S

> <STRUCTURE_MW>
364.3763

> <STRUCTURE_ChemType>
defined organic

> <STRUCTURE_DefinedOrganicForm>
parent

> <STRUCTURE_IUPAC>
methyl 2-{[(4,6-dimethylpyrimidin-2-yl)carbamoyl]sulfamoyl}benzoate

> <STRUCTURE_SMILES>
O=C(Nc1nc(C)cc(C)n1)NS(=O)(=O)c2ccccc2C(=O)OC

> <STRUCTURE_SMILES_Desalt>
O=C(Nc1nc(C)cc(C)n1)NS(=O)(=O)c2ccccc2C(=O)OC

> <Substance_modify_yyyymmdd>
20080429

$$$$
