74223-64-6
ChemmineR-0915142007XD

 26 27  0  0  0  0  0  0  0  0  1 V2000
   10.2093   -4.7928    0.0000 O   0  0  0  0  0  0  0  0  0  0  0  0
    8.2285   -3.6313    0.0000 O   0  0  0  0  0  0  0  0  0  0  0  0
    9.5490   -3.6313    0.0000 C   0  0  0  0  0  0  0  0  0  0  0  0
    8.2530    0.0000    0.0000 O   0  0  0  0  0  0  0  0  0  0  0  0
    8.2408   -2.6532    0.0000 O   0  0  0  0  0  0  0  0  0  0  0  0
    5.7465   -3.3134    0.0000 O   0  0  0  0  0  0  0  0  0  0  0  0
    3.4479   -5.9666    0.0000 C   0  0  0  0  0  0  0  0  0  0  0  0
    3.4479   -1.9807    0.0000 C   0  0  0  0  0  0  0  0  0  0  0  0
    3.4479   -3.3134    0.0000 N   0  0  0  0  0  0  0  0  0  0  0  0
    2.2986   -1.3083    0.0000 N   0  0  0  0  0  0  0  0  0  0  0  0
    2.2986   -3.9614    0.0000 C   0  0  0  0  0  0  0  0  0  0  0  0
    1.1493   -1.9807    0.0000 C   0  0  0  0  0  0  0  0  0  0  0  0
    1.1493   -3.3134    0.0000 N   0  0  0  0  0  0  0  0  0  0  0  0
    0.0000   -1.3083    0.0000 C   0  0  0  0  0  0  0  0  0  0  0  0
    2.2986   -5.3064    0.0000 O   0  0  0  0  0  0  0  0  0  0  0  0
    4.6094   -1.3083    0.0000 N   0  0  0  0  0  0  0  0  0  0  0  0
    5.7465   -1.9807    0.0000 C   0  0  0  0  0  0  0  0  0  0  0  0
    6.9081   -1.3083    0.0000 N   0  0  0  0  0  0  0  0  0  0  0  0
    8.2408   -1.3205    0.0000 S   0  0  0  0  0  0  0  0  0  0  0  0
   11.5664   -0.1956    0.0000 C   0  0  0  0  0  0  0  0  0  0  0  0
   12.2266   -1.3449    0.0000 C   0  0  0  0  0  0  0  0  0  0  0  0
   10.2459   -0.1834    0.0000 C   0  0  0  0  0  0  0  0  0  0  0  0
   11.5542   -2.4820    0.0000 C   0  0  0  0  0  0  0  0  0  0  0  0
    9.5735   -1.3205    0.0000 C   0  0  0  0  0  0  0  0  0  0  0  0
   10.2215   -2.4820    0.0000 C   0  0  0  0  0  0  0  0  0  0  0  0
   11.5542   -4.7928    0.0000 C   0  0  0  0  0  0  0  0  0  0  0  0
  1  3  1  0  0  0  0
  1 26  1  0  0  0  0
  2  3  2  0  0  0  0
  3 25  1  0  0  0  0
  4 19  2  0  0  0  0
  5 19  2  0  0  0  0
  6 17  2  0  0  0  0
  7 15  1  0  0  0  0
  8  9  1  0  0  0  0
  8 10  2  0  0  0  0
  8 16  1  0  0  0  0
  9 11  2  0  0  0  0
 10 12  1  0  0  0  0
 11 13  1  0  0  0  0
 11 15  1  0  0  0  0
 12 13  2  0  0  0  0
 12 14  1  0  0  0  0
 16 17  1  0  0  0  0
 17 18  1  0  0  0  0
 18 19  1  0  0  0  0
 19 24  1  0  0  0  0
 20 21  1  0  0  0  0
 20 22  2  0  0  0  0
 21 23  2  0  0  0  0
 22 24  1  0  0  0  0
 23 25  1  0  0  0  0
 24 25  2  0  0  0  0
M  END
> <ID>
3392

> <Formula>
C14H15N5O6S

> <FW>
381.3638

> <DSSTox_CID>
3864

> <DSSTox_RID>
77209

> <DSSTox_GSID>
23864

> <DSSTox_FileID_Sort>
1892

> <TS_ChemName>
Metsulfuron-methyl

> <TS_ChemName_Synonyms>
Metsulfuron-methyl (Ally)

> <TS_CASRN>
74223-64-6

> <CASRN_ChemName_Relationship>
primary

> <TS_Description>
single chemical compound

> <ChemNote>


> <STRUCTURE_Shown>
tested chemical

> <STRUCTURE_Formula>
C14H15N5O6S

> <STRUCTURE_MW>
381.3638

> <STRUCTURE_ChemType>
defined organic

> <STRUCTURE_DefinedOrganicForm>
parent

> <STRUCTURE_IUPAC>
methyl 2-{[(4-methoxy-6-methyl-1,3,5-triazin-2-yl)carbamoyl]sulfamoyl}benzoate

> <STRUCTURE_SMILES>
Cc2nc(NC(=O)NS(=O)(=O)c1ccccc1C(=O)OC)nc(OC)n2

> <STRUCTURE_SMILES_Desalt>
Cc2nc(NC(=O)NS(=O)(=O)c1ccccc1C(=O)OC)nc(OC)n2

> <Substance_modify_yyyymmdd>
20080429

$$$$
