7424-00-2
ChemmineR-0915142007XD

 13 13  0  0  0  0  0  0  0  0  1 V2000
    1.1707   -2.0140    0.0000 C    0  0  0  0  0  0  0  0  0  0  0  0
    1.1707   -0.6481    0.0000 C    0  0  0  0  0  0  0  0  0  0  0  0
    2.3276   -2.6621    0.0000 C    0  0  0  0  0  0  0  0  0  0  0  0
    0.0348   -2.6621    0.0000 N    0  0  0  0  0  0  0  0  0  0  0  0
    2.3136    0.0000    0.0000 O    0  0  0  0  0  0  0  0  0  0  0  0
    0.0000    0.0000    0.0000 O    0  0  0  0  0  0  0  0  0  0  0  0
    3.4844   -1.9791    0.0000 C    0  0  0  0  0  0  0  0  0  0  0  0
    3.4844   -0.6481    0.0000 C    0  0  0  0  0  0  0  0  0  0  0  0
    4.6272   -2.6481    0.0000 C    0  0  0  0  0  0  0  0  0  0  0  0
    4.6272    0.0000    0.0000 C    0  0  0  0  0  0  0  0  0  0  0  0
    5.7631   -1.9791    0.0000 C    0  0  0  0  0  0  0  0  0  0  0  0
    5.7631   -0.6481    0.0000 C    0  0  0  0  0  0  0  0  0  0  0  0
    6.9687    0.0000    0.0000 Cl   0  0  0  0  0  0  0  0  0  0  0  0
  1  2  1  0  0  0  0
  1  3  1  0  0  0  0
  1  4  1  0  0  0  0
  2  5  1  0  0  0  0
  2  6  2  0  0  0  0
  3  7  1  0  0  0  0
  7  8  1  0  0  0  0
  7  9  2  0  0  0  0
  8 10  2  0  0  0  0
  9 11  1  0  0  0  0
 10 12  1  0  0  0  0
 11 12  2  0  0  0  0
 12 13  1  0  0  0  0
M  END
> <ID>
10765

> <Formula>
C9H10ClNO2

> <FW>
199.6342

> <DSSTox_CID>
25139

> <DSSTox_RID>
80697

> <DSSTox_GSID>
45139

> <DSSTox_FileID_Sort>
5378

> <TS_ChemName>
Fenclonine

> <TS_ChemName_Synonyms>


> <TS_CASRN>
7424-00-2

> <CASRN_ChemName_Relationship>
primary

> <TS_Description>
single chemical compound

> <ChemNote>
racemic mixture

> <STRUCTURE_Shown>
tested chemical

> <STRUCTURE_Formula>
C9H10ClNO2

> <STRUCTURE_MW>
199.6342

> <STRUCTURE_ChemType>
defined organic

> <STRUCTURE_DefinedOrganicForm>
parent

> <STRUCTURE_IUPAC>
4-chlorophenylalanine

> <STRUCTURE_SMILES>
Clc1ccc(CC(N)C(=O)O)cc1

> <STRUCTURE_SMILES_Desalt>
Clc1ccc(CC(N)C(=O)O)cc1

> <Substance_modify_yyyymmdd>
20100107

$$$$
