7424-09-1
ChemmineR-0915142007XD

 12 13  0  0  1  0  0  0  0  0  1 V2000
    4.1914   -0.6917    0.0000 C   0  0  0  0  0  0  0  0  0  0  0  0
    4.1914   -1.8066    0.0000 C   0  0  0  0  0  0  0  0  0  0  0  0
    3.2210   -0.1239    0.0000 O   0  0  0  0  0  0  0  0  0  0  0  0
    3.2210   -2.3590    0.0000 C   0  0  0  0  0  0  0  0  0  0  0  0
    2.2506   -0.6917    0.0000 C   0  0  0  0  0  0  0  0  0  0  0  0
    2.2506   -1.8066    0.0000 C   0  0  0  0  0  0  0  0  0  0  0  0
    5.1618   -0.1239    0.0000 O   0  0  0  0  0  0  0  0  0  0  0  0
    5.1618   -2.3590    0.0000 O   0  0  0  0  0  0  0  0  0  0  0  0
    3.2210   -3.4791    0.0000 O   0  0  0  0  0  0  0  0  0  0  0  0
    1.2801   -2.3590    0.0000 O   0  0  0  0  0  0  0  0  0  0  0  0
    0.9446   -0.5936    0.0000 C   0  0  0  0  0  0  0  0  0  0  0  0
    0.0000    0.0000    0.0000 O   0  0  0  0  0  0  0  0  0  0  0  0
  1  2  1  0  0  0  0
  1  3  1  0  0  0  0
  1  7  1  0  0  0  0
  2  4  1  0  0  0  0
  2  8  1  1  0  0  0
  3  5  1  0  0  0  0
  4  6  1  0  0  0  0
  4  9  1  1  0  0  0
  5  6  1  0  0  0  0
  5 11  1  1  0  0  0
  6 10  1  6  0  0  0
  9 11  1  0  0  0  0
 11 12  2  0  0  0  0
M  END
> <ID>
13964

> <Formula>
C6H8O6

> <FW>
176.1241

> <DSSTox_CID>
28902

> <DSSTox_RID>
83170

> <DSSTox_GSID>
48976

> <DSSTox_FileID_Sort>
7847

> <TS_ChemName>
Mannuronic acid lactone

> <TS_ChemName_Synonyms>


> <TS_CASRN>
7424-09-1

> <CASRN_ChemName_Relationship>
primary

> <TS_Description>
single chemical compound

> <ChemNote>


> <STRUCTURE_Shown>
tested chemical

> <STRUCTURE_Formula>
C6H8O6

> <STRUCTURE_MW>
176.1241

> <STRUCTURE_ChemType>
defined organic

> <STRUCTURE_DefinedOrganicForm>
parent

> <STRUCTURE_IUPAC>
(1S,4S,5S,8S)-3,4,8-trihydroxy-2,6-dioxabicyclo[3.2.1]octan-7-one

> <STRUCTURE_SMILES>
OC2O[C@H]1[C@@H](O)[C@H](OC1=O)[C@@H]2O

> <STRUCTURE_SMILES_Desalt>
OC2O[C@H]1[C@@H](O)[C@H](OC1=O)[C@@H]2O

> <Substance_modify_yyyymmdd>
20111204

$$$$
