74258-86-9
ChemmineR-0915142007XD

 28 29  0  0  1  0  0  0  0  0  1 V2000
    6.6782   -5.8925    0.0000 C   0  0  0  0  0  0  0  0  0  0  0  0
    6.6782   -7.1874    0.0000 C   0  0  0  0  0  0  0  0  0  0  0  0
    5.5579   -7.8422    0.0000 C   0  0  0  0  0  0  0  0  0  0  0  0
    4.4376   -5.8780    0.0000 N   0  0  0  0  0  0  0  0  0  0  0  0
    4.4376   -7.1874    0.0000 C   0  0  0  0  0  0  0  0  0  0  0  0
    7.7985   -5.2524    0.0000 C   0  0  0  0  0  0  0  0  0  0  0  0
    8.9334   -5.8925    0.0000 N   0  0  0  0  0  0  0  0  0  0  0  0
   10.0682   -5.2524    0.0000 C   0  0  0  0  0  0  0  0  0  0  0  0
   10.0682   -3.9429    0.0000 C   0  0  0  0  0  0  0  0  0  0  0  0
    7.7985   -3.9429    0.0000 O   0  0  0  0  0  0  0  0  0  0  0  0
   11.1885   -5.8925    0.0000 C   0  0  0  0  0  0  0  0  0  0  0  0
   11.1885   -3.3027    0.0000 O   0  0  0  0  0  0  0  0  0  0  0  0
    8.9334   -3.3027    0.0000 O   0  0  0  0  0  0  0  0  0  0  0  0
   12.3234   -5.2524    0.0000 C   0  0  0  0  0  0  0  0  0  0  0  0
   12.3234   -3.9429    0.0000 C   0  0  0  0  0  0  0  0  0  0  0  0
   13.4292   -5.8925    0.0000 C   0  0  0  0  0  0  0  0  0  0  0  0
   13.4292   -3.3027    0.0000 C   0  0  0  0  0  0  0  0  0  0  0  0
   14.5495   -5.2524    0.0000 C   0  0  0  0  0  0  0  0  0  0  0  0
   14.5495   -3.9429    0.0000 C   0  0  0  0  0  0  0  0  0  0  0  0
    3.3609   -5.2087    0.0000 C   0  0  0  0  0  0  0  0  0  0  0  0
    3.3609   -3.8993    0.0000 C   0  0  0  0  0  0  0  0  0  0  0  0
    1.1203   -1.2949    0.0000 C   0  0  0  0  0  0  0  0  0  0  0  0
    2.2261   -5.8489    0.0000 O   0  0  0  0  0  0  0  0  0  0  0  0
    2.2261   -1.9496    0.0000 S   0  0  0  0  0  0  0  0  0  0  0  0
    2.2261   -3.2591    0.0000 C   0  0  0  0  0  0  0  0  0  0  0  0
    1.1203    0.0000    0.0000 O   0  0  0  0  0  0  0  0  0  0  0  0
    4.4958   -3.2591    0.0000 C   0  0  0  0  0  0  0  0  0  0  0  0
    0.0000   -1.9496    0.0000 C   0  0  0  0  0  0  0  0  0  0  0  0
  1  2  1  0  0  0  0
  1  4  1  0  0  0  0
  1  6  1  6  0  0  0
  2  3  1  0  0  0  0
  3  5  1  0  0  0  0
  4  5  1  0  0  0  0
  4 20  1  0  0  0  0
  6  7  1  0  0  0  0
  6 10  2  0  0  0  0
  7  8  1  0  0  0  0
  8  9  1  0  0  0  0
  8 11  1  6  0  0  0
  9 12  2  0  0  0  0
  9 13  1  0  0  0  0
 11 14  1  0  0  0  0
 14 15  2  0  0  0  0
 14 16  1  0  0  0  0
 15 17  1  0  0  0  0
 16 18  2  0  0  0  0
 17 19  2  0  0  0  0
 18 19  1  0  0  0  0
 20 21  1  0  0  0  0
 20 23  2  0  0  0  0
 21 25  1  0  0  0  0
 21 27  1  1  0  0  0
 22 24  1  0  0  0  0
 22 26  2  0  0  0  0
 22 28  1  0  0  0  0
 24 25  1  0  0  0  0
M  END
> <ID>
13575

> <Formula>
C20H26N2O5S

> <FW>
406.4958

> <DSSTox_CID>
28502

> <DSSTox_RID>
82774

> <DSSTox_GSID>
48576

> <DSSTox_FileID_Sort>
7451

> <TS_ChemName>
Alacepril

> <TS_ChemName_Synonyms>


> <TS_CASRN>
74258-86-9

> <CASRN_ChemName_Relationship>
primary

> <TS_Description>
single chemical compound

> <ChemNote>
stereochem

> <STRUCTURE_Shown>
tested chemical

> <STRUCTURE_Formula>
C20H26N2O5S

> <STRUCTURE_MW>
406.4958

> <STRUCTURE_ChemType>
defined organic

> <STRUCTURE_DefinedOrganicForm>
parent

> <STRUCTURE_IUPAC>
1-[(2S)-3-(acetylsulfanyl)-2-methylpropanoyl]-L-prolyl-L-phenylalanine

> <STRUCTURE_SMILES>
O=C(N[C@@H](Cc1ccccc1)C(=O)O)[C@@H]2CCCN2C(=O)[C@H](C)CSC(C)=O

> <STRUCTURE_SMILES_Desalt>
O=C(N[C@@H](Cc1ccccc1)C(=O)O)[C@@H]2CCCN2C(=O)[C@H](C)CSC(C)=O

> <Substance_modify_yyyymmdd>
20111013

$$$$
