742693-38-5
ChemmineR-0915142007XD

 27 29  0  0  1  0  0  0  0  0  1 V2000
    3.4429   -2.6599    0.0000 C    0  0  0  0  0  0  0  0  0  0  0  0
    2.2914   -2.0036    0.0000 C    0  0  0  0  0  0  0  0  0  0  0  0
    1.1400   -2.6599    0.0000 C    0  0  0  0  0  0  0  0  0  0  0  0
    2.2914   -0.6794    0.0000 C    0  0  0  0  0  0  0  0  0  0  0  0
    0.0000   -2.0036    0.0000 C    0  0  0  0  0  0  0  0  0  0  0  0
    1.1400    0.0000    0.0000 C    0  0  0  0  0  0  0  0  0  0  0  0
    0.0000   -0.6794    0.0000 C    0  0  0  0  0  0  0  0  0  0  0  0
    3.4429   -3.9956    0.0000 C    0  0  0  0  0  0  0  0  0  0  0  0
    4.6059   -4.6635    0.0000 N    0  0  0  0  0  0  0  0  0  0  0  0
    2.2914   -4.6635    0.0000 C    0  0  0  0  0  0  0  0  0  0  0  0
    4.6059   -5.9992    0.0000 C    0  0  0  0  0  0  0  0  0  0  0  0
    2.2914   -5.9992    0.0000 C    0  0  0  0  0  0  0  0  0  0  0  0
    3.4429   -6.6555    0.0000 C    0  0  0  0  0  0  0  0  0  0  0  0
    4.6059   -2.0036    0.0000 N    0  0  0  0  0  0  0  0  0  0  0  0
    5.7574   -2.6599    0.0000 C    0  0  0  0  0  0  0  0  0  0  0  0
    6.9088   -2.0036    0.0000 C    0  0  0  0  0  0  0  0  0  0  0  0
    6.9088   -0.6794    0.0000 C    0  0  0  0  0  0  0  0  0  0  0  0
    8.0718   -2.6599    0.0000 C    0  0  0  0  0  0  0  0  0  0  0  0
    8.0718    0.0000    0.0000 C    0  0  0  0  0  0  0  0  0  0  0  0
    9.2233   -2.0036    0.0000 C    0  0  0  0  0  0  0  0  0  0  0  0
    9.2233   -0.6794    0.0000 C    0  0  0  0  0  0  0  0  0  0  0  0
    5.7574   -3.9956    0.0000 O    0  0  0  0  0  0  0  0  0  0  0  0
    8.0718   -3.9956    0.0000 Cl   0  0  0  0  0  0  0  0  0  0  0  0
   10.3747   -2.6599    0.0000 C    0  0  0  0  0  0  0  0  0  0  0  0
   10.3747   -3.9956    0.0000 F    0  0  0  0  0  0  0  0  0  0  0  0
   11.5147   -2.0036    0.0000 F    0  0  0  0  0  0  0  0  0  0  0  0
   10.3747   -1.3357    0.0000 F    0  0  0  0  0  0  0  0  0  0  0  0
  1  2  1  0  0  0  0
  1  8  1  0  0  0  0
  1 14  1  6  0  0  0
  2  3  1  0  0  0  0
  2  4  2  0  0  0  0
  3  5  2  0  0  0  0
  4  6  1  0  0  0  0
  5  7  1  0  0  0  0
  6  7  2  0  0  0  0
  8  9  1  0  0  0  0
  8 10  1  1  0  0  0
  9 11  1  0  0  0  0
 10 12  1  0  0  0  0
 11 13  1  0  0  0  0
 12 13  1  0  0  0  0
 14 15  1  0  0  0  0
 15 16  1  0  0  0  0
 15 22  2  0  0  0  0
 16 17  1  0  0  0  0
 16 18  2  0  0  0  0
 17 19  2  0  0  0  0
 18 20  1  0  0  0  0
 18 23  1  0  0  0  0
 19 21  1  0  0  0  0
 20 21  2  0  0  0  0
 20 24  1  0  0  0  0
 24 25  1  0  0  0  0
 24 26  1  0  0  0  0
 24 27  1  0  0  0  0
M  END
> <ID>
12490

> <Formula>
C20H20ClF3N2O

> <FW>
396.8338

> <DSSTox_CID>
27348

> <DSSTox_RID>
82287

> <DSSTox_GSID>
47348

> <DSSTox_FileID_Sort>
6968

> <TS_ChemName>
SSR504734

> <TS_ChemName_Synonyms>


> <TS_CASRN>
742693-38-5

> <CASRN_ChemName_Relationship>
primary

> <TS_Description>
single chemical compound

> <ChemNote>
stereochem

> <STRUCTURE_Shown>
tested chemical

> <STRUCTURE_Formula>
C20H20ClF3N2O

> <STRUCTURE_MW>
396.8338

> <STRUCTURE_ChemType>
defined organic

> <STRUCTURE_DefinedOrganicForm>
parent

> <STRUCTURE_IUPAC>
2-chloro-N-{(S)-phenyl[(2S)-piperidin-2-yl]methyl}-3-(trifluoromethyl)benzamide

> <STRUCTURE_SMILES>
FC(F)(F)c3cccc(C(=O)N[C@H]([C@@H]1CCCCN1)c2ccccc2)c3Cl

> <STRUCTURE_SMILES_Desalt>
FC(F)(F)c3cccc(C(=O)N[C@H]([C@@H]1CCCCN1)c2ccccc2)c3Cl

> <Substance_modify_yyyymmdd>
20130910

$$$$
