74341-78-9
ChemmineR-0915142007XD

 16 16  0  0  0  0  0  0  0  0  1 V2000
    2.0510   -2.0002    0.0000 C    0  0  0  0  0  0  0  0  0  0  0  0
    2.0510   -0.6701    0.0000 C    0  0  0  0  0  0  0  0  0  0  0  0
    3.1984   -2.6602    0.0000 C    0  0  0  0  0  0  0  0  0  0  0  0
    0.8021   -2.3962    0.0000 O    0  0  0  0  0  0  0  0  0  0  0  0
    3.1984    0.0000    0.0000 C    0  0  0  0  0  0  0  0  0  0  0  0
    0.8021   -0.2538    0.0000 O    0  0  0  0  0  0  0  0  0  0  0  0
    4.3762   -2.0002    0.0000 C    0  0  0  0  0  0  0  0  0  0  0  0
    0.0000   -1.3301    0.0000 C    0  0  0  0  0  0  0  0  0  0  0  0
    4.3762   -0.6701    0.0000 C    0  0  0  0  0  0  0  0  0  0  0  0
    5.5235   -2.6602    0.0000 C    0  0  0  0  0  0  0  0  0  0  0  0
    6.6607   -2.0002    0.0000 C    0  0  0  0  0  0  0  0  0  0  0  0
    7.8487   -2.6602    0.0000 N    0  0  0  0  0  0  0  0  0  0  0  0
    6.6607   -0.6701    0.0000 C    0  0  0  0  0  0  0  0  0  0  0  0
    8.9960   -2.0002    0.0000 C    0  0  0  0  0  0  0  0  0  0  0  0
   10.1535   -2.6094    0.0000 C    0  0  0  0  0  0  0  0  0  0  0  0
    6.0515   -3.8583    0.0000 Cl   0  0  0  0  0  0  0  0  0  0  0  0
  1  2  1  0  0  0  0
  1  3  2  0  0  0  0
  1  4  1  0  0  0  0
  2  5  2  0  0  0  0
  2  6  1  0  0  0  0
  3  7  1  0  0  0  0
  4  8  1  0  0  0  0
  5  9  1  0  0  0  0
  6  8  1  0  0  0  0
  7 10  1  0  0  0  0
  7  9  2  0  0  0  0
 10 11  1  0  0  0  0
 11 12  1  0  0  0  0
 11 13  1  0  0  0  0
 12 14  1  0  0  0  0
 14 15  1  0  0  0  0
M  END
> <ID>
13881

> <Formula>
C12H18ClNO2

> <FW>
243.7298 (207.2689+36.4609)

> <DSSTox_CID>
28818

> <DSSTox_RID>
83087

> <DSSTox_GSID>
48892

> <DSSTox_FileID_Sort>
7764

> <TS_ChemName>
1-(1,3-Benzodioxol-5-yl)-N-ethylpropan-2-amine hydrochloride

> <TS_ChemName_Synonyms>
(?)-N-Ethyl-3,4-methylenedioxyamphetamine hydrochloride

> <TS_CASRN>
74341-78-9

> <CASRN_ChemName_Relationship>
primary

> <TS_Description>
single chemical compound

> <ChemNote>


> <STRUCTURE_Shown>
tested chemical

> <STRUCTURE_Formula>
C12H18ClNO2

> <STRUCTURE_MW>
243.7298

> <STRUCTURE_ChemType>
defined organic

> <STRUCTURE_DefinedOrganicForm>
complex

> <STRUCTURE_IUPAC>
1-(1,3-benzodioxol-5-yl)-N-ethylpropan-2-amine hydrochloride (1:1)

> <STRUCTURE_SMILES>
Cl.CC(NCC)Cc1ccc2OCOc2c1

> <STRUCTURE_SMILES_Desalt>
CC(NCC)Cc1ccc2OCOc2c1

> <Substance_modify_yyyymmdd>
20111204

$$$$
