74341-83-6
ChemmineR-0915142007XD

 15 15  0  0  0  0  0  0  0  0  1 V2000
    5.4942   -2.6612    0.0000 C    0  0  0  0  0  0  0  0  0  0  0  0
    6.6492   -0.6712    0.0000 N    0  0  0  0  0  0  0  0  0  0  0  0
    4.3626   -2.0057    0.0000 C    0  0  0  0  0  0  0  0  0  0  0  0
    6.6492   -2.0057    0.0000 C    0  0  0  0  0  0  0  0  0  0  0  0
    3.2075   -2.6612    0.0000 C    0  0  0  0  0  0  0  0  0  0  0  0
    4.3626   -0.6712    0.0000 C    0  0  0  0  0  0  0  0  0  0  0  0
    7.8042   -2.6612    0.0000 C    0  0  0  0  0  0  0  0  0  0  0  0
    3.2075    0.0000    0.0000 C    0  0  0  0  0  0  0  0  0  0  0  0
    2.0525   -2.0057    0.0000 C    0  0  0  0  0  0  0  0  0  0  0  0
    2.0525   -0.6712    0.0000 C    0  0  0  0  0  0  0  0  0  0  0  0
    7.8042    0.0000    0.0000 O    0  0  0  0  0  0  0  0  0  0  0  0
    0.7882   -0.2575    0.0000 O    0  0  0  0  0  0  0  0  0  0  0  0
    0.0000   -1.3267    0.0000 C    0  0  0  0  0  0  0  0  0  0  0  0
    0.7882   -2.4037    0.0000 O    0  0  0  0  0  0  0  0  0  0  0  0
    3.0124   -3.9255    0.0000 Cl   0  0  0  0  0  0  0  0  0  0  0  0
  1  3  1  0  0  0  0
  1  4  1  0  0  0  0
  2  4  1  0  0  0  0
  2 11  1  0  0  0  0
  3  5  2  0  0  0  0
  3  6  1  0  0  0  0
  4  7  1  0  0  0  0
  5  9  1  0  0  0  0
  6  8  2  0  0  0  0
  8 10  1  0  0  0  0
  9 10  2  0  0  0  0
  9 14  1  0  0  0  0
 10 12  1  0  0  0  0
 12 13  1  0  0  0  0
 13 14  1  0  0  0  0
M  END
> <ID>
13880

> <Formula>
C10H14ClNO3

> <FW>
231.6761 (195.2151+36.4609)

> <DSSTox_CID>
28817

> <DSSTox_RID>
83086

> <DSSTox_GSID>
48891

> <DSSTox_FileID_Sort>
7763

> <TS_ChemName>
1-(1,3-Benzodioxol-5-yl)-N-hydroxypropan-2-amine hydrochloride

> <TS_ChemName_Synonyms>
(?)-N-Hydroxy-3,4-methylenedioxyamphetamine hydrochloride

> <TS_CASRN>
74341-83-6

> <CASRN_ChemName_Relationship>
primary

> <TS_Description>
single chemical compound

> <ChemNote>


> <STRUCTURE_Shown>
tested chemical

> <STRUCTURE_Formula>
C10H14ClNO3

> <STRUCTURE_MW>
231.6761

> <STRUCTURE_ChemType>
defined organic

> <STRUCTURE_DefinedOrganicForm>
complex

> <STRUCTURE_IUPAC>
1-(1,3-benzodioxol-5-yl)-N-hydroxypropan-2-amine hydrochloride (1:1)

> <STRUCTURE_SMILES>
Cl.CC(NO)Cc1ccc2OCOc2c1

> <STRUCTURE_SMILES_Desalt>
CC(NO)Cc1ccc2OCOc2c1

> <Substance_modify_yyyymmdd>
20111204

$$$$
