74381-53-6
ChemmineR-0915142007XD

 91 95  0  0  1  0  0  0  0  0  1 V2000
   13.6376  -14.5326    0.0000 N   0  0  0  0  0  0  0  0  0  0  0  0
   12.5070  -13.8260    0.0000 C   0  0  0  0  0  0  0  0  0  0  0  0
   12.5070  -12.5070    0.0000 C   0  0  0  0  0  0  0  0  0  0  0  0
   11.3764  -14.5326    0.0000 O   0  0  0  0  0  0  0  0  0  0  0  0
   13.6376  -11.7768    0.0000 C   0  0  0  0  0  0  0  0  0  0  0  0
   11.3764  -11.7768    0.0000 N   0  0  0  0  0  0  0  0  0  0  0  0
   13.6376  -10.5521    0.0000 C   0  0  0  0  0  0  0  0  0  0  0  0
   14.7446   -9.8454    0.0000 C   0  0  0  0  0  0  0  0  0  0  0  0
   12.5070   -9.8454    0.0000 C   0  0  0  0  0  0  0  0  0  0  0  0
   10.1281  -12.5070    0.0000 C   0  0  0  0  0  0  0  0  0  0  0  0
   10.1281  -13.8260    0.0000 O   0  0  0  0  0  0  0  0  0  0  0  0
    9.0211  -11.7768    0.0000 C   0  0  0  0  0  0  0  0  0  0  0  0
    7.8905  -12.5070    0.0000 C   0  0  0  0  0  0  0  0  0  0  0  0
    9.0211  -10.5521    0.0000 N   0  0  0  0  0  0  0  0  0  0  0  0
    7.8905  -13.8260    0.0000 C   0  0  0  0  0  0  0  0  0  0  0  0
    9.0211  -14.5326    0.0000 C   0  0  0  0  0  0  0  0  0  0  0  0
    6.6657  -14.5326    0.0000 C   0  0  0  0  0  0  0  0  0  0  0  0
    6.6657  -15.8752    0.0000 C   0  0  0  0  0  0  0  0  0  0  0  0
    7.8905  -16.4876    0.0000 C   0  0  0  0  0  0  0  0  0  0  0  0
    9.0211  -15.8752    0.0000 C   0  0  0  0  0  0  0  0  0  0  0  0
    7.8905  -17.8301    0.0000 O   0  0  0  0  0  0  0  0  0  0  0  0
   10.1281   -9.8454    0.0000 C   0  0  0  0  0  0  0  0  0  0  0  0
   10.1281   -8.5029    0.0000 C   0  0  0  0  0  0  0  0  0  0  0  0
   11.3764  -10.5521    0.0000 O   0  0  0  0  0  0  0  0  0  0  0  0
    9.0211   -7.7727    0.0000 N   0  0  0  0  0  0  0  0  0  0  0  0
   11.3764   -7.7727    0.0000 C   0  0  0  0  0  0  0  0  0  0  0  0
   11.3764   -6.5479    0.0000 O   0  0  0  0  0  0  0  0  0  0  0  0
    9.0211   -6.5479    0.0000 C   0  0  0  0  0  0  0  0  0  0  0  0
   10.1281   -5.8413    0.0000 O   0  0  0  0  0  0  0  0  0  0  0  0
    7.8905   -5.8413    0.0000 C   0  0  0  0  0  0  0  0  0  0  0  0
    7.8905   -4.5223    0.0000 C   0  0  0  0  0  0  0  0  0  0  0  0
    6.6657   -6.5479    0.0000 N   0  0  0  0  0  0  0  0  0  0  0  0
    9.0211   -3.7921    0.0000 C   0  0  0  0  0  0  0  0  0  0  0  0
   10.2459   -4.4045    0.0000 C   0  0  0  0  0  0  0  0  0  0  0  0
   11.1644   -3.3682    0.0000 N   0  0  0  0  0  0  0  0  0  0  0  0
   10.4343   -2.2376    0.0000 C   0  0  0  0  0  0  0  0  0  0  0  0
    9.2095   -2.5674    0.0000 C   0  0  0  0  0  0  0  0  0  0  0  0
    8.2909   -1.5310    0.0000 C   0  0  0  0  0  0  0  0  0  0  0  0
   10.8582   -0.9186    0.0000 C   0  0  0  0  0  0  0  0  0  0  0  0
   10.0339    0.0000    0.0000 C   0  0  0  0  0  0  0  0  0  0  0  0
    8.7149   -0.3062    0.0000 C   0  0  0  0  0  0  0  0  0  0  0  0
    5.5351   -5.8413    0.0000 C   0  0  0  0  0  0  0  0  0  0  0  0
    5.5351   -4.5223    0.0000 O   0  0  0  0  0  0  0  0  0  0  0  0
    4.4045   -6.5479    0.0000 C   0  0  0  0  0  0  0  0  0  0  0  0
    3.2740   -5.8413    0.0000 C   0  0  0  0  0  0  0  0  0  0  0  0
    4.4045   -7.7727    0.0000 N   0  0  0  0  0  0  0  0  0  0  0  0
    2.1669   -6.5479    0.0000 C   0  0  0  0  0  0  0  0  0  0  0  0
    1.9550   -7.7727    0.0000 N   0  0  0  0  0  0  0  0  0  0  0  0
    0.7066   -8.0789    0.0000 C   0  0  0  0  0  0  0  0  0  0  0  0
    0.0000   -6.9719    0.0000 N   0  0  0  0  0  0  0  0  0  0  0  0
    0.9186   -5.9591    0.0000 C   0  0  0  0  0  0  0  0  0  0  0  0
    5.5351   -8.5029    0.0000 C   0  0  0  0  0  0  0  0  0  0  0  0
    6.6657   -7.7727    0.0000 O   0  0  0  0  0  0  0  0  0  0  0  0
    5.5351   -9.8454    0.0000 C   0  0  0  0  0  0  0  0  0  0  0  0
    6.6657  -10.6463    0.0000 N   0  0  0  0  0  0  0  0  0  0  0  0
    6.2417  -11.8946    0.0000 C   0  0  0  0  0  0  0  0  0  0  0  0
    4.8992  -11.8946    0.0000 C   0  0  0  0  0  0  0  0  0  0  0  0
    4.4988  -10.6463    0.0000 C   0  0  0  0  0  0  0  0  0  0  0  0
    6.9719  -12.9074    0.0000 O   0  0  0  0  0  0  0  0  0  0  0  0
   21.8107  -12.0830    0.0000 C   0  0  0  0  0  0  0  0  0  0  0  0
   22.7293  -11.2822    0.0000 O   0  0  0  0  0  0  0  0  0  0  0  0
   20.4917  -11.7768    0.0000 C   0  0  0  0  0  0  0  0  0  0  0  0
   19.4553  -12.5070    0.0000 N   0  0  0  0  0  0  0  0  0  0  0  0
   18.3248  -11.7768    0.0000 C   0  0  0  0  0  0  0  0  0  0  0  0
   18.7487  -10.4578    0.0000 C   0  0  0  0  0  0  0  0  0  0  0  0
   20.0677  -10.4578    0.0000 C   0  0  0  0  0  0  0  0  0  0  0  0
   22.0227  -13.4020    0.0000 N   0  0  0  0  0  0  0  0  0  0  0  0
   23.2475  -13.8260    0.0000 C   0  0  0  0  0  0  0  0  0  0  0  0
   23.5537  -15.1686    0.0000 C   0  0  0  0  0  0  0  0  0  0  0  0
   20.5859  -19.7615    0.0000 C   0  0  0  0  0  0  0  0  0  0  0  0
   19.4553  -13.8260    0.0000 C   0  0  0  0  0  0  0  0  0  0  0  0
   21.6929  -20.4917    0.0000 N   0  0  0  0  0  0  0  0  0  0  0  0
   20.5859  -14.5326    0.0000 O   0  0  0  0  0  0  0  0  0  0  0  0
   20.5859  -18.4425    0.0000 N   0  0  0  0  0  0  0  0  0  0  0  0
   18.2306  -14.5326    0.0000 C   0  0  0  0  0  0  0  0  0  0  0  0
   19.4553  -20.4917    0.0000 N   0  0  0  0  0  0  0  0  0  0  0  0
   17.1000  -13.8260    0.0000 N   0  0  0  0  0  0  0  0  0  0  0  0
   19.4553  -17.8301    0.0000 C   0  0  0  0  0  0  0  0  0  0  0  0
   18.2306  -15.7810    0.0000 C   0  0  0  0  0  0  0  0  0  0  0  0
   19.4553  -16.4876    0.0000 C   0  0  0  0  0  0  0  0  0  0  0  0
   15.8752  -14.5326    0.0000 C   0  0  0  0  0  0  0  0  0  0  0  0
   14.7446  -13.8260    0.0000 C   0  0  0  0  0  0  0  0  0  0  0  0
   15.8752  -15.7810    0.0000 O   0  0  0  0  0  0  0  0  0  0  0  0
   14.7446  -12.5070    0.0000 C   0  0  0  0  0  0  0  0  0  0  0  0
   15.8752  -11.7768    0.0000 C   0  0  0  0  0  0  0  0  0  0  0  0
   15.8752  -10.4578    0.0000 C   0  0  0  0  0  0  0  0  0  0  0  0
   17.1000  -12.5070    0.0000 C   0  0  0  0  0  0  0  0  0  0  0  0
   10.4578  -19.3140    0.0000 C   0  0  0  0  0  0  0  0  0  0  0  0
   11.8004  -19.3140    0.0000 C   0  0  0  0  0  0  0  0  0  0  0  0
   12.5070  -18.1834    0.0000 O   0  0  0  0  0  0  0  0  0  0  0  0
   12.5070  -20.4446    0.0000 O   0  0  0  0  0  0  0  0  0  0  0  0
  1  2  1  0  0  0  0
 82  1  1  1  0  0  0
  2  3  1  0  0  0  0
  2  4  2  0  0  0  0
  3  5  1  0  0  0  0
  3  6  1  6  0  0  0
  5  7  1  0  0  0  0
  6 10  1  0  0  0  0
  7  8  1  0  0  0  0
  7  9  1  0  0  0  0
 10 11  2  0  0  0  0
 10 12  1  0  0  0  0
 12 13  1  0  0  0  0
 12 14  1  6  0  0  0
 13 15  1  0  0  0  0
 14 22  1  0  0  0  0
 15 16  2  0  0  0  0
 15 17  1  0  0  0  0
 16 20  1  0  0  0  0
 17 18  2  0  0  0  0
 18 19  1  0  0  0  0
 19 20  2  0  0  0  0
 19 21  1  0  0  0  0
 22 23  1  0  0  0  0
 22 24  2  0  0  0  0
 23 25  1  1  0  0  0
 23 26  1  0  0  0  0
 25 28  1  0  0  0  0
 26 27  1  0  0  0  0
 28 29  2  0  0  0  0
 28 30  1  0  0  0  0
 30 31  1  0  0  0  0
 30 32  1  1  0  0  0
 31 33  1  0  0  0  0
 32 42  1  0  0  0  0
 33 34  2  0  0  0  0
 33 37  1  0  0  0  0
 34 35  1  0  0  0  0
 35 36  1  0  0  0  0
 36 37  2  0  0  0  0
 36 39  1  0  0  0  0
 37 38  1  0  0  0  0
 38 41  2  0  0  0  0
 39 40  2  0  0  0  0
 40 41  1  0  0  0  0
 42 43  2  0  0  0  0
 42 44  1  0  0  0  0
 44 45  1  0  0  0  0
 44 46  1  1  0  0  0
 45 47  1  0  0  0  0
 46 52  1  0  0  0  0
 47 48  1  0  0  0  0
 47 51  2  0  0  0  0
 48 49  1  0  0  0  0
 49 50  2  0  0  0  0
 50 51  1  0  0  0  0
 52 53  2  0  0  0  0
 52 54  1  0  0  0  0
 54 55  1  1  0  0  0
 54 58  1  0  0  0  0
 55 56  1  0  0  0  0
 56 57  1  0  0  0  0
 56 59  2  0  0  0  0
 57 58  1  0  0  0  0
 60 61  2  0  0  0  0
 62 60  1  1  0  0  0
 60 67  1  0  0  0  0
 62 63  1  0  0  0  0
 62 66  1  0  0  0  0
 63 64  1  0  0  0  0
 63 71  1  0  0  0  0
 64 65  1  0  0  0  0
 65 66  1  0  0  0  0
 67 68  1  0  0  0  0
 68 69  1  0  0  0  0
 70 72  2  0  0  0  0
 70 74  1  0  0  0  0
 70 76  1  0  0  0  0
 71 75  1  0  0  0  0
 71 73  2  0  0  0  0
 74 78  1  0  0  0  0
 75 79  1  0  0  0  0
 75 77  1  6  0  0  0
 77 81  1  0  0  0  0
 78 80  1  0  0  0  0
 79 80  1  0  0  0  0
 81 82  1  0  0  0  0
 81 83  2  0  0  0  0
 82 84  1  0  0  0  0
 84 85  1  0  0  0  0
 85 86  1  0  0  0  0
 85 87  1  0  0  0  0
 88 89  1  0  0  0  0
 89 90  2  0  0  0  0
 89 91  1  0  0  0  0
M  END
> <ID>
13994

> <Formula>
C61H88N16O14

> <FW>
1269.4502 (1209.3983+60.0520)

> <DSSTox_CID>
28935

> <DSSTox_RID>
83201

> <DSSTox_GSID>
49009

> <DSSTox_FileID_Sort>
7877

> <TS_ChemName>
Leuprolide acetate salt

> <TS_ChemName_Synonyms>


> <TS_CASRN>
74381-53-6

> <CASRN_ChemName_Relationship>
primary

> <TS_Description>
single chemical compound

> <ChemNote>


> <STRUCTURE_Shown>
tested chemical

> <STRUCTURE_Formula>
C61H88N16O14

> <STRUCTURE_MW>
1269.4502

> <STRUCTURE_ChemType>
defined organic

> <STRUCTURE_DefinedOrganicForm>
complex

> <STRUCTURE_IUPAC>
5-oxo-L-prolyl-L-histidyl-L-tryptophyl-L-seryl-L-tyrosyl-D-leucyl-L-leucyl-L-arginyl-N-ethyl-L-prolinamide acetate (1:1)

> <STRUCTURE_SMILES>
CC(=O)O.O=C(NCC)[C@@H]6CCCN6C(=O)[C@H](CCCNC(=N)N)NC(=O)[C@H](CC(C)C)NC(=O)[C@@H](CC(C)C)NC(=O)[C@H](Cc1ccc(O)cc1)NC(=O)[C@H](CO)NC(=O)[C@H](Cc3cnc2ccccc23)NC(=O)[C@H](Cc4cncn4)NC(=O)[C@@H]5CCC(=O)N5

> <STRUCTURE_SMILES_Desalt>
O=C(NCC)[C@@H]6CCCN6C(=O)[C@H](CCCNC(=N)N)NC(=O)[C@H](CC(C)C)NC(=O)[C@@H](CC(C)C)NC(=O)[C@H](Cc1ccc(O)cc1)NC(=O)[C@H](CO)NC(=O)[C@H](Cc3cnc2ccccc23)NC(=O)[C@H](Cc4cncn4)NC(=O)[C@@H]5CCC(=O)N5

> <Substance_modify_yyyymmdd>
20111204

$$$$
