744-80-9
ChemmineR-0915142007XD

 25 27  0  0  0  0  0  0  0  0  1 V2000
    2.1697   -3.4823    0.0000 C   0  0  0  0  0  0  0  0  0  0  0  0
    3.4823   -3.2436    0.0000 C   0  0  0  0  0  0  0  0  0  0  0  0
    3.9162   -1.9852    0.0000 C   0  0  0  0  0  0  0  0  0  0  0  0
    3.9162   -0.6509    0.0000 C   0  0  0  0  0  0  0  0  0  0  0  0
    2.7772    0.0000    0.0000 O   0  0  0  0  0  0  0  0  0  0  0  0
    5.0987    0.0000    0.0000 N   0  0  0  0  0  0  0  0  0  0  0  0
    6.2377   -0.6509    0.0000 C   0  0  0  0  0  0  0  0  0  0  0  0
    7.3877    0.0000    0.0000 O   0  0  0  0  0  0  0  0  0  0  0  0
    6.2377   -1.9852    0.0000 N   0  0  0  0  0  0  0  0  0  0  0  0
    7.3877   -2.6470    0.0000 C   0  0  0  0  0  0  0  0  0  0  0  0
    7.3877   -3.9813    0.0000 O   0  0  0  0  0  0  0  0  0  0  0  0
    8.5376   -1.9852    0.0000 C   0  0  0  0  0  0  0  0  0  0  0  0
    8.5376   -0.6509    0.0000 C   0  0  0  0  0  0  0  0  0  0  0  0
    9.6875    0.0000    0.0000 C   0  0  0  0  0  0  0  0  0  0  0  0
   10.8483   -0.6509    0.0000 C   0  0  0  0  0  0  0  0  0  0  0  0
   10.8483   -1.9852    0.0000 C   0  0  0  0  0  0  0  0  0  0  0  0
    9.6875   -2.6470    0.0000 C   0  0  0  0  0  0  0  0  0  0  0  0
    5.0987   -2.6470    0.0000 C   0  0  0  0  0  0  0  0  0  0  0  0
    5.0987   -3.9813    0.0000 O   0  0  0  0  0  0  0  0  0  0  0  0
    2.6144   -1.7683    0.0000 C   0  0  0  0  0  0  0  0  0  0  0  0
    1.7683   -2.7772    0.0000 C   0  0  0  0  0  0  0  0  0  0  0  0
    0.4448   -2.5493    0.0000 C   0  0  0  0  0  0  0  0  0  0  0  0
    0.0000   -1.3018    0.0000 C   0  0  0  0  0  0  0  0  0  0  0  0
    0.8570   -0.2821    0.0000 C   0  0  0  0  0  0  0  0  0  0  0  0
    2.1697   -0.5099    0.0000 C   0  0  0  0  0  0  0  0  0  0  0  0
  1  2  1  0  0  0  0
  2  3  1  0  0  0  0
  3  4  1  0  0  0  0
  3 18  1  0  0  0  0
  3 20  1  0  0  0  0
  4  5  2  0  0  0  0
  4  6  1  0  0  0  0
  6  7  1  0  0  0  0
  7  8  2  0  0  0  0
  7  9  1  0  0  0  0
  9 10  1  0  0  0  0
  9 18  1  0  0  0  0
 10 11  2  0  0  0  0
 10 12  1  0  0  0  0
 12 13  2  0  0  0  0
 12 17  1  0  0  0  0
 13 14  1  0  0  0  0
 14 15  2  0  0  0  0
 15 16  1  0  0  0  0
 16 17  2  0  0  0  0
 18 19  2  0  0  0  0
 20 21  2  0  0  0  0
 20 25  1  0  0  0  0
 21 22  1  0  0  0  0
 22 23  2  0  0  0  0
 23 24  1  0  0  0  0
 24 25  2  0  0  0  0
M  END
> <ID>
11439

> <Formula>
C19H16N2O4

> <FW>
336.3413

> <DSSTox_CID>
26138

> <DSSTox_RID>
81371

> <DSSTox_GSID>
46138

> <DSSTox_FileID_Sort>
6052

> <TS_ChemName>
Benzobarbital

> <TS_ChemName_Synonyms>


> <TS_CASRN>
744-80-9

> <CASRN_ChemName_Relationship>
primary

> <TS_Description>
single chemical compound

> <ChemNote>


> <STRUCTURE_Shown>
tested chemical

> <STRUCTURE_Formula>
C19H16N2O4

> <STRUCTURE_MW>
336.3413

> <STRUCTURE_ChemType>
defined organic

> <STRUCTURE_DefinedOrganicForm>
parent

> <STRUCTURE_IUPAC>
1-benzoyl-5-ethyl-5-phenylpyrimidine-2,4,6(1H,3H,5H)-trione

> <STRUCTURE_SMILES>
O=C2NC(=O)C(CC)(C(=O)N2C(=O)c1ccccc1)c3ccccc3

> <STRUCTURE_SMILES_Desalt>
O=C2NC(=O)C(CC)(C(=O)N2C(=O)c1ccccc1)c3ccccc3

> <Substance_modify_yyyymmdd>
20110529

$$$$
