744-45-6
ChemmineR-0915142007XD

 24 26  0  0  0  0  0  0  0  0  1 V2000
    4.6387   -1.9728    0.0000 C   0  0  0  0  0  0  0  0  0  0  0  0
    2.2927   -6.0250    0.0000 C   0  0  0  0  0  0  0  0  0  0  0  0
    3.4657   -2.6659    0.0000 C   0  0  0  0  0  0  0  0  0  0  0  0
    2.2927   -4.6920    0.0000 C   0  0  0  0  0  0  0  0  0  0  0  0
    3.4657   -3.9989    0.0000 C   0  0  0  0  0  0  0  0  0  0  0  0
    4.6387   -0.6931    0.0000 O   0  0  0  0  0  0  0  0  0  0  0  0
    3.4657   -6.6648    0.0000 O   0  0  0  0  0  0  0  0  0  0  0  0
    5.7584   -2.6659    0.0000 O   0  0  0  0  0  0  0  0  0  0  0  0
    1.1730   -6.6648    0.0000 O   0  0  0  0  0  0  0  0  0  0  0  0
    2.2927   -1.9728    0.0000 C   0  0  0  0  0  0  0  0  0  0  0  0
    1.1730   -3.9989    0.0000 C   0  0  0  0  0  0  0  0  0  0  0  0
    1.1730   -2.6659    0.0000 C   0  0  0  0  0  0  0  0  0  0  0  0
    6.9314   -1.9728    0.0000 C   0  0  0  0  0  0  0  0  0  0  0  0
    8.1044   -2.6659    0.0000 C   0  0  0  0  0  0  0  0  0  0  0  0
    6.9314   -0.6398    0.0000 C   0  0  0  0  0  0  0  0  0  0  0  0
    9.2241   -1.9728    0.0000 C   0  0  0  0  0  0  0  0  0  0  0  0
    8.1044    0.0000    0.0000 C   0  0  0  0  0  0  0  0  0  0  0  0
    9.2241   -0.6398    0.0000 C   0  0  0  0  0  0  0  0  0  0  0  0
    1.1730   -7.9978    0.0000 C   0  0  0  0  0  0  0  0  0  0  0  0
    0.0000   -8.6909    0.0000 C   0  0  0  0  0  0  0  0  0  0  0  0
    2.2927   -8.6909    0.0000 C   0  0  0  0  0  0  0  0  0  0  0  0
    0.0000  -10.0239    0.0000 C   0  0  0  0  0  0  0  0  0  0  0  0
    2.2927  -10.0239    0.0000 C   0  0  0  0  0  0  0  0  0  0  0  0
    1.1730  -10.6637    0.0000 C   0  0  0  0  0  0  0  0  0  0  0  0
  1  3  1  0  0  0  0
  1  6  2  0  0  0  0
  1  8  1  0  0  0  0
  2  4  1  0  0  0  0
  2  7  2  0  0  0  0
  2  9  1  0  0  0  0
  3  5  2  0  0  0  0
  3 10  1  0  0  0  0
  4  5  1  0  0  0  0
  4 11  2  0  0  0  0
  8 13  1  0  0  0  0
  9 19  1  0  0  0  0
 10 12  2  0  0  0  0
 11 12  1  0  0  0  0
 13 14  2  0  0  0  0
 13 15  1  0  0  0  0
 14 16  1  0  0  0  0
 15 17  2  0  0  0  0
 16 18  2  0  0  0  0
 17 18  1  0  0  0  0
 19 20  2  0  0  0  0
 19 21  1  0  0  0  0
 20 22  1  0  0  0  0
 21 23  2  0  0  0  0
 22 24  2  0  0  0  0
 23 24  1  0  0  0  0
M  END
> <ID>
7429

> <Formula>
C20H14O4

> <FW>
318.3228

> <DSSTox_CID>
17752

> <DSSTox_RID>
79375

> <DSSTox_GSID>
37752

> <DSSTox_FileID_Sort>
4057

> <TS_ChemName>
Diphenyl isophthalate

> <TS_ChemName_Synonyms>
Diphenyl isophthalate (1,3-benzenedicarboxylic acid, diphenyl ester)

> <TS_CASRN>
744-45-6

> <CASRN_ChemName_Relationship>
primary

> <TS_Description>
single chemical compound

> <ChemNote>


> <STRUCTURE_Shown>
tested chemical

> <STRUCTURE_Formula>
C20H14O4

> <STRUCTURE_MW>
318.3228

> <STRUCTURE_ChemType>
defined organic

> <STRUCTURE_DefinedOrganicForm>
parent

> <STRUCTURE_IUPAC>
diphenyl benzene-1,3-dicarboxylate

> <STRUCTURE_SMILES>
O=C(Oc1ccccc1)c2cccc(c2)C(=O)Oc3ccccc3

> <STRUCTURE_SMILES_Desalt>
O=C(Oc1ccccc1)c2cccc(c2)C(=O)Oc3ccccc3

> <Substance_modify_yyyymmdd>
20080429

$$$$
