74440-81-6
ChemmineR-0915142007XD

 13 12  0  0  0  0  0  0  0  0  2 V2000
    1.9681   -2.3084    0.0000 N    0  3  0  0  0  0  0  0  0  0  0  0
    0.6898   -2.3084    0.0000 C    0  0  0  0  0  0  0  0  0  0  0  0
    2.7130   -1.1496    0.0000 C    0  0  0  0  0  0  0  0  0  0  0  0
    1.9681    0.0000    0.0000 C    0  0  0  0  0  0  0  0  0  0  0  0
    0.0000   -1.1496    0.0000 C    0  0  0  0  0  0  0  0  0  0  0  0
    0.6898    0.0000    0.0000 C    0  0  0  0  0  0  0  0  0  0  0  0
    2.6119   -3.4488    0.0000 C    0  0  0  0  0  0  0  0  0  0  0  0
    1.9681   -4.5984    0.0000 C    0  0  0  0  0  0  0  0  0  0  0  0
    2.6119   -5.7480    0.0000 C    0  0  0  0  0  0  0  0  0  0  0  0
    1.9221   -6.8884    0.0000 C    0  0  0  0  0  0  0  0  0  0  0  0
    2.6119   -8.0472    0.0000 C    0  0  0  0  0  0  0  0  0  0  0  0
    1.9221   -9.1968    0.0000 C    0  0  0  0  0  0  0  0  0  0  0  0
    3.8075   -2.3360    0.0000 Br   0  5  0  0  0  0  0  0  0  0  0  0
  1  2  2  0  0  0  0
  1  3  1  0  0  0  0
  1  7  1  0  0  0  0
  2  5  1  0  0  0  0
  3  4  2  0  0  0  0
  4  6  1  0  0  0  0
  5  6  2  0  0  0  0
  7  8  1  0  0  0  0
  8  9  1  0  0  0  0
  9 10  1  0  0  0  0
 10 11  1  0  0  0  0
 11 12  1  0  0  0  0
M  END
> <ID>
13009

> <Formula>
C11H18BrN

> <FW>
244.1713 (164.2668+79.9045)

> <DSSTox_CID>
27910

> <DSSTox_RID>
82663

> <DSSTox_GSID>
47934

> <DSSTox_FileID_Sort>
7340

> <TS_ChemName>
1-Hexylpyridinium bromide

> <TS_ChemName_Synonyms>


> <TS_CASRN>
74440-81-6

> <CASRN_ChemName_Relationship>
primary

> <TS_Description>
single chemical compound

> <ChemNote>
ammonium; parent [46122-12-7]

> <STRUCTURE_Shown>
tested chemical

> <STRUCTURE_Formula>
C11H18BrN

> <STRUCTURE_MW>
244.1713

> <STRUCTURE_ChemType>
defined organic

> <STRUCTURE_DefinedOrganicForm>
salt

> <STRUCTURE_IUPAC>
1-hexylpyridinium bromide

> <STRUCTURE_SMILES>
[Br-].CCCCCC[n+]1ccccc1

> <STRUCTURE_SMILES_Desalt>
CCCCCC[n+]1ccccc1

> <Substance_modify_yyyymmdd>
20110418

$$$$
