7446-81-3
ChemmineR-0915142007XD

  6  4  0  0  0  0  0  0  0  0  2 V2000
    1.1540   -1.3119    0.0000 C    0  0  0  0  0  0  0  0  0  0  0  0
    2.3079   -1.9921    0.0000 C    0  0  0  0  0  0  0  0  0  0  0  0
    3.4497   -1.3119    0.0000 C    0  0  0  0  0  0  0  0  0  0  0  0
    1.1540    0.0000    0.0000 O    0  0  0  0  0  0  0  0  0  0  0  0
    0.0000   -1.9921    0.0000 O    0  5  0  0  0  0  0  0  0  0  0  0
    6.0735   -0.9960    0.0000 Na   0  3  0  0  0  0  0  0  0  0  0  0
  1  2  1  0  0  0  0
  1  5  1  0  0  0  0
  1  4  2  0  0  0  0
  2  3  2  0  0  0  0
M  END
> <ID>
5324

> <Formula>
C3H3NaO2

> <FW>
94.0445 (71.0553+22.9892)

> <DSSTox_CID>
7652

> <DSSTox_RID>
78542

> <DSSTox_GSID>
27652

> <DSSTox_FileID_Sort>
3225

> <TS_ChemName>
2-Propenoic acid, sodium salt

> <TS_ChemName_Synonyms>


> <TS_CASRN>
7446-81-3

> <CASRN_ChemName_Relationship>
primary

> <TS_Description>
single chemical compound

> <ChemNote>
parent [79-10-7]

> <STRUCTURE_Shown>
tested chemical

> <STRUCTURE_Formula>
C3H3NaO2

> <STRUCTURE_MW>
94.0445

> <STRUCTURE_ChemType>
defined organic

> <STRUCTURE_DefinedOrganicForm>
salt

> <STRUCTURE_IUPAC>
sodium prop-2-enoate

> <STRUCTURE_SMILES>
[Na+].[O-]C(=O)C=C

> <STRUCTURE_SMILES_Desalt>
C=CC(=O)O

> <Substance_modify_yyyymmdd>
20080429

$$$$
