74512-12-2
ChemmineR-0915142007XD

 27 29  0  0  0  0  0  0  0  0  1 V2000
    4.6644   -3.6927    0.0000 C    0  0  0  0  0  0  0  0  0  0  0  0
    3.4983   -4.3590    0.0000 C    0  0  0  0  0  0  0  0  0  0  0  0
    4.6644   -2.3739    0.0000 C    0  0  0  0  0  0  0  0  0  0  0  0
    5.8305   -1.7353    0.0000 N    0  0  0  0  0  0  0  0  0  0  0  0
    3.4983   -5.6917    0.0000 C    0  0  0  0  0  0  0  0  0  0  0  0
    7.8157   -1.0273    0.0000 N    0  0  0  0  0  0  0  0  0  0  0  0
    7.0522   -2.1240    0.0000 C    0  0  0  0  0  0  0  0  0  0  0  0
    2.3322   -3.6927    0.0000 C    0  0  0  0  0  0  0  0  0  0  0  0
    2.3322   -6.3581    0.0000 C    0  0  0  0  0  0  0  0  0  0  0  0
    5.8167   -0.4026    0.0000 C    0  0  0  0  0  0  0  0  0  0  0  0
    7.0661    0.0000    0.0000 C    0  0  0  0  0  0  0  0  0  0  0  0
    5.7750   -4.3590    0.0000 O    0  0  0  0  0  0  0  0  0  0  0  0
    1.1661   -5.6917    0.0000 C    0  0  0  0  0  0  0  0  0  0  0  0
    4.6644   -6.3581    0.0000 Cl   0  0  0  0  0  0  0  0  0  0  0  0
    1.1661   -4.3590    0.0000 C    0  0  0  0  0  0  0  0  0  0  0  0
   12.7022   -5.6917    0.0000 C    0  0  0  0  0  0  0  0  0  0  0  0
   10.3978   -4.3590    0.0000 C    0  0  0  0  0  0  0  0  0  0  0  0
    0.0000   -6.3719    0.0000 Cl   0  0  0  0  0  0  0  0  0  0  0  0
   13.8822   -6.3719    0.0000 Cl   0  0  0  0  0  0  0  0  0  0  0  0
    3.4983   -1.7353    0.0000 C    0  0  0  0  0  0  0  0  0  0  0  0
   11.5500   -6.3581    0.0000 C    0  0  0  0  0  0  0  0  0  0  0  0
   12.7022   -4.3590    0.0000 C    0  0  0  0  0  0  0  0  0  0  0  0
   10.3978   -5.6917    0.0000 C    0  0  0  0  0  0  0  0  0  0  0  0
   11.5500   -3.6927    0.0000 C    0  0  0  0  0  0  0  0  0  0  0  0
    9.2317   -3.6927    0.0000 O    0  0  0  0  0  0  0  0  0  0  0  0
    6.9411   -3.6927    0.0000 C    0  0  0  0  0  0  0  0  0  0  0  0
    8.1072   -4.3590    0.0000 C    0  0  0  0  0  0  0  0  0  0  0  0
  1  2  1  0  0  0  0
  1  3  2  0  0  0  0
  1 12  1  0  0  0  0
  2  5  2  0  0  0  0
  2  8  1  0  0  0  0
  3  4  1  0  0  0  0
  3 20  1  0  0  0  0
  4  7  1  0  0  0  0
  4 10  1  0  0  0  0
  5  9  1  0  0  0  0
  5 14  1  0  0  0  0
  6  7  2  0  0  0  0
  6 11  1  0  0  0  0
  8 15  2  0  0  0  0
  9 13  2  0  0  0  0
 10 11  2  0  0  0  0
 12 26  1  0  0  0  0
 13 15  1  0  0  0  0
 13 18  1  0  0  0  0
 16 22  2  0  0  0  0
 16 19  1  0  0  0  0
 16 21  1  0  0  0  0
 17 25  1  0  0  0  0
 17 23  1  0  0  0  0
 17 24  2  0  0  0  0
 21 23  2  0  0  0  0
 22 24  1  0  0  0  0
 25 27  1  0  0  0  0
 26 27  1  0  0  0  0
M  END
> <ID>
16216

> <Formula>
C20H17Cl3N2O2

> <FW>
423.7202

> <DSSTox_CID>
31607

> <DSSTox_RID>
97491

> <DSSTox_GSID>
57818

> <DSSTox_FileID_Sort>
8558

> <TS_ChemName>
Omoconazole

> <TS_ChemName_Synonyms>


> <TS_CASRN>
74512-12-2

> <CASRN_ChemName_Relationship>
primary

> <TS_Description>
single chemical compound

> <ChemNote>


> <STRUCTURE_Shown>
tested chemical

> <STRUCTURE_Formula>
C20H17Cl3N2O2

> <STRUCTURE_MW>
423.7202

> <STRUCTURE_ChemType>
defined organic

> <STRUCTURE_DefinedOrganicForm>
parent

> <STRUCTURE_IUPAC>
1-[(1Z)-1-[2-(4-chlorophenoxy)ethoxy]-1-(2,4-dichlorophenyl)prop-1-en-2-yl]-1H-imidazole

> <STRUCTURE_SMILES>
C\C(=C(\OCCOc1ccc(Cl)cc1)c2ccc(Cl)cc2Cl)n3ccnc3

> <STRUCTURE_SMILES_Desalt>
C\C(=C(\OCCOc1ccc(Cl)cc1)c2ccc(Cl)cc2Cl)n3ccnc3

> <Substance_modify_yyyymmdd>
20131121

$$$$
