74517-78-5
ChemmineR-0915142007XD

 23 25  0  0  0  0  0  0  0  0  1 V2000
   10.0850   -1.5632    0.0000 C   0  0  0  0  0  0  0  0  0  0  0  0
    8.7840   -1.2707    0.0000 C   0  0  0  0  0  0  0  0  0  0  0  0
    8.3806    0.0000    0.0000 C   0  0  0  0  0  0  0  0  0  0  0  0
    7.9066   -2.2691    0.0000 N   0  0  0  0  0  0  0  0  0  0  0  0
    6.6057   -1.9968    0.0000 C   0  0  0  0  0  0  0  0  0  0  0  0
    5.7081   -2.9751    0.0000 C   0  0  0  0  0  0  0  0  0  0  0  0
    4.4071   -2.7028    0.0000 C   0  0  0  0  0  0  0  0  0  0  0  0
    3.5096   -3.6911    0.0000 C   0  0  0  0  0  0  0  0  0  0  0  0
    3.1062   -2.4204    0.0000 C   0  0  0  0  0  0  0  0  0  0  0  0
    3.9937   -1.4321    0.0000 N   0  0  0  0  0  0  0  0  0  0  0  0
    1.7951   -2.1481    0.0000 O   0  0  0  0  0  0  0  0  0  0  0  0
    4.4071   -4.6895    0.0000 C   0  0  0  0  0  0  0  0  0  0  0  0
    5.7384   -4.6895    0.0000 C   0  0  0  0  0  0  0  0  0  0  0  0
    6.3939   -5.8291    0.0000 C   0  0  0  0  0  0  0  0  0  0  0  0
    5.7384   -6.9788    0.0000 C   0  0  0  0  0  0  0  0  0  0  0  0
    4.4071   -6.9788    0.0000 C   0  0  0  0  0  0  0  0  0  0  0  0
    3.7314   -5.8291    0.0000 C   0  0  0  0  0  0  0  0  0  0  0  0
    2.4406   -5.5568    0.0000 C   0  0  0  0  0  0  0  0  0  0  0  0
    2.2893   -4.2357    0.0000 C   0  0  0  0  0  0  0  0  0  0  0  0
    1.0892   -3.6911    0.0000 C   0  0  0  0  0  0  0  0  0  0  0  0
    0.0000   -4.4777    0.0000 C   0  0  0  0  0  0  0  0  0  0  0  0
    0.1412   -5.7888    0.0000 C   0  0  0  0  0  0  0  0  0  0  0  0
    1.3615   -6.3334    0.0000 C   0  0  0  0  0  0  0  0  0  0  0  0
  1  2  1  0  0  0  0
  2  3  1  0  0  0  0
  2  4  1  0  0  0  0
  4  5  1  0  0  0  0
  5  6  1  0  0  0  0
  6  7  1  0  0  0  0
  7  8  1  0  0  0  0
  8  9  1  0  0  0  0
  8 12  1  0  0  0  0
  8 19  1  0  0  0  0
  9 10  1  0  0  0  0
  9 11  2  0  0  0  0
 12 13  2  0  0  0  0
 12 17  1  0  0  0  0
 13 14  1  0  0  0  0
 14 15  2  0  0  0  0
 15 16  1  0  0  0  0
 16 17  2  0  0  0  0
 17 18  1  0  0  0  0
 18 19  2  0  0  0  0
 18 23  1  0  0  0  0
 19 20  1  0  0  0  0
 20 21  2  0  0  0  0
 21 22  1  0  0  0  0
 22 23  2  0  0  0  0
M  END
> <ID>
16217

> <Formula>
C20H24N2O

> <FW>
308.4174

> <DSSTox_CID>
31608

> <DSSTox_RID>
97492

> <DSSTox_GSID>
57819

> <DSSTox_FileID_Sort>
8559

> <TS_ChemName>
Indecainide

> <TS_ChemName_Synonyms>


> <TS_CASRN>
74517-78-5

> <CASRN_ChemName_Relationship>
primary

> <TS_Description>
single chemical compound

> <ChemNote>


> <STRUCTURE_Shown>
tested chemical

> <STRUCTURE_Formula>
C20H24N2O

> <STRUCTURE_MW>
308.4174

> <STRUCTURE_ChemType>
defined organic

> <STRUCTURE_DefinedOrganicForm>
parent

> <STRUCTURE_IUPAC>
9-[3-(isopropylamino)propyl]-9H-fluorene-9-carboxamide

> <STRUCTURE_SMILES>
NC(=O)C3(CCCNC(C)C)c1ccccc1c2ccccc23

> <STRUCTURE_SMILES_Desalt>
NC(=O)C3(CCCNC(C)C)c1ccccc1c2ccccc23

> <Substance_modify_yyyymmdd>
20131018

$$$$
