7456-24-8
ChemmineR-0915142007XD

 26 28  0  0  0  0  0  0  0  0  1 V2000
    8.6478   -1.1471    0.0000 C   0  0  0  0  0  0  0  0  0  0  0  0
    7.9795    0.0000    0.0000 C   0  0  0  0  0  0  0  0  0  0  0  0
    6.6529    0.0000    0.0000 C   0  0  0  0  0  0  0  0  0  0  0  0
    5.9846   -1.1471    0.0000 C   0  0  0  0  0  0  0  0  0  0  0  0
    6.6529   -2.3041    0.0000 C   0  0  0  0  0  0  0  0  0  0  0  0
    7.9795   -2.3041    0.0000 C   0  0  0  0  0  0  0  0  0  0  0  0
    5.9846   -3.4511    0.0000 N   0  0  0  0  0  0  0  0  0  0  0  0
    6.6529   -4.6082    0.0000 C   0  0  0  0  0  0  0  0  0  0  0  0
    7.9795   -4.6082    0.0000 C   0  0  0  0  0  0  0  0  0  0  0  0
    8.6478   -3.4511    0.0000 C   0  0  0  0  0  0  0  0  0  0  0  0
    8.6478   -5.7552    0.0000 N   0  0  0  0  0  0  0  0  0  0  0  0
    9.9744   -5.7552    0.0000 C   0  0  0  0  0  0  0  0  0  0  0  0
    7.9795   -6.9122    0.0000 C   0  0  0  0  0  0  0  0  0  0  0  0
    4.6580   -3.4511    0.0000 C   0  0  0  0  0  0  0  0  0  0  0  0
    3.9897   -2.3041    0.0000 C   0  0  0  0  0  0  0  0  0  0  0  0
    4.6580   -1.1471    0.0000 S   0  0  0  0  0  0  0  0  0  0  0  0
    2.6632   -2.3041    0.0000 C   0  0  0  0  0  0  0  0  0  0  0  0
    1.9949   -3.4511    0.0000 C   0  0  0  0  0  0  0  0  0  0  0  0
    2.6632   -4.6082    0.0000 C   0  0  0  0  0  0  0  0  0  0  0  0
    1.9949   -5.7552    0.0000 S   0  0  0  0  0  0  0  0  0  0  0  0
    0.8478   -5.0869    0.0000 O   0  0  0  0  0  0  0  0  0  0  0  0
    3.1419   -6.4235    0.0000 O   0  0  0  0  0  0  0  0  0  0  0  0
    1.3266   -6.9122    0.0000 N   0  0  0  0  0  0  0  0  0  0  0  0
    0.0000   -6.9122    0.0000 C   0  0  0  0  0  0  0  0  0  0  0  0
    1.9949   -8.0593    0.0000 C   0  0  0  0  0  0  0  0  0  0  0  0
    3.9897   -4.6082    0.0000 C   0  0  0  0  0  0  0  0  0  0  0  0
  1  2  2  0  0  0  0
  1  6  1  0  0  0  0
  2  3  1  0  0  0  0
  3  4  2  0  0  0  0
  4  5  1  0  0  0  0
  4 16  1  0  0  0  0
  5  6  2  0  0  0  0
  5  7  1  0  0  0  0
  7  8  1  0  0  0  0
  7 14  1  0  0  0  0
  8  9  1  0  0  0  0
  9 10  1  0  0  0  0
  9 11  1  0  0  0  0
 11 12  1  0  0  0  0
 11 13  1  0  0  0  0
 14 15  2  0  0  0  0
 14 26  1  0  0  0  0
 15 16  1  0  0  0  0
 15 17  1  0  0  0  0
 17 18  2  0  0  0  0
 18 19  1  0  0  0  0
 19 20  1  0  0  0  0
 19 26  2  0  0  0  0
 20 21  2  0  0  0  0
 20 22  2  0  0  0  0
 20 23  1  0  0  0  0
 23 24  1  0  0  0  0
 23 25  1  0  0  0  0
M  END
> <ID>
2765

> <Formula>
C19H25N3O2S2

> <FW>
391.5507

> <DSSTox_CID>
3076

> <DSSTox_RID>
76864

> <DSSTox_GSID>
23076

> <DSSTox_FileID_Sort>
1548

> <TS_ChemName>
Fonazine

> <TS_ChemName_Synonyms>


> <TS_CASRN>
7456-24-8

> <CASRN_ChemName_Relationship>
primary

> <TS_Description>
single chemical compound

> <ChemNote>


> <STRUCTURE_Shown>
tested chemical

> <STRUCTURE_Formula>
C19H25N3O2S2

> <STRUCTURE_MW>
391.5507

> <STRUCTURE_ChemType>
defined organic

> <STRUCTURE_DefinedOrganicForm>
parent

> <STRUCTURE_IUPAC>
10-[2-(dimethylamino)propyl]-N,N-dimethyl-10H-phenothiazine-2-sulfonamide

> <STRUCTURE_SMILES>
CN(C)S(=O)(=O)c1cc2N(CC(C)N(C)C)c3ccccc3Sc2cc1

> <STRUCTURE_SMILES_Desalt>
CN(C)S(=O)(=O)c1cc2N(CC(C)N(C)C)c3ccccc3Sc2cc1

> <Substance_modify_yyyymmdd>
20080429

$$$$
