74610-55-2
ChemmineR-0915142007XD

 74 76  0  0  1  0  0  0  0  0  1 V2000
   14.0039   -5.9715    0.0000 C   0  0  0  0  0  0  0  0  0  0  0  0
   16.6969   -7.5874    0.0000 C   0  0  0  0  0  0  0  0  0  0  0  0
   16.6969   -6.0418    0.0000 C   0  0  0  0  0  0  0  0  0  0  0  0
   15.3855   -5.2222    0.0000 C   0  0  0  0  0  0  0  0  0  0  0  0
    2.3652   -5.3158    0.0000 C   0  0  0  0  0  0  0  0  0  0  0  0
    1.1943   -4.6133    0.0000 C   0  0  0  0  0  0  0  0  0  0  0  0
    3.5595   -4.6133    0.0000 C   0  0  0  0  0  0  0  0  0  0  0  0
   14.0039   -7.5405    0.0000 O   0  0  0  0  0  0  0  0  0  0  0  0
   12.0133   -4.8241    0.0000 C   0  0  0  0  0  0  0  0  0  0  0  0
   13.1140   -5.4329    0.0000 O   0  0  0  0  0  0  0  0  0  0  0  0
   21.3571   -7.0019    0.0000 C   0  0  0  0  0  0  0  0  0  0  0  0
    3.5595   -3.2785    0.0000 O   0  0  0  0  0  0  0  0  0  0  0  0
    1.1943   -3.2785    0.0000 C   0  0  0  0  0  0  0  0  0  0  0  0
   19.2963   -8.2431    0.0000 C   0  0  0  0  0  0  0  0  0  0  0  0
   10.9595   -5.3861    0.0000 C   0  0  0  0  0  0  0  0  0  0  0  0
    8.9222   -6.5804    0.0000 C   0  0  0  0  0  0  0  0  0  0  0  0
   19.9754   -7.0019    0.0000 C   0  0  0  0  0  0  0  0  0  0  0  0
   19.9988   -9.3905    0.0000 O   0  0  0  0  0  0  0  0  0  0  0  0
   15.3387   -8.3133    0.0000 C   0  0  0  0  0  0  0  0  0  0  0  0
    7.7981   -7.2361    0.0000 O   0  0  0  0  0  0  0  0  0  0  0  0
   22.0362   -8.1962    0.0000 C   0  0  0  0  0  0  0  0  0  0  0  0
    9.9057   -7.1659    0.0000 C   0  0  0  0  0  0  0  0  0  0  0  0
    2.3652   -2.5994    0.0000 C   0  0  0  0  0  0  0  0  0  0  0  0
   10.9595   -6.5804    0.0000 C   0  0  0  0  0  0  0  0  0  0  0  0
   17.8678   -8.2431    0.0000 O   0  0  0  0  0  0  0  0  0  0  0  0
    6.7678   -5.4329    0.0000 C   0  0  0  0  0  0  0  0  0  0  0  0
   21.3571   -9.3905    0.0000 C   0  0  0  0  0  0  0  0  0  0  0  0
    7.8684   -4.8241    0.0000 C   0  0  0  0  0  0  0  0  0  0  0  0
   12.0133   -3.5829    0.0000 C   0  0  0  0  0  0  0  0  0  0  0  0
    8.9222   -1.8968    0.0000 C   0  0  0  0  0  0  0  0  0  0  0  0
    9.9760   -1.1475    0.0000 C   0  0  0  0  0  0  0  0  0  0  0  0
    6.7678   -6.6272    0.0000 C   0  0  0  0  0  0  0  0  0  0  0  0
    7.8684   -3.5829    0.0000 C   0  0  0  0  0  0  0  0  0  0  0  0
   10.9595   -3.0443    0.0000 C   0  0  0  0  0  0  0  0  0  0  0  0
    8.9222   -3.0443    0.0000 C   0  0  0  0  0  0  0  0  0  0  0  0
    4.6367   -5.3861    0.0000 O   0  0  0  0  0  0  0  0  0  0  0  0
   18.0551   -5.2690    0.0000 N   0  0  0  0  0  0  0  0  0  0  0  0
   10.9595   -1.8968    0.0000 C   0  0  0  0  0  0  0  0  0  0  0  0
    5.6437   -4.8943    0.0000 C   0  0  0  0  0  0  0  0  0  0  0  0
    8.9222   -5.3861    0.0000 O   0  0  0  0  0  0  0  0  0  0  0  0
    9.9760    0.0000    0.0000 O   0  0  0  0  0  0  0  0  0  0  0  0
   15.3855   -3.7000    0.0000 O   0  0  0  0  0  0  0  0  0  0  0  0
    2.3652   -6.6741    0.0000 O   0  0  0  0  0  0  0  0  0  0  0  0
   14.2380   -1.4285    0.0000 O   0  0  0  0  0  0  0  0  0  0  0  0
    0.0000   -5.3158    0.0000 O   0  0  0  0  0  0  0  0  0  0  0  0
   20.8887   -5.5969    0.0000 O   0  0  0  0  0  0  0  0  0  0  0  0
    0.0000   -2.5994    0.0000 O   0  0  0  0  0  0  0  0  0  0  0  0
   23.4178   -8.1962    0.0000 O   0  0  0  0  0  0  0  0  0  0  0  0
   12.0133   -7.2361    0.0000 O   0  0  0  0  0  0  0  0  0  0  0  0
   13.1374   -1.8500    0.0000 C   0  0  0  0  0  0  0  0  0  0  0  0
   22.8792   -6.7209    0.0000 C   0  0  0  0  0  0  0  0  0  0  0  0
    9.9057   -4.8241    0.0000 C   0  0  0  0  0  0  0  0  0  0  0  0
   13.1374   -3.1614    0.0000 C   0  0  0  0  0  0  0  0  0  0  0  0
   15.2918   -9.8355    0.0000 C   0  0  0  0  0  0  0  0  0  0  0  0
    2.3652   -1.2411    0.0000 C   0  0  0  0  0  0  0  0  0  0  0  0
   22.0596  -10.5849    0.0000 C   0  0  0  0  0  0  0  0  0  0  0  0
    5.7374   -7.1659    0.0000 C   0  0  0  0  0  0  0  0  0  0  0  0
    6.7678   -2.9975    0.0000 C   0  0  0  0  0  0  0  0  0  0  0  0
   19.3665   -6.0886    0.0000 C   0  0  0  0  0  0  0  0  0  0  0  0
   18.0551   -3.7469    0.0000 C   0  0  0  0  0  0  0  0  0  0  0  0
   12.0133   -1.2411    0.0000 C   0  0  0  0  0  0  0  0  0  0  0  0
    3.5595   -7.3766    0.0000 C   0  0  0  0  0  0  0  0  0  0  0  0
    0.0000   -6.6741    0.0000 C   0  0  0  0  0  0  0  0  0  0  0  0
    5.7374   -8.4773    0.0000 C   0  0  0  0  0  0  0  0  0  0  0  0
    9.4608  -11.3108    0.0000 C   0  0  0  0  0  0  0  0  0  0  0  0
   10.6317  -11.9665    0.0000 C   0  0  0  0  0  0  0  0  0  0  0  0
    8.2665  -11.9665    0.0000 C   0  0  0  0  0  0  0  0  0  0  0  0
   11.7792  -11.3108    0.0000 C   0  0  0  0  0  0  0  0  0  0  0  0
   11.7792   -9.9526    0.0000 O   0  0  0  0  0  0  0  0  0  0  0  0
    8.2665  -13.3247    0.0000 O   0  0  0  0  0  0  0  0  0  0  0  0
   12.9501  -11.9665    0.0000 O   0  0  0  0  0  0  0  0  0  0  0  0
    7.1190  -11.3108    0.0000 O   0  0  0  0  0  0  0  0  0  0  0  0
   10.6317  -13.3247    0.0000 O   0  0  0  0  0  0  0  0  0  0  0  0
    9.4608   -9.9526    0.0000 O   0  0  0  0  0  0  0  0  0  0  0  0
  1  4  1  0  0  0  0
  1  8  1  0  0  0  0
  1 10  1  1  0  0  0
  2 19  1  0  0  0  0
  2 25  1  6  0  0  0
  2  3  1  0  0  0  0
  3  4  1  0  0  0  0
  3 37  1  1  0  0  0
  4 42  1  6  0  0  0
  5  7  1  0  0  0  0
  5  6  1  0  0  0  0
  5 43  1  6  0  0  0
  6 45  1  6  0  0  0
  6 13  1  0  0  0  0
  7 36  1  1  0  0  0
  7 12  1  0  0  0  0
  8 19  1  0  0  0  0
  9 10  1  6  0  0  0
  9 15  1  0  0  0  0
  9 29  1  0  0  0  0
 11 17  1  0  0  0  0
 11 46  1  1  0  0  0
 11 51  1  6  0  0  0
 11 21  1  0  0  0  0
 12 23  1  0  0  0  0
 13 23  1  0  0  0  0
 13 47  1  6  0  0  0
 14 25  1  1  0  0  0
 14 17  1  0  0  0  0
 14 18  1  0  0  0  0
 15 24  1  0  0  0  0
 15 52  1  6  0  0  0
 16 22  1  0  0  0  0
 16 20  1  0  0  0  0
 16 40  2  0  0  0  0
 18 27  1  0  0  0  0
 19 54  1  1  0  0  0
 20 32  1  0  0  0  0
 21 27  1  0  0  0  0
 21 48  1  1  0  0  0
 22 24  1  0  0  0  0
 23 55  1  1  0  0  0
 24 49  1  6  0  0  0
 26 32  1  0  0  0  0
 26 39  1  1  0  0  0
 26 28  1  0  0  0  0
 27 56  1  6  0  0  0
 28 33  2  0  0  0  0
 29 34  1  0  0  0  0
 29 53  1  6  0  0  0
 30 31  1  0  0  0  0
 30 35  2  0  0  0  0
 31 38  1  0  0  0  0
 31 41  2  0  0  0  0
 32 57  1  6  0  0  0
 33 35  1  0  0  0  0
 33 58  1  0  0  0  0
 34 38  1  0  0  0  0
 36 39  1  0  0  0  0
 37 59  1  0  0  0  0
 37 60  1  0  0  0  0
 38 61  1  6  0  0  0
 43 62  1  0  0  0  0
 44 50  2  0  0  0  0
 45 63  1  0  0  0  0
 50 53  1  0  0  0  0
 57 64  1  0  0  0  0
 65 66  1  0  0  0  0
 65 67  1  0  0  0  0
 65 74  1  6  0  0  0
 66 68  1  0  0  0  0
 66 73  1  6  0  0  0
 67 70  2  0  0  0  0
 67 72  1  0  0  0  0
 68 69  2  0  0  0  0
 68 71  1  0  0  0  0
M  END
> <ID>
11304

> <Formula>
C50H83NO23

> <FW>
1066.1869 (916.1001+150.0868)

> <DSSTox_CID>
25938

> <DSSTox_RID>
81236

> <DSSTox_GSID>
45938

> <DSSTox_FileID_Sort>
5917

> <TS_ChemName>
Tylosin tartrate

> <TS_ChemName_Synonyms>


> <TS_CASRN>
74610-55-2

> <CASRN_ChemName_Relationship>
primary

> <TS_Description>
single chemical compound

> <ChemNote>
absolute stereochem; alternate CAS [1405-54-5]; parent [1401-69-0]

> <STRUCTURE_Shown>
tested chemical

> <STRUCTURE_Formula>
C50H83NO23

> <STRUCTURE_MW>
1066.1869

> <STRUCTURE_ChemType>
defined organic

> <STRUCTURE_DefinedOrganicForm>
complex

> <STRUCTURE_IUPAC>
(2R,3R)-2,3-dihydroxybutanedioic acid - [(2R,3R,4E,6E,9R,11R,12S,13S,14R)-12-{[3,6-dideoxy-4-O-(2,6-dideoxy-3-C-methyl-alpha-L-ribo-hexopyranosyl)-3-(dimethylamino)-beta-D-glucopyranosyl]oxy}-2-ethyl-14-hydroxy-5,9,13-trimethyl-8,16-dioxo-11-(2-oxoethyl)o

> <STRUCTURE_SMILES>
O=C(O)[C@H](O)[C@@H](O)C(=O)O.CN(C)[C@@H]2[C@@H](O)[C@@H](O[C@H](C)[C@H]2O[C@H]1C[C@@](C)(O)[C@@H](O)[C@H](C)O1)O[C@H]4[C@@H](CC=O)C[C@@H](C)C(=O)C=CC(C)=C[C@H](CO[C@@H]3O[C@H](C)[C@@H](O)[C@@H](OC)[C@H]3OC)[C@@H](CC)OC(=O)C[C@@H](O)[C@@H]4C

> <STRUCTURE_SMILES_Desalt>
CN(C)[C@@H]2[C@@H](O)[C@@H](O[C@H](C)[C@H]2O[C@H]1C[C@@](C)(O)[C@@H](O)[C@H](C)O1)O[C@H]4[C@@H](CC=O)C[C@@H](C)C(=O)C=CC(C)=C[C@H](CO[C@@H]3O[C@H](C)[C@@H](O)[C@@H](OC)[C@H]3OC)[C@@H](CC)OC(=O)C[C@@H](O)[C@@H]4C

> <Substance_modify_yyyymmdd>
20111207

$$$$
