74639-40-0
ChemmineR-0915142007XD

 33 33  0  0  1  0  0  0  0  0  1 V2000
   16.6021   -3.9679    0.0000 C   0  0  0  0  0  0  0  0  0  0  0  0
   15.2739   -3.9679    0.0000 C   0  0  0  0  0  0  0  0  0  0  0  0
   14.6098   -5.1134    0.0000 O   0  0  0  0  0  0  0  0  0  0  0  0
   13.2817   -5.1134    0.0000 C   0  0  0  0  0  0  0  0  0  0  0  0
   12.6176   -3.9679    0.0000 O   0  0  0  0  0  0  0  0  0  0  0  0
   12.6342   -6.2756    0.0000 O   0  0  0  0  0  0  0  0  0  0  0  0
   11.3060   -6.2756    0.0000 C   0  0  0  0  0  0  0  0  0  0  0  0
   10.6253   -7.4211    0.0000 C   0  0  0  0  0  0  0  0  0  0  0  0
   11.3060   -8.5667    0.0000 O   0  0  0  0  0  0  0  0  0  0  0  0
   10.6253   -9.7288    0.0000 C   0  0  0  0  0  0  0  0  0  0  0  0
    9.2972   -9.7288    0.0000 O   0  0  0  0  0  0  0  0  0  0  0  0
   11.3060  -10.8577    0.0000 O   0  0  0  0  0  0  0  0  0  0  0  0
   10.6253  -12.0199    0.0000 C   0  0  0  0  0  0  0  0  0  0  0  0
   11.3060  -13.1820    0.0000 C   0  0  0  0  0  0  0  0  0  0  0  0
    9.2972   -7.4211    0.0000 C   0  0  0  0  0  0  0  0  0  0  0  0
    8.6331   -6.2590    0.0000 C   0  0  0  0  0  0  0  0  0  0  0  0
    7.3049   -6.2590    0.0000 C   0  0  0  0  0  0  0  0  0  0  0  0
    6.6574   -5.1134    0.0000 C   0  0  0  0  0  0  0  0  0  0  0  0
    5.3127   -5.1134    0.0000 N   0  0  0  0  0  0  0  0  0  0  0  0
    4.6652   -3.9679    0.0000 C   0  0  0  0  0  0  0  0  0  0  0  0
    5.3127   -2.8057    0.0000 O   0  0  0  0  0  0  0  0  0  0  0  0
    3.3204   -3.9679    0.0000 C   0  0  0  0  0  0  0  0  0  0  0  0
    3.3370   -5.2961    0.0000 H   0  0  0  0  0  0  0  0  0  0  0  0
    3.3370   -2.6397    0.0000 C   0  0  0  0  0  0  0  0  0  0  0  0
    2.1749   -1.9756    0.0000 C   0  0  0  0  0  0  0  0  0  0  0  0
    2.1583   -0.6475    0.0000 S   0  0  0  0  0  0  0  0  0  0  0  0
    1.0293    0.0000    0.0000 C   0  0  0  0  0  0  0  0  0  0  0  0
    2.0088   -3.9679    0.0000 N   0  0  0  0  0  0  0  0  0  0  0  0
    1.3282   -5.1134    0.0000 C   0  0  0  0  0  0  0  0  0  0  0  0
    2.0088   -6.2590    0.0000 C   0  0  0  0  0  0  0  0  0  0  0  0
    0.0000   -5.1134    0.0000 O   0  0  0  0  0  0  0  0  0  0  0  0
    9.2972   -5.1134    0.0000 C   0  0  0  0  0  0  0  0  0  0  0  0
   10.6253   -5.1134    0.0000 C   0  0  0  0  0  0  0  0  0  0  0  0
  1  2  1  0  0  0  0
  2  3  1  0  0  0  0
  3  4  1  0  0  0  0
  4  5  2  0  0  0  0
  4  6  1  0  0  0  0
  6  7  1  0  0  0  0
  7  8  2  0  0  0  0
  7 33  1  0  0  0  0
  8  9  1  0  0  0  0
  8 15  1  0  0  0  0
  9 10  1  0  0  0  0
 10 11  2  0  0  0  0
 10 12  1  0  0  0  0
 12 13  1  0  0  0  0
 13 14  1  0  0  0  0
 15 16  2  0  0  0  0
 16 17  1  0  0  0  0
 16 32  1  0  0  0  0
 17 18  1  0  0  0  0
 18 19  1  0  0  0  0
 19 20  1  0  0  0  0
 20 21  2  0  0  0  0
 20 22  1  0  0  0  0
 22 23  1  6  0  0  0
 22 24  1  0  0  0  0
 22 28  1  0  0  0  0
 24 25  1  0  0  0  0
 25 26  1  0  0  0  0
 26 27  1  0  0  0  0
 28 29  1  0  0  0  0
 29 30  1  0  0  0  0
 29 31  2  0  0  0  0
 32 33  2  0  0  0  0
M  END
> <ID>
16218

> <Formula>
C21H30N2O8S

> <FW>
470.5365

> <DSSTox_CID>
31609

> <DSSTox_RID>
97493

> <DSSTox_GSID>
57820

> <DSSTox_FileID_Sort>
8560

> <TS_ChemName>
Docarpamine

> <TS_ChemName_Synonyms>


> <TS_CASRN>
74639-40-0

> <CASRN_ChemName_Relationship>
primary

> <TS_Description>
single chemical compound

> <ChemNote>


> <STRUCTURE_Shown>
tested chemical

> <STRUCTURE_Formula>
C21H30N2O8S

> <STRUCTURE_MW>
470.5365

> <STRUCTURE_ChemType>
defined organic

> <STRUCTURE_DefinedOrganicForm>
parent

> <STRUCTURE_IUPAC>
4-{2-[(N-acetyl-L-methionyl)amino]ethyl}-1,2-phenylene diethyl biscarbonate

> <STRUCTURE_SMILES>
CC(=O)N[C@@H](CCSC)C(=O)NCCc1cc(OC(=O)OCC)c(cc1)OC(=O)OCC

> <STRUCTURE_SMILES_Desalt>
CC(=O)N[C@@H](CCSC)C(=O)NCCc1cc(OC(=O)OCC)c(cc1)OC(=O)OCC

> <Substance_modify_yyyymmdd>
20131121

$$$$
