74697-28-2
ChemmineR-0915142007XD

 28 28  0  0  0  0  0  0  0  0  1 V2000
   14.9928   -5.9971    0.0000 C    0  0  0  0  0  0  0  0  0  0  0  0
   14.9928   -4.6628    0.0000 C    0  0  0  0  0  0  0  0  0  0  0  0
   13.8384   -4.0181    0.0000 O    0  0  0  0  0  0  0  0  0  0  0  0
   12.6839   -4.6628    0.0000 C    0  0  0  0  0  0  0  0  0  0  0  0
   12.6839   -5.9971    0.0000 O    0  0  0  0  0  0  0  0  0  0  0  0
   11.5295   -4.0181    0.0000 C    0  0  0  0  0  0  0  0  0  0  0  0
   10.3750   -4.6628    0.0000 O    0  0  0  0  0  0  0  0  0  0  0  0
    9.2206   -4.0181    0.0000 C    0  0  0  0  0  0  0  0  0  0  0  0
    8.0661   -4.6628    0.0000 C    0  0  0  0  0  0  0  0  0  0  0  0
    8.0661   -5.9971    0.0000 Cl   0  0  0  0  0  0  0  0  0  0  0  0
    6.9267   -4.0181    0.0000 C    0  0  0  0  0  0  0  0  0  0  0  0
    6.9267   -2.6687    0.0000 C    0  0  0  0  0  0  0  0  0  0  0  0
    8.0661   -2.0090    0.0000 C    0  0  0  0  0  0  0  0  0  0  0  0
    9.2206   -2.6687    0.0000 C    0  0  0  0  0  0  0  0  0  0  0  0
    5.7722   -2.0090    0.0000 C    0  0  0  0  0  0  0  0  0  0  0  0
    4.6178   -2.6687    0.0000 C    0  0  0  0  0  0  0  0  0  0  0  0
    3.4633   -2.0090    0.0000 C    0  0  0  0  0  0  0  0  0  0  0  0
    2.3089   -2.6687    0.0000 C    0  0  0  0  0  0  0  0  0  0  0  0
    1.1544   -2.0090    0.0000 N    0  0  0  0  0  0  0  0  0  0  0  0
    0.0000   -2.6687    0.0000 C    0  0  0  0  0  0  0  0  0  0  0  0
    0.0000   -4.0181    0.0000 C    0  0  0  0  0  0  0  0  0  0  0  0
    1.1544   -0.6747    0.0000 C    0  0  0  0  0  0  0  0  0  0  0  0
    0.0000    0.0000    0.0000 C    0  0  0  0  0  0  0  0  0  0  0  0
    4.6178   -4.0181    0.0000 C    0  0  0  0  0  0  0  0  0  0  0  0
    3.4633   -4.6628    0.0000 O    0  0  0  0  0  0  0  0  0  0  0  0
    5.7722   -4.6628    0.0000 O    0  0  0  0  0  0  0  0  0  0  0  0
    5.7722   -0.6747    0.0000 C    0  0  0  0  0  0  0  0  0  0  0  0
    5.4874   -6.4619    0.0000 Cl   0  0  0  0  0  0  0  0  0  0  0  0
  1  2  1  0  0  0  0
  2  3  1  0  0  0  0
  3  4  1  0  0  0  0
  4  5  2  0  0  0  0
  4  6  1  0  0  0  0
  6  7  1  0  0  0  0
  7  8  1  0  0  0  0
  8  9  2  0  0  0  0
  8 14  1  0  0  0  0
  9 10  1  0  0  0  0
  9 11  1  0  0  0  0
 11 12  2  0  0  0  0
 11 26  1  0  0  0  0
 12 13  1  0  0  0  0
 12 15  1  0  0  0  0
 13 14  2  0  0  0  0
 15 16  2  0  0  0  0
 15 27  1  0  0  0  0
 16 17  1  0  0  0  0
 16 24  1  0  0  0  0
 17 18  1  0  0  0  0
 18 19  1  0  0  0  0
 19 20  1  0  0  0  0
 19 22  1  0  0  0  0
 20 21  1  0  0  0  0
 22 23  1  0  0  0  0
 24 25  2  0  0  0  0
 24 26  1  0  0  0  0
M  END
> <ID>
11734

> <Formula>
C20H27Cl2NO5

> <FW>
432.3381 (395.8771+36.4609)

> <DSSTox_CID>
26499

> <DSSTox_RID>
81668

> <DSSTox_GSID>
46499

> <DSSTox_FileID_Sort>
6349

> <TS_ChemName>
Cloricromen hydrochloride

> <TS_ChemName_Synonyms>


> <TS_CASRN>
74697-28-2

> <CASRN_ChemName_Relationship>
primary

> <TS_Description>
single chemical compound

> <ChemNote>
parent [68206-94-0]

> <STRUCTURE_Shown>
tested chemical

> <STRUCTURE_Formula>
C20H27Cl2NO5

> <STRUCTURE_MW>
432.3381

> <STRUCTURE_ChemType>
defined organic

> <STRUCTURE_DefinedOrganicForm>
complex

> <STRUCTURE_IUPAC>
ethyl ({8-chloro-3-[2-(diethylamino)ethyl]-4-methyl-2-oxo-2H-chromen-7-yl}oxy)acetate hydrochloride (1:1)

> <STRUCTURE_SMILES>
Cl.O=C(OCC)COc2ccc1c(OC(=O)C(CCN(CC)CC)=C1C)c2Cl

> <STRUCTURE_SMILES_Desalt>
O=C(OCC)COc2ccc1c(OC(=O)C(CCN(CC)CC)=C1C)c2Cl

> <Substance_modify_yyyymmdd>
20110812

$$$$
