747-36-4
ChemmineR-0915142007XD

 28 28  0  0  0  0  0  0  0  0  1 V2000
   12.6465   -4.6915    0.0000 C    0  0  0  0  0  0  0  0  0  0  0  0
   11.5154   -3.9868    0.0000 C    0  0  0  0  0  0  0  0  0  0  0  0
   11.5154   -2.6702    0.0000 N    0  0  0  0  0  0  0  0  0  0  0  0
   12.6651   -2.0027    0.0000 C    0  0  0  0  0  0  0  0  0  0  0  0
   13.8147   -2.6702    0.0000 C    0  0  0  0  0  0  0  0  0  0  0  0
   14.9644   -2.0027    0.0000 O    0  0  0  0  0  0  0  0  0  0  0  0
   10.3657   -2.0027    0.0000 C    0  0  0  0  0  0  0  0  0  0  0  0
    9.2160   -2.6702    0.0000 C    0  0  0  0  0  0  0  0  0  0  0  0
    8.0478   -2.0027    0.0000 C    0  0  0  0  0  0  0  0  0  0  0  0
    6.8981   -2.6702    0.0000 C    0  0  0  0  0  0  0  0  0  0  0  0
    6.8981   -3.9868    0.0000 C    0  0  0  0  0  0  0  0  0  0  0  0
    5.7484   -2.0027    0.0000 N    0  0  0  0  0  0  0  0  0  0  0  0
    4.6173   -2.6702    0.0000 C    0  0  0  0  0  0  0  0  0  0  0  0
    4.6173   -3.9868    0.0000 C    0  0  0  0  0  0  0  0  0  0  0  0
    3.4676   -4.6729    0.0000 C    0  0  0  0  0  0  0  0  0  0  0  0
    2.2994   -3.9868    0.0000 N    0  0  0  0  0  0  0  0  0  0  0  0
    2.2994   -2.6702    0.0000 C    0  0  0  0  0  0  0  0  0  0  0  0
    1.1497   -2.0027    0.0000 C    0  0  0  0  0  0  0  0  0  0  0  0
    1.1497   -0.6676    0.0000 C    0  0  0  0  0  0  0  0  0  0  0  0
    2.2994    0.0000    0.0000 C    0  0  0  0  0  0  0  0  0  0  0  0
    3.4676   -0.6676    0.0000 C    0  0  0  0  0  0  0  0  0  0  0  0
    3.4676   -2.0027    0.0000 C    0  0  0  0  0  0  0  0  0  0  0  0
    0.0000    0.0000    0.0000 Cl   0  0  0  0  0  0  0  0  0  0  0  0
   17.2082   -3.5047    0.0000 S    0  0  0  0  0  0  0  0  0  0  0  0
   18.5433   -3.5047    0.0000 O    0  0  0  0  0  0  0  0  0  0  0  0
   15.8916   -3.5047    0.0000 O    0  0  0  0  0  0  0  0  0  0  0  0
   17.2082   -4.8398    0.0000 O    0  0  0  0  0  0  0  0  0  0  0  0
   17.2082   -2.1881    0.0000 O    0  0  0  0  0  0  0  0  0  0  0  0
  1  2  1  0  0  0  0
  2  3  1  0  0  0  0
  3  4  1  0  0  0  0
  3  7  1  0  0  0  0
  4  5  1  0  0  0  0
  5  6  1  0  0  0  0
  7  8  1  0  0  0  0
  8  9  1  0  0  0  0
  9 10  1  0  0  0  0
 10 11  1  0  0  0  0
 10 12  1  0  0  0  0
 12 13  1  0  0  0  0
 13 14  2  0  0  0  0
 13 22  1  0  0  0  0
 14 15  1  0  0  0  0
 15 16  2  0  0  0  0
 16 17  1  0  0  0  0
 17 18  2  0  0  0  0
 17 22  1  0  0  0  0
 18 19  1  0  0  0  0
 19 20  2  0  0  0  0
 19 23  1  0  0  0  0
 20 21  1  0  0  0  0
 21 22  2  0  0  0  0
 24 25  2  0  0  0  0
 24 26  2  0  0  0  0
 24 27  1  0  0  0  0
 24 28  1  0  0  0  0
M  END
> <ID>
12902

> <Formula>
C18H28ClN3O5S

> <FW>
433.9500 (335.8715+98.0785)

> <DSSTox_CID>
27788

> <DSSTox_RID>
82563

> <DSSTox_GSID>
47811

> <DSSTox_FileID_Sort>
7241

> <TS_ChemName>
Hydroxychloroquine sulfate

> <TS_ChemName_Synonyms>


> <TS_CASRN>
747-36-4

> <CASRN_ChemName_Relationship>
primary

> <TS_Description>
single chemical compound

> <ChemNote>
parent [118-42-3]

> <STRUCTURE_Shown>
tested chemical

> <STRUCTURE_Formula>
C18H28ClN3O5S

> <STRUCTURE_MW>
433.95

> <STRUCTURE_ChemType>
defined organic

> <STRUCTURE_DefinedOrganicForm>
complex

> <STRUCTURE_IUPAC>
2-[{4-[(7-chloroquinolin-4-yl)amino]pentyl}(ethyl)amino]ethanol sulfate (1:1)

> <STRUCTURE_SMILES>
O=S(=O)(O)O.CCN(CCO)CCCC(C)Nc1ccnc2cc(Cl)ccc12

> <STRUCTURE_SMILES_Desalt>
CCN(CCO)CCCC(C)Nc1ccnc2cc(Cl)ccc12

> <Substance_modify_yyyymmdd>
20110930

$$$$
