74711-43-6
ChemmineR-0915142007XD

 21 23  0  0  0  0  0  0  0  0  1 V2000
    2.3154   -2.9574    0.0000 C   0  0  0  0  0  0  0  0  0  0  0  0
    2.3365   -1.6418    0.0000 C   0  0  0  0  0  0  0  0  0  0  0  0
    3.3574   -3.8204    0.0000 C   0  0  0  0  0  0  0  0  0  0  0  0
    3.3468   -0.8104    0.0000 S   0  0  0  0  0  0  0  0  0  0  0  0
    4.6414   -3.5152    0.0000 C   0  0  0  0  0  0  0  0  0  0  0  0
    5.2308   -2.2838    0.0000 C   0  0  0  0  0  0  0  0  0  0  0  0
    4.6519   -1.1156    0.0000 C   0  0  0  0  0  0  0  0  0  0  0  0
    6.5569   -2.3680    0.0000 C   0  0  0  0  0  0  0  0  0  0  0  0
    7.3146   -1.3051    0.0000 C   0  0  0  0  0  0  0  0  0  0  0  0
    5.3781    0.0000    0.0000 C   0  0  0  0  0  0  0  0  0  0  0  0
    6.7147   -0.1052    0.0000 C   0  0  0  0  0  0  0  0  0  0  0  0
    1.1682   -3.6100    0.0000 C   0  0  0  0  0  0  0  0  0  0  0  0
    0.0000   -2.9995    0.0000 C   0  0  0  0  0  0  0  0  0  0  0  0
    1.1472   -0.9683    0.0000 C   0  0  0  0  0  0  0  0  0  0  0  0
    0.0000   -1.6313    0.0000 C   0  0  0  0  0  0  0  0  0  0  0  0
    3.0732   -5.1150    0.0000 O   0  0  0  0  0  0  0  0  0  0  0  0
    8.6407   -1.3998    0.0000 C   0  0  0  0  0  0  0  0  0  0  0  0
    9.3775   -0.3157    0.0000 C   0  0  0  0  0  0  0  0  0  0  0  0
    9.1985   -2.5996    0.0000 C   0  0  0  0  0  0  0  0  0  0  0  0
    8.4618   -3.6942    0.0000 O   0  0  0  0  0  0  0  0  0  0  0  0
   10.5247   -2.7048    0.0000 O   0  0  0  0  0  0  0  0  0  0  0  0
  1  3  1  0  0  0  0
  1 12  1  0  0  0  0
  1  2  2  0  0  0  0
  2  4  1  0  0  0  0
  2 14  1  0  0  0  0
  3  5  1  0  0  0  0
  3 16  2  0  0  0  0
  4  7  1  0  0  0  0
  5  6  1  0  0  0  0
  6  8  1  0  0  0  0
  6  7  2  0  0  0  0
  7 10  1  0  0  0  0
  8  9  2  0  0  0  0
  9 11  1  0  0  0  0
  9 17  1  0  0  0  0
 10 11  2  0  0  0  0
 12 13  2  0  0  0  0
 13 15  1  0  0  0  0
 14 15  2  0  0  0  0
 17 18  1  0  0  0  0
 17 19  1  0  0  0  0
 19 20  1  0  0  0  0
 19 21  2  0  0  0  0
M  END
> <ID>
14060

> <Formula>
C17H14O3S

> <FW>
298.3563

> <DSSTox_CID>
29002

> <DSSTox_RID>
83267

> <DSSTox_GSID>
49076

> <DSSTox_FileID_Sort>
7942

> <TS_ChemName>
Zaltoprofen

> <TS_ChemName_Synonyms>


> <TS_CASRN>
74711-43-6

> <CASRN_ChemName_Relationship>
primary

> <TS_Description>
single chemical compound

> <ChemNote>


> <STRUCTURE_Shown>
tested chemical

> <STRUCTURE_Formula>
C17H14O3S

> <STRUCTURE_MW>
298.3563

> <STRUCTURE_ChemType>
defined organic

> <STRUCTURE_DefinedOrganicForm>
parent

> <STRUCTURE_IUPAC>
2-(10-oxo-10,11-dihydrodibenzo[b,f]thiepin-2-yl)propanoic acid

> <STRUCTURE_SMILES>
O=C(O)C(C)c1cc2CC(=O)c3ccccc3Sc2cc1

> <STRUCTURE_SMILES_Desalt>
O=C(O)C(C)c1cc2CC(=O)c3ccccc3Sc2cc1

> <Substance_modify_yyyymmdd>
20111204

$$$$
