74772-77-3
ChemmineR-0915142007XD

 23 25  0  0  0  0  0  0  0  0  1 V2000
   10.2077   -3.4602    0.0000 C   0  0  0  0  0  0  0  0  0  0  0  0
    9.5774   -4.6342    0.0000 C   0  0  0  0  0  0  0  0  0  0  0  0
    9.7752   -2.1503    0.0000 S   0  0  0  0  0  0  0  0  0  0  0  0
   11.5671   -3.4602    0.0000 C   0  0  0  0  0  0  0  0  0  0  0  0
    8.2180   -4.6342    0.0000 C   0  0  0  0  0  0  0  0  0  0  0  0
   10.8750   -1.3594    0.0000 C   0  0  0  0  0  0  0  0  0  0  0  0
   11.9749   -2.1503    0.0000 N   0  0  0  0  0  0  0  0  0  0  0  0
   12.3580   -4.5477    0.0000 O   0  0  0  0  0  0  0  0  0  0  0  0
    7.5507   -5.8082    0.0000 C   0  0  0  0  0  0  0  0  0  0  0  0
    7.5507   -3.4602    0.0000 C   0  0  0  0  0  0  0  0  0  0  0  0
   10.8750    0.0000    0.0000 O   0  0  0  0  0  0  0  0  0  0  0  0
    6.1913   -5.8082    0.0000 C   0  0  0  0  0  0  0  0  0  0  0  0
    6.1913   -3.4602    0.0000 C   0  0  0  0  0  0  0  0  0  0  0  0
    5.4993   -4.6342    0.0000 C   0  0  0  0  0  0  0  0  0  0  0  0
    4.1399   -4.6342    0.0000 O   0  0  0  0  0  0  0  0  0  0  0  0
    3.5097   -3.5344    0.0000 C   0  0  0  0  0  0  0  0  0  0  0  0
    2.2244   -3.5344    0.0000 C   0  0  0  0  0  0  0  0  0  0  0  0
    2.2244   -2.2491    0.0000 C   0  0  0  0  0  0  0  0  0  0  0  0
    1.0999   -4.1646    0.0000 C   0  0  0  0  0  0  0  0  0  0  0  0
    2.8547   -4.6342    0.0000 C   0  0  0  0  0  0  0  0  0  0  0  0
    1.0999   -1.5942    0.0000 C   0  0  0  0  0  0  0  0  0  0  0  0
    0.0000   -3.5344    0.0000 C   0  0  0  0  0  0  0  0  0  0  0  0
    0.0000   -2.2491    0.0000 C   0  0  0  0  0  0  0  0  0  0  0  0
  1  2  1  0  0  0  0
  1  3  1  0  0  0  0
  1  4  1  0  0  0  0
  2  5  1  0  0  0  0
  3  6  1  0  0  0  0
  4  7  1  0  0  0  0
  4  8  2  0  0  0  0
  5  9  2  0  0  0  0
  5 10  1  0  0  0  0
  6 11  2  0  0  0  0
  6  7  1  0  0  0  0
  9 12  1  0  0  0  0
 10 13  2  0  0  0  0
 12 14  2  0  0  0  0
 13 14  1  0  0  0  0
 14 15  1  0  0  0  0
 15 16  1  0  0  0  0
 16 17  1  0  0  0  0
 17 18  1  0  0  0  0
 17 19  1  0  0  0  0
 17 20  1  0  0  0  0
 18 21  1  0  0  0  0
 19 22  1  0  0  0  0
 21 23  1  0  0  0  0
 22 23  1  0  0  0  0
M  END
> <ID>
7949

> <Formula>
C18H23NO3S

> <FW>
333.4451

> <DSSTox_CID>
20757

> <DSSTox_RID>
79589

> <DSSTox_GSID>
40757

> <DSSTox_FileID_Sort>
4271

> <TS_ChemName>
Ciglitizone

> <TS_ChemName_Synonyms>
Ciglitazone

> <TS_CASRN>
74772-77-3

> <CASRN_ChemName_Relationship>
primary

> <TS_Description>
single chemical compound

> <ChemNote>


> <STRUCTURE_Shown>
tested chemical

> <STRUCTURE_Formula>
C18H23NO3S

> <STRUCTURE_MW>
333.4451

> <STRUCTURE_ChemType>
defined organic

> <STRUCTURE_DefinedOrganicForm>
parent

> <STRUCTURE_IUPAC>
5-{4-[(1-methylcyclohexyl)methoxy]benzyl}-1,3-thiazolidine-2,4-dione

> <STRUCTURE_SMILES>
CC1(CCCCC1)COc3ccc(CC2SC(=O)NC2=O)cc3

> <STRUCTURE_SMILES_Desalt>
CC1(CCCCC1)COc3ccc(CC2SC(=O)NC2=O)cc3

> <Substance_modify_yyyymmdd>
20080429

$$$$
