74863-84-6
ChemmineR-0915142007XD

 35 37  0  0  1  0  0  0  0  0  1 V2000
   11.8112   -0.6605    0.0000 C   0  0  0  0  0  0  0  0  0  0  0  0
   11.8112   -1.9815    0.0000 C   0  0  0  0  0  0  0  0  0  0  0  0
   10.6845    0.0000    0.0000 C   0  0  0  0  0  0  0  0  0  0  0  0
   10.6845   -2.6290    0.0000 N   0  0  0  0  0  0  0  0  0  0  0  0
    9.5448   -0.6605    0.0000 C   0  0  0  0  0  0  0  0  0  0  0  0
    9.5448   -1.9815    0.0000 C   0  0  0  0  0  0  0  0  0  0  0  0
    8.3922    0.0000    0.0000 C   0  0  0  0  0  0  0  0  0  0  0  0
    7.2525   -0.6605    0.0000 C   0  0  0  0  0  0  0  0  0  0  0  0
    8.3922   -2.6290    0.0000 C   0  0  0  0  0  0  0  0  0  0  0  0
    7.2525   -1.9815    0.0000 C   0  0  0  0  0  0  0  0  0  0  0  0
    8.3922   -3.9500    0.0000 S   0  0  0  0  0  0  0  0  0  0  0  0
    7.0841   -3.9500    0.0000 O   0  0  0  0  0  0  0  0  0  0  0  0
    9.7132   -3.9500    0.0000 O   0  0  0  0  0  0  0  0  0  0  0  0
    8.3922   -5.2710    0.0000 N   0  0  0  0  0  0  0  0  0  0  0  0
   12.9509    0.0000    0.0000 C   0  0  0  0  0  0  0  0  0  0  0  0
    7.2525   -5.9315    0.0000 C   0  0  0  0  0  0  0  0  0  0  0  0
    7.2525   -7.2525    0.0000 C   0  0  0  0  0  0  0  0  0  0  0  0
    6.1128   -5.2710    0.0000 C   0  0  0  0  0  0  0  0  0  0  0  0
    6.1128   -7.9000    0.0000 N   0  0  0  0  0  0  0  0  0  0  0  0
    8.3922   -7.9000    0.0000 O   0  0  0  0  0  0  0  0  0  0  0  0
    6.1128   -9.2210    0.0000 C   0  0  0  0  0  0  0  0  0  0  0  0
    4.9731   -7.2525    0.0000 C   0  0  0  0  0  0  0  0  0  0  0  0
    4.9731   -9.8815    0.0000 C   0  0  0  0  0  0  0  0  0  0  0  0
    3.8205   -7.9000    0.0000 C   0  0  0  0  0  0  0  0  0  0  0  0
    3.8205   -9.2210    0.0000 C   0  0  0  0  0  0  0  0  0  0  0  0
    2.6808   -9.8815    0.0000 C   0  0  0  0  0  0  0  0  0  0  0  0
    7.2525   -9.8815    0.0000 C   0  0  0  0  0  0  0  0  0  0  0  0
    7.2525  -11.2025    0.0000 O   0  0  0  0  0  0  0  0  0  0  0  0
    8.3922   -9.2210    0.0000 O   0  0  0  0  0  0  0  0  0  0  0  0
    4.9731   -5.9315    0.0000 C   0  0  0  0  0  0  0  0  0  0  0  0
    3.8205   -5.2710    0.0000 C   0  0  0  0  0  0  0  0  0  0  0  0
    2.6679   -5.9445    0.0000 N   0  0  0  0  0  0  0  0  0  0  0  0
    1.1397   -5.0767    0.0000 C   0  0  0  0  0  0  0  0  0  0  0  0
    0.0000   -5.7372    0.0000 N   0  0  0  0  0  0  0  0  0  0  0  0
    1.1397   -3.7558    0.0000 N   0  0  0  0  0  0  0  0  0  0  0  0
  1  2  1  0  0  0  0
  1  3  1  0  0  0  0
  1 15  1  1  0  0  0
  2  4  1  0  0  0  0
  3  5  1  0  0  0  0
  4  6  1  0  0  0  0
  5  7  1  0  0  0  0
  5  6  2  0  0  0  0
  6  9  1  0  0  0  0
  7  8  2  0  0  0  0
  8 10  1  0  0  0  0
  9 10  2  0  0  0  0
  9 11  1  0  0  0  0
 11 12  2  0  0  0  0
 11 13  2  0  0  0  0
 11 14  1  0  0  0  0
 16 14  1  6  0  0  0
 16 17  1  0  0  0  0
 16 18  1  0  0  0  0
 17 19  1  0  0  0  0
 17 20  2  0  0  0  0
 18 30  1  0  0  0  0
 19 21  1  0  0  0  0
 19 22  1  0  0  0  0
 21 23  1  0  0  0  0
 21 27  1  1  0  0  0
 22 24  1  0  0  0  0
 23 25  1  0  0  0  0
 24 25  1  0  0  0  0
 25 26  1  6  0  0  0
 27 28  2  0  0  0  0
 27 29  1  0  0  0  0
 30 31  1  0  0  0  0
 31 32  1  0  0  0  0
 32 33  1  0  0  0  0
 33 34  1  0  0  0  0
 33 35  2  0  0  0  0
M  END
> <ID>
11706

> <Formula>
C23H36N6O5S

> <FW>
508.6341

> <DSSTox_CID>
26467

> <DSSTox_RID>
81640

> <DSSTox_GSID>
46467

> <DSSTox_FileID_Sort>
6321

> <TS_ChemName>
Argatroban

> <TS_ChemName_Synonyms>


> <TS_CASRN>
74863-84-6

> <CASRN_ChemName_Relationship>
primary

> <TS_Description>
single chemical compound

> <ChemNote>
stereochem; tautomers

> <STRUCTURE_Shown>
tested chemical

> <STRUCTURE_Formula>
C23H36N6O5S

> <STRUCTURE_MW>
508.6341

> <STRUCTURE_ChemType>
defined organic

> <STRUCTURE_DefinedOrganicForm>
parent

> <STRUCTURE_IUPAC>
(2R,4R)-4-methyl-1-(N~2~-{[(3R)-3-methyl-1,2,3,4-tetrahydroquinolin-8-yl]sulfonyl}-L-arginyl)piperidine-2-carboxylic acid

> <STRUCTURE_SMILES>
C[C@H]1C[C@H](C(=O)O)N(CC1)C(=O)[C@H](CCCNC(=N)N)NS(=O)(=O)c3cccc2C[C@@H](C)CNc23

> <STRUCTURE_SMILES_Desalt>
C[C@H]1C[C@H](C(=O)O)N(CC1)C(=O)[C@H](CCCNC(=N)N)NS(=O)(=O)c3cccc2C[C@@H](C)CNc23

> <Substance_modify_yyyymmdd>
20110812

$$$$
