749-02-0
ChemmineR-0915142007XD

 29 32  0  0  0  0  0  0  0  0  1 V2000
   12.3392   -2.2643    0.0000 C   0  0  0  0  0  0  0  0  0  0  0  0
   13.2565   -3.1099    0.0000 N   0  0  0  0  0  0  0  0  0  0  0  0
   13.8727   -0.9889    0.0000 N   0  0  0  0  0  0  0  0  0  0  0  0
   12.5112   -1.0319    0.0000 C   0  0  0  0  0  0  0  0  0  0  0  0
   14.3313   -2.2643    0.0000 C   0  0  0  0  0  0  0  0  0  0  0  0
   11.2931   -1.3901    0.0000 C   0  0  0  0  0  0  0  0  0  0  0  0
   12.1099   -3.6115    0.0000 C   0  0  0  0  0  0  0  0  0  0  0  0
    9.7739   -3.2102    0.0000 N   0  0  0  0  0  0  0  0  0  0  0  0
   13.2565   -4.3281    0.0000 C   0  0  0  0  0  0  0  0  0  0  0  0
    5.1306   -2.3933    0.0000 C   0  0  0  0  0  0  0  0  0  0  0  0
    3.8408   -2.8519    0.0000 C   0  0  0  0  0  0  0  0  0  0  0  0
   11.6370    0.0000    0.0000 O   0  0  0  0  0  0  0  0  0  0  0  0
   10.0032   -1.8774    0.0000 C   0  0  0  0  0  0  0  0  0  0  0  0
   10.8345   -4.0844    0.0000 C   0  0  0  0  0  0  0  0  0  0  0  0
    5.3599   -1.0462    0.0000 O   0  0  0  0  0  0  0  0  0  0  0  0
    2.7946   -1.9921    0.0000 C   0  0  0  0  0  0  0  0  0  0  0  0
    3.5972   -4.2134    0.0000 C   0  0  0  0  0  0  0  0  0  0  0  0
    1.2755   -3.7978    0.0000 C   0  0  0  0  0  0  0  0  0  0  0  0
    2.3360   -4.6720    0.0000 C   0  0  0  0  0  0  0  0  0  0  0  0
    1.5191   -2.4507    0.0000 C   0  0  0  0  0  0  0  0  0  0  0  0
    0.0000   -4.2707    0.0000 F   0  0  0  0  0  0  0  0  0  0  0  0
    8.4985   -3.6831    0.0000 C   0  0  0  0  0  0  0  0  0  0  0  0
    7.4379   -2.8089    0.0000 C   0  0  0  0  0  0  0  0  0  0  0  0
    6.1625   -3.2675    0.0000 C   0  0  0  0  0  0  0  0  0  0  0  0
   14.3170   -4.9730    0.0000 C   0  0  0  0  0  0  0  0  0  0  0  0
   12.1673   -4.9586    0.0000 C   0  0  0  0  0  0  0  0  0  0  0  0
   12.1673   -6.2341    0.0000 C   0  0  0  0  0  0  0  0  0  0  0  0
   14.3170   -6.2341    0.0000 C   0  0  0  0  0  0  0  0  0  0  0  0
   13.2421   -6.8360    0.0000 C   0  0  0  0  0  0  0  0  0  0  0  0
  1  2  1  0  0  0  0
  1  4  1  0  0  0  0
  1  6  1  0  0  0  0
  1  7  1  0  0  0  0
  2  5  1  0  0  0  0
  2  9  1  0  0  0  0
  3  4  1  0  0  0  0
  3  5  1  0  0  0  0
  4 12  2  0  0  0  0
  6 13  1  0  0  0  0
  7 14  1  0  0  0  0
  8 14  1  0  0  0  0
  8 22  1  0  0  0  0
  8 13  1  0  0  0  0
  9 25  2  0  0  0  0
  9 26  1  0  0  0  0
 10 24  1  0  0  0  0
 10 11  1  0  0  0  0
 10 15  2  0  0  0  0
 11 16  1  0  0  0  0
 11 17  2  0  0  0  0
 16 20  2  0  0  0  0
 17 19  1  0  0  0  0
 18 19  2  0  0  0  0
 18 21  1  0  0  0  0
 18 20  1  0  0  0  0
 22 23  1  0  0  0  0
 23 24  1  0  0  0  0
 25 28  1  0  0  0  0
 26 27  2  0  0  0  0
 27 29  1  0  0  0  0
 28 29  2  0  0  0  0
M  END
> <ID>
10819

> <Formula>
C23H26FN3O2

> <FW>
395.4698

> <DSSTox_CID>
25205

> <DSSTox_RID>
80749

> <DSSTox_GSID>
45205

> <DSSTox_FileID_Sort>
5430

> <TS_ChemName>
Spiperone

> <TS_ChemName_Synonyms>


> <TS_CASRN>
749-02-0

> <CASRN_ChemName_Relationship>
primary

> <TS_Description>
single chemical compound

> <ChemNote>


> <STRUCTURE_Shown>
tested chemical

> <STRUCTURE_Formula>
C23H26FN3O2

> <STRUCTURE_MW>
395.4698

> <STRUCTURE_ChemType>
defined organic

> <STRUCTURE_DefinedOrganicForm>
parent

> <STRUCTURE_IUPAC>
8-[4-(4-fluorophenyl)-4-oxobutyl]-1-phenyl-1,3,8-triazaspiro[4.5]decan-4-one

> <STRUCTURE_SMILES>
Fc1ccc(cc1)C(=O)CCCN2CCC4(CC2)C(=O)NCN4c3ccccc3

> <STRUCTURE_SMILES_Desalt>
Fc1ccc(cc1)C(=O)CCCN2CCC4(CC2)C(=O)NCN4c3ccccc3

> <Substance_modify_yyyymmdd>
20100107

$$$$
