7491-74-9
ChemmineR-0915142007XD

 10 10  0  0  0  0  0  0  0  0  1 V2000
    2.1319   -2.1152    0.0000 N   0  0  0  0  0  0  0  0  0  0  0  0
    1.0604   -1.3283    0.0000 C   0  0  0  0  0  0  0  0  0  0  0  0
    3.2704   -1.4901    0.0000 C   0  0  0  0  0  0  0  0  0  0  0  0
    4.4257   -2.1598    0.0000 C   0  0  0  0  0  0  0  0  0  0  0  0
    1.0604    0.0000    0.0000 O   0  0  0  0  0  0  0  0  0  0  0  0
    4.4257   -3.4937    0.0000 O   0  0  0  0  0  0  0  0  0  0  0  0
    5.5809   -1.4901    0.0000 N   0  0  0  0  0  0  0  0  0  0  0  0
    1.7133   -3.3988    0.0000 C   0  0  0  0  0  0  0  0  0  0  0  0
    0.0000   -2.1152    0.0000 C   0  0  0  0  0  0  0  0  0  0  0  0
    0.3851   -3.3988    0.0000 C   0  0  0  0  0  0  0  0  0  0  0  0
  1  2  1  0  0  0  0
  1  3  1  0  0  0  0
  1  8  1  0  0  0  0
  2  5  2  0  0  0  0
  2  9  1  0  0  0  0
  3  4  1  0  0  0  0
  4  6  2  0  0  0  0
  4  7  1  0  0  0  0
  8 10  1  0  0  0  0
  9 10  1  0  0  0  0
M  END
> <ID>
10146

> <Formula>
C6H10N2O2

> <FW>
142.1558

> <DSSTox_CID>
24491

> <DSSTox_RID>
80267

> <DSSTox_GSID>
44491

> <DSSTox_FileID_Sort>
4949

> <TS_ChemName>
Piracetam

> <TS_ChemName_Synonyms>


> <TS_CASRN>
7491-74-9

> <CASRN_ChemName_Relationship>
primary

> <TS_Description>
single chemical compound

> <ChemNote>


> <STRUCTURE_Shown>
tested chemical

> <STRUCTURE_Formula>
C6H10N2O2

> <STRUCTURE_MW>
142.1558

> <STRUCTURE_ChemType>
defined organic

> <STRUCTURE_DefinedOrganicForm>
parent

> <STRUCTURE_IUPAC>
2-(2-oxopyrrolidin-1-yl)acetamide

> <STRUCTURE_SMILES>
O=C1CCCN1CC(=O)N

> <STRUCTURE_SMILES_Desalt>
O=C1CCCN1CC(=O)N

> <Substance_modify_yyyymmdd>
20091116

$$$$
