7492-29-7
ChemmineR-0915142007XD

 22 25  0  0  0  0  0  0  0  0  1 V2000
    1.0567   -1.0726    0.0000 C    0  0  0  0  0  0  0  0  0  0  0  0
    2.0975   -1.9068    0.0000 N    0  0  0  0  0  0  0  0  0  0  0  0
    3.2972   -1.3268    0.0000 C    0  0  0  0  0  0  0  0  0  0  0  0
    3.2972    0.0000    0.0000 O    0  0  0  0  0  0  0  0  0  0  0  0
    4.4890   -1.9068    0.0000 C    0  0  0  0  0  0  0  0  0  0  0  0
    4.7909   -3.2019    0.0000 N    0  0  0  0  0  0  0  0  0  0  0  0
    6.1018   -3.3926    0.0000 C    0  0  0  0  0  0  0  0  0  0  0  0
    6.5865   -4.6320    0.0000 C    0  0  0  0  0  0  0  0  0  0  0  0
    5.7681   -5.6728    0.0000 C    0  0  0  0  0  0  0  0  0  0  0  0
    6.2448   -6.9043    0.0000 C    0  0  0  0  0  0  0  0  0  0  0  0
    5.4106   -7.9451    0.0000 C    0  0  0  0  0  0  0  0  0  0  0  0
    4.0997   -7.7544    0.0000 C    0  0  0  0  0  0  0  0  0  0  0  0
    3.6230   -6.5229    0.0000 C    0  0  0  0  0  0  0  0  0  0  0  0
    4.4334   -5.4821    0.0000 C    0  0  0  0  0  0  0  0  0  0  0  0
    3.9567   -4.2427    0.0000 C    0  0  0  0  0  0  0  0  0  0  0  0
    2.6298   -4.2427    0.0000 C    0  0  0  0  0  0  0  0  0  0  0  0
    2.1452   -5.4980    0.0000 C    0  0  0  0  0  0  0  0  0  0  0  0
    0.8342   -5.6569    0.0000 C    0  0  0  0  0  0  0  0  0  0  0  0
    0.0000   -4.6320    0.0000 C    0  0  0  0  0  0  0  0  0  0  0  0
    0.4767   -3.3767    0.0000 C    0  0  0  0  0  0  0  0  0  0  0  0
    1.8115   -3.2178    0.0000 C    0  0  0  0  0  0  0  0  0  0  0  0
    0.3496   -6.9043    0.0000 Cl   0  0  0  0  0  0  0  0  0  0  0  0
  1  2  1  0  0  0  0
  2  3  1  0  0  0  0
  2 21  1  0  0  0  0
  3  4  2  0  0  0  0
  3  5  1  0  0  0  0
  5  6  1  0  0  0  0
  6  7  1  0  0  0  0
  6 15  1  0  0  0  0
  7  8  1  0  0  0  0
  8  9  1  0  0  0  0
  9 10  2  0  0  0  0
  9 14  1  0  0  0  0
 10 11  1  0  0  0  0
 11 12  2  0  0  0  0
 12 13  1  0  0  0  0
 13 14  2  0  0  0  0
 14 15  1  0  0  0  0
 15 16  1  0  0  0  0
 16 17  2  0  0  0  0
 16 21  1  0  0  0  0
 17 18  1  0  0  0  0
 18 19  2  0  0  0  0
 18 22  1  0  0  0  0
 19 20  1  0  0  0  0
 20 21  2  0  0  0  0
M  END
> <ID>
11543

> <Formula>
C18H17ClN2O

> <FW>
312.7934

> <DSSTox_CID>
26249

> <DSSTox_RID>
81476

> <DSSTox_GSID>
46249

> <DSSTox_FileID_Sort>
6157

> <TS_ChemName>
Clazolam

> <TS_ChemName_Synonyms>


> <TS_CASRN>
7492-29-7

> <CASRN_ChemName_Relationship>
primary

> <TS_Description>
single chemical compound

> <ChemNote>


> <STRUCTURE_Shown>
tested chemical

> <STRUCTURE_Formula>
C18H17ClN2O

> <STRUCTURE_MW>
312.7934

> <STRUCTURE_ChemType>
defined organic

> <STRUCTURE_DefinedOrganicForm>
parent

> <STRUCTURE_IUPAC>
2-chloro-5-methyl-5,9,10,14b-tetrahydroisoquinolino[2,1-d][1,4]benzodiazepin-6(7H)-one

> <STRUCTURE_SMILES>
Clc1ccc2N(C)C(=O)CN3CCc4ccccc4C3c2c1

> <STRUCTURE_SMILES_Desalt>
Clc1ccc2N(C)C(=O)CN3CCc4ccccc4C3c2c1

> <Substance_modify_yyyymmdd>
20110817

$$$$
