7492-30-0
ChemmineR-0915142007XD

 22 20  0  0  1  0  0  0  0  0  2 V2000
    0.0000   -1.9534    0.0000 K   0  3  0  0  0  0  0  0  0  0  0  0
    2.5484   -1.3712    0.0000 C   0  0  0  0  0  0  0  0  0  0  0  0
    3.6998   -2.0181    0.0000 C   0  0  0  0  0  0  0  0  0  0  0  0
    4.8123   -1.3712    0.0000 C   0  0  0  0  0  0  0  0  0  0  0  0
    6.0283   -2.0181    0.0000 C   0  0  0  0  0  0  0  0  0  0  0  0
    7.1796   -1.3712    0.0000 C   0  0  0  0  0  0  0  0  0  0  0  0
    8.3309   -2.0181    0.0000 C   0  0  0  0  0  0  0  0  0  0  0  0
    9.4823   -1.3712    0.0000 C   0  0  0  0  0  0  0  0  0  0  0  0
   10.6465   -2.0181    0.0000 C   0  0  0  0  0  0  0  0  0  0  0  0
   11.7849   -1.3712    0.0000 C   0  0  0  0  0  0  0  0  0  0  0  0
   12.9362   -2.0181    0.0000 C   0  0  0  0  0  0  0  0  0  0  0  0
   12.9362   -3.3634    0.0000 C   0  0  0  0  0  0  0  0  0  0  0  0
   11.7849   -4.0620    0.0000 C   0  0  0  0  0  0  0  0  0  0  0  0
   11.7849   -5.3815    0.0000 C   0  0  0  0  0  0  0  0  0  0  0  0
   10.6465   -6.0153    0.0000 C   0  0  0  0  0  0  0  0  0  0  0  0
   10.6465   -7.3866    0.0000 C   0  0  0  0  0  0  0  0  0  0  0  0
    9.4823   -8.0981    0.0000 C   0  0  0  0  0  0  0  0  0  0  0  0
    9.4823   -9.3788    0.0000 C   0  0  0  0  0  0  0  0  0  0  0  0
    8.3309  -10.0514    0.0000 C   0  0  0  0  0  0  0  0  0  0  0  0
    2.5484    0.0000    0.0000 O   0  0  0  0  0  0  0  0  0  0  0  0
    1.3971   -2.0181    0.0000 O   0  5  0  0  0  0  0  0  0  0  0  0
   10.6465   -3.3634    0.0000 O   0  0  0  0  0  0  0  0  0  0  0  0
  2  3  1  0  0  0  0
  2 21  1  0  0  0  0
  2 20  2  0  0  0  0
  3  4  1  0  0  0  0
  4  5  1  0  0  0  0
  5  6  1  0  0  0  0
  6  7  1  0  0  0  0
  7  8  1  0  0  0  0
  8  9  1  0  0  0  0
  9 10  1  0  0  0  0
 10 11  2  0  0  0  0
 11 12  1  0  0  0  0
 12 13  1  0  0  0  0
 13 14  1  0  0  0  0
 13 22  1  1  0  0  0
 14 15  1  0  0  0  0
 15 16  1  0  0  0  0
 16 17  1  0  0  0  0
 17 18  1  0  0  0  0
 18 19  1  0  0  0  0
M  END
> <ID>
9244

> <Formula>
C18H33KO3

> <FW>
336.5511 (39.0978+297.4534)

> <DSSTox_CID>
22322

> <DSSTox_RID>
79994

> <DSSTox_GSID>
42322

> <DSSTox_FileID_Sort>
4676

> <TS_ChemName>
Potassium ricinoleate

> <TS_ChemName_Synonyms>


> <TS_CASRN>
7492-30-0

> <CASRN_ChemName_Relationship>
primary

> <TS_Description>
single chemical compound

> <ChemNote>
stereochem; parent [141-22-0]

> <STRUCTURE_Shown>
tested chemical

> <STRUCTURE_Formula>
C18H33KO3

> <STRUCTURE_MW>
336.5511

> <STRUCTURE_ChemType>
defined organic

> <STRUCTURE_DefinedOrganicForm>
salt

> <STRUCTURE_IUPAC>
potassium (9Z,12R)-12-hydroxyoctadec-9-enoate

> <STRUCTURE_SMILES>
[K+].CCCCCC[C@@H](O)C/C=C\CCCCCCCC([O-])=O

> <STRUCTURE_SMILES_Desalt>
CCCCCC[C@@H](O)C/C=C\CCCCCCCC(=O)O

> <Substance_modify_yyyymmdd>
20080825

$$$$
