7492-31-1
ChemmineR-0915142007XD

 34 31  0  0  1  0  0  0  0  0  1 V2000
   10.7454   -1.9838    0.0000 C   0  0  0  0  0  0  0  0  0  0  0  0
   11.8860   -2.6450    0.0000 C   0  0  0  0  0  0  0  0  0  0  0  0
   15.3741   -0.6613    0.0000 N   0  0  0  0  0  0  0  0  0  0  0  0
   13.0597   -1.9838    0.0000 C   0  0  0  0  0  0  0  0  0  0  0  0
   15.3741   -1.9838    0.0000 C   0  0  0  0  0  0  0  0  0  0  0  0
    9.5882   -2.6450    0.0000 C   0  0  0  0  0  0  0  0  0  0  0  0
   10.7454   -0.6613    0.0000 C   0  0  0  0  0  0  0  0  0  0  0  0
   14.2169    0.0000    0.0000 C   0  0  0  0  0  0  0  0  0  0  0  0
   14.2169   -2.6450    0.0000 C   0  0  0  0  0  0  0  0  0  0  0  0
   16.5313   -2.6450    0.0000 C   0  0  0  0  0  0  0  0  0  0  0  0
    5.7860   -1.9838    0.0000 C   0  0  0  0  0  0  0  0  0  0  0  0
    4.5792   -2.6450    0.0000 C   0  0  0  0  0  0  0  0  0  0  0  0
    1.1076   -0.6613    0.0000 N   0  0  0  0  0  0  0  0  0  0  0  0
    3.4716   -1.9838    0.0000 C   0  0  0  0  0  0  0  0  0  0  0  0
    1.1076   -1.9838    0.0000 C   0  0  0  0  0  0  0  0  0  0  0  0
    6.8936   -2.6450    0.0000 C   0  0  0  0  0  0  0  0  0  0  0  0
    5.7860   -0.6613    0.0000 C   0  0  0  0  0  0  0  0  0  0  0  0
    2.3144    0.0000    0.0000 C   0  0  0  0  0  0  0  0  0  0  0  0
    2.3144   -2.6450    0.0000 C   0  0  0  0  0  0  0  0  0  0  0  0
    0.0000   -2.6450    0.0000 C   0  0  0  0  0  0  0  0  0  0  0  0
    8.3318   -5.3231    0.0000 C   0  0  0  0  0  0  0  0  0  0  0  0
    9.4229   -5.9678    0.0000 C   0  0  0  0  0  0  0  0  0  0  0  0
    7.1581   -5.9678    0.0000 C   0  0  0  0  0  0  0  0  0  0  0  0
    8.3318   -3.9675    0.0000 O   0  0  0  0  0  0  0  0  0  0  0  0
   10.6131   -5.3231    0.0000 C   0  0  0  0  0  0  0  0  0  0  0  0
    9.4063   -7.3068    0.0000 O   0  0  0  0  0  0  0  0  0  0  0  0
    5.9843   -5.3231    0.0000 C   0  0  0  0  0  0  0  0  0  0  0  0
    7.1250   -7.2573    0.0000 O   0  0  0  0  0  0  0  0  0  0  0  0
   11.7207   -5.9678    0.0000 C   0  0  0  0  0  0  0  0  0  0  0  0
   10.6131   -3.9675    0.0000 O   0  0  0  0  0  0  0  0  0  0  0  0
    4.8271   -5.9678    0.0000 O   0  0  0  0  0  0  0  0  0  0  0  0
    5.9843   -3.9675    0.0000 O   0  0  0  0  0  0  0  0  0  0  0  0
   11.7207   -7.3068    0.0000 O   0  0  0  0  0  0  0  0  0  0  0  0
   12.8944   -5.3231    0.0000 O   0  0  0  0  0  0  0  0  0  0  0  0
  1  2  2  0  0  0  0
  1  6  1  0  0  0  0
  1  7  1  0  0  0  0
  2  4  1  0  0  0  0
  3  5  1  0  0  0  0
  3  8  1  0  0  0  0
  4  9  1  0  0  0  0
  5  9  1  0  0  0  0
  5 10  1  0  0  0  0
 11 12  2  0  0  0  0
 11 16  1  0  0  0  0
 11 17  1  0  0  0  0
 12 14  1  0  0  0  0
 13 15  1  0  0  0  0
 13 18  1  0  0  0  0
 14 19  1  0  0  0  0
 15 19  1  0  0  0  0
 15 20  1  0  0  0  0
 21 22  1  0  0  0  0
 21 23  1  0  0  0  0
 21 24  1  6  0  0  0
 22 25  1  0  0  0  0
 22 26  1  1  0  0  0
 23 27  1  0  0  0  0
 23 28  1  6  0  0  0
 25 29  1  0  0  0  0
 25 30  1  1  0  0  0
 27 31  1  0  0  0  0
 27 32  2  0  0  0  0
 29 33  1  0  0  0  0
 29 34  2  0  0  0  0
M  END
> <ID>
13851

> <Formula>
C24H48N2O8

> <FW>
492.6465 (141.2539+141.2539+210.1388)

> <DSSTox_CID>
28788

> <DSSTox_RID>
83057

> <DSSTox_GSID>
48862

> <DSSTox_FileID_Sort>
7734

> <TS_ChemName>
Isometheptene mucate

> <TS_ChemName_Synonyms>


> <TS_CASRN>
7492-31-1

> <CASRN_ChemName_Relationship>
primary

> <TS_Description>
single chemical compound

> <ChemNote>


> <STRUCTURE_Shown>
tested chemical

> <STRUCTURE_Formula>
C24H48N2O8

> <STRUCTURE_MW>
492.6465

> <STRUCTURE_ChemType>
defined organic

> <STRUCTURE_DefinedOrganicForm>
complex

> <STRUCTURE_IUPAC>
N,6-dimethylhept-5-en-2-amine - D-galactaric acid (2:1)

> <STRUCTURE_SMILES>
O[C@H]([C@@H](O)[C@@H](O)[C@H](O)C(=O)O)C(=O)O.C/C(C)=C\CCC(C)NC.C/C(C)=C\CCC(C)NC

> <STRUCTURE_SMILES_Desalt>
O[C@H]([C@@H](O)[C@@H](O)[C@H](O)C(=O)O)C(=O)O

> <Substance_modify_yyyymmdd>
20111204

$$$$
