7492-32-2
ChemmineR-0915142007XD

 26 27  0  0  0  0  0  0  0  0  2 V2000
    3.9956   -1.9931    0.0000 C   0  0  0  0  0  0  0  0  0  0  0  0
    3.9956   -0.6706    0.0000 C   0  0  0  0  0  0  0  0  0  0  0  0
    2.8407    0.0000    0.0000 O   0  0  0  0  0  0  0  0  0  0  0  0
    5.1411    0.0000    0.0000 N   0  0  0  0  0  0  0  0  0  0  0  0
    5.3181   -1.9931    0.0000 C   0  0  0  0  0  0  0  0  0  0  0  0
    5.9887   -3.1480    0.0000 C   0  0  0  0  0  0  0  0  0  0  0  0
    7.3205   -3.1480    0.0000 N   0  3  0  0  0  0  0  0  0  0  0  0
    7.3205   -4.4799    0.0000 C   0  0  0  0  0  0  0  0  0  0  0  0
    7.3205   -1.8162    0.0000 C   0  0  0  0  0  0  0  0  0  0  0  0
    8.4661   -1.1549    0.0000 C   0  0  0  0  0  0  0  0  0  0  0  0
    6.1656   -1.1549    0.0000 C   0  0  0  0  0  0  0  0  0  0  0  0
    8.6524   -3.1480    0.0000 C   0  0  0  0  0  0  0  0  0  0  0  0
    9.3137   -1.9931    0.0000 C   0  0  0  0  0  0  0  0  0  0  0  0
    9.3137   -4.3029    0.0000 C   0  0  0  0  0  0  0  0  0  0  0  0
    3.9956   -3.3250    0.0000 C   0  0  0  0  0  0  0  0  0  0  0  0
    5.1411   -3.9956    0.0000 C   0  0  0  0  0  0  0  0  0  0  0  0
    5.1411   -5.3274    0.0000 C   0  0  0  0  0  0  0  0  0  0  0  0
    3.9956   -5.9887    0.0000 C   0  0  0  0  0  0  0  0  0  0  0  0
    2.8407   -5.3274    0.0000 C   0  0  0  0  0  0  0  0  0  0  0  0
    2.8407   -3.9956    0.0000 C   0  0  0  0  0  0  0  0  0  0  0  0
    2.6637   -1.9931    0.0000 C   0  0  0  0  0  0  0  0  0  0  0  0
    1.9931   -3.1480    0.0000 C   0  0  0  0  0  0  0  0  0  0  0  0
    0.6613   -3.1480    0.0000 C   0  0  0  0  0  0  0  0  0  0  0  0
    0.0000   -1.9931    0.0000 C   0  0  0  0  0  0  0  0  0  0  0  0
    0.6613   -0.8475    0.0000 C   0  0  0  0  0  0  0  0  0  0  0  0
    1.9931   -0.8475    0.0000 C   0  0  0  0  0  0  0  0  0  0  0  0
  1  2  1  0  0  0  0
  1  5  1  0  0  0  0
  1 15  1  0  0  0  0
  1 21  1  0  0  0  0
  2  3  2  0  0  0  0
  2  4  1  0  0  0  0
  5  6  1  0  0  0  0
  6  7  1  0  0  0  0
  7  8  1  0  0  0  0
  7  9  1  0  0  0  0
  7 12  1  0  0  0  0
  9 10  1  0  0  0  0
  9 11  1  0  0  0  0
 12 13  1  0  0  0  0
 12 14  1  0  0  0  0
 15 16  2  0  0  0  0
 15 20  1  0  0  0  0
 16 17  1  0  0  0  0
 17 18  2  0  0  0  0
 18 19  1  0  0  0  0
 19 20  2  0  0  0  0
 21 22  2  0  0  0  0
 21 26  1  0  0  0  0
 22 23  1  0  0  0  0
 23 24  2  0  0  0  0
 24 25  1  0  0  0  0
 25 26  2  0  0  0  0
M  END
> <ID>
2850

> <Formula>
C23H33N2O

> <FW>
353.5204

> <DSSTox_CID>
3174

> <DSSTox_RID>
76903

> <DSSTox_GSID>
23174

> <DSSTox_FileID_Sort>
1587

> <TS_ChemName>
Isopropamide

> <TS_ChemName_Synonyms>


> <TS_CASRN>
7492-32-2

> <CASRN_ChemName_Relationship>
primary

> <TS_Description>
single chemical compound

> <ChemNote>
ammonium; usually supplied as the iodide salt [71-81-8] but also available as bromide [16564-41-3] and chloride [24353-18-3]

> <STRUCTURE_Shown>
tested chemical

> <STRUCTURE_Formula>
C23H33N2O

> <STRUCTURE_MW>
353.5204

> <STRUCTURE_ChemType>
defined organic

> <STRUCTURE_DefinedOrganicForm>
parent

> <STRUCTURE_IUPAC>
4-amino-N-methyl-4-oxo-3,3-diphenyl-N,N-di(propan-2-yl)butan-1-aminium

> <STRUCTURE_SMILES>
CC(C)[N+](C)(CCC(c1ccccc1)(C(N)=O)c2ccccc2)C(C)C

> <STRUCTURE_SMILES_Desalt>
CC(C)[N+](C)(CCC(c1ccccc1)(C(N)=O)c2ccccc2)C(C)C

> <Substance_modify_yyyymmdd>
20080429

$$$$
