75-05-8
ChemmineR-0915142007XD

  3  2  0  0  0  0  0  0  0  0  1 V2000
      2.66      0.00      0.00 C   0  0  0  0  0  0  0  0  0  0  0  0
      1.33      0.00      0.00 C   0  0  0  0  0  0  0  0  0  0  0  0
      0.00      0.00      0.00 N   0  0  0  0  0  0  0  0  0  0  0  0
  1  2  1  0  0  0  0
  2  3  3  0  0  0  0
M  END
> <ID>
9

> <Formula>
C2H3N

> <FW>
41.0519

> <DSSTox_CID>
9

> <DSSTox_RID>
75320

> <DSSTox_GSID>
20009

> <DSSTox_FileID_Sort>
4

> <TS_ChemName>
Acetonitrile

> <TS_ChemName_Synonyms>


> <TS_CASRN>
75-05-8

> <CASRN_ChemName_Relationship>
primary

> <TS_Description>
single chemical compound

> <ChemNote>


> <STRUCTURE_Shown>
tested chemical

> <STRUCTURE_Formula>
C2H3N

> <STRUCTURE_MW>
41.0519

> <STRUCTURE_ChemType>
defined organic

> <STRUCTURE_DefinedOrganicForm>
parent

> <STRUCTURE_IUPAC>
acetonitrile

> <STRUCTURE_SMILES>
CC#N

> <STRUCTURE_SMILES_Desalt>
CC#N

> <Substance_modify_yyyymmdd>
20080429

$$$$
