75-15-0
ChemmineR-0915142007XD

  3  2  0  0  0  0  0  0  0  0  1 V2000
    1.1489   -0.6526    0.0000 C   0  0  0  0  0  0  0  0  0  0  0  0
    2.2978    0.0000    0.0000 S   0  0  0  0  0  0  0  0  0  0  0  0
    0.0000   -1.3396    0.0000 S   0  0  0  0  0  0  0  0  0  0  0  0
  1  2  2  0  0  0  0
  1  3  2  0  0  0  0
M  END
> <ID>
3437

> <Formula>
CS2

> <FW>
76.1407

> <DSSTox_CID>
3947

> <DSSTox_RID>
77238

> <DSSTox_GSID>
23947

> <DSSTox_FileID_Sort>
1921

> <TS_ChemName>
Carbon disulfide

> <TS_ChemName_Synonyms>


> <TS_CASRN>
75-15-0

> <CASRN_ChemName_Relationship>
primary

> <TS_Description>
single chemical compound

> <ChemNote>


> <STRUCTURE_Shown>
tested chemical

> <STRUCTURE_Formula>
CS2

> <STRUCTURE_MW>
76.1407

> <STRUCTURE_ChemType>
defined organic

> <STRUCTURE_DefinedOrganicForm>
parent

> <STRUCTURE_IUPAC>
methanedithione

> <STRUCTURE_SMILES>
S=C=S

> <STRUCTURE_SMILES_Desalt>
S=C=S

> <Substance_modify_yyyymmdd>
20080429

$$$$
