75-12-7
ChemmineR-0915142007XD

  3  2  0  0  0  0  0  0  0  0  1 V2000
    1.1515    0.0000    0.0000 C   0  0  0  0  0  0  0  0  0  0  0  0
    2.3030   -0.6656    0.0000 N   0  0  0  0  0  0  0  0  0  0  0  0
    0.0000   -0.6656    0.0000 O   0  0  0  0  0  0  0  0  0  0  0  0
  1  2  1  0  0  0  0
  1  3  2  0  0  0  0
M  END
> <ID>
4151

> <Formula>
CH3NO

> <FW>
45.0406

> <DSSTox_CID>
5337

> <DSSTox_RID>
77755

> <DSSTox_GSID>
25337

> <DSSTox_FileID_Sort>
2438

> <TS_ChemName>
Formamide

> <TS_ChemName_Synonyms>


> <TS_CASRN>
75-12-7

> <CASRN_ChemName_Relationship>
primary

> <TS_Description>
single chemical compound

> <ChemNote>


> <STRUCTURE_Shown>
tested chemical

> <STRUCTURE_Formula>
CH3NO

> <STRUCTURE_MW>
45.0406

> <STRUCTURE_ChemType>
defined organic

> <STRUCTURE_DefinedOrganicForm>
parent

> <STRUCTURE_IUPAC>
formamide

> <STRUCTURE_SMILES>
NC=O

> <STRUCTURE_SMILES_Desalt>
NC=O

> <Substance_modify_yyyymmdd>
20080429

$$$$
