75-33-2
ChemmineR-0915142007XD

  4  3  0  0  0  0  0  0  0  0  1 V2000
    1.9950    0.0000    0.0000 C   0  0  0  0  0  0  0  0  0  0  0  0
    1.3292   -1.1518    0.0000 C   0  0  0  0  0  0  0  0  0  0  0  0
    1.9950   -2.3037    0.0000 C   0  0  0  0  0  0  0  0  0  0  0  0
    0.0000   -1.1518    0.0000 S   0  0  0  0  0  0  0  0  0  0  0  0
  1  2  1  0  0  0  0
  2  3  1  0  0  0  0
  2  4  1  0  0  0  0
M  END
> <ID>
4221

> <Formula>
C3H8S

> <FW>
76.1606

> <DSSTox_CID>
5481

> <DSSTox_RID>
77804

> <DSSTox_GSID>
25481

> <DSSTox_FileID_Sort>
2487

> <TS_ChemName>
Isopropyl mercaptan

> <TS_ChemName_Synonyms>
Isopropyl mercaptan (2-Propanethiol)

> <TS_CASRN>
75-33-2

> <CASRN_ChemName_Relationship>
primary

> <TS_Description>
single chemical compound

> <ChemNote>


> <STRUCTURE_Shown>
tested chemical

> <STRUCTURE_Formula>
C3H8S

> <STRUCTURE_MW>
76.1606

> <STRUCTURE_ChemType>
defined organic

> <STRUCTURE_DefinedOrganicForm>
parent

> <STRUCTURE_IUPAC>
propane-2-thiol

> <STRUCTURE_SMILES>
CC(C)S

> <STRUCTURE_SMILES_Desalt>
CC(C)S

> <Substance_modify_yyyymmdd>
20080429

$$$$
