75-35-4
ChemmineR-0915142007XD

  4  3  0  0  0  0  0  0  0  0  1 V2000
    1.9950    0.0000    0.0000 C    0  0  0  0  0  0  0  0  0  0  0  0
    1.3292   -1.1518    0.0000 C    0  0  0  0  0  0  0  0  0  0  0  0
    1.9950   -2.3037    0.0000 Cl   0  0  0  0  0  0  0  0  0  0  0  0
    0.0000   -1.1518    0.0000 Cl   0  0  0  0  0  0  0  0  0  0  0  0
  1  2  2  0  0  0  0
  2  3  1  0  0  0  0
  2  4  1  0  0  0  0
M  END
> <ID>
1381

> <Formula>
C2H2Cl2

> <FW>
96.9433

> <DSSTox_CID>
1438

> <DSSTox_RID>
76159

> <DSSTox_GSID>
21438

> <DSSTox_FileID_Sort>
843

> <TS_ChemName>
1,1-Dichloroethylene

> <TS_ChemName_Synonyms>
Vinylidene chloride

> <TS_CASRN>
75-35-4

> <CASRN_ChemName_Relationship>
primary

> <TS_Description>
single chemical compound

> <ChemNote>


> <STRUCTURE_Shown>
tested chemical

> <STRUCTURE_Formula>
C2H2Cl2

> <STRUCTURE_MW>
96.9433

> <STRUCTURE_ChemType>
defined organic

> <STRUCTURE_DefinedOrganicForm>
parent

> <STRUCTURE_IUPAC>
1,1-dichloroethene

> <STRUCTURE_SMILES>
C=C(Cl)Cl

> <STRUCTURE_SMILES_Desalt>
C=C(Cl)Cl

> <Substance_modify_yyyymmdd>
20080429

$$$$
