75-50-3
ChemmineR-0915142007XD

  4  3  0  0  0  0  0  0  0  0  1 V2000
    1.3292   -1.1518    0.0000 N   0  0  0  0  0  0  0  0  0  0  0  0
    1.9950    0.0000    0.0000 C   0  0  0  0  0  0  0  0  0  0  0  0
    1.9950   -2.3037    0.0000 C   0  0  0  0  0  0  0  0  0  0  0  0
    0.0000   -1.1518    0.0000 C   0  0  0  0  0  0  0  0  0  0  0  0
  1  2  1  0  0  0  0
  1  3  1  0  0  0  0
  1  4  1  0  0  0  0
M  END
> <ID>
4612

> <Formula>
C3H9N

> <FW>
59.1103

> <DSSTox_CID>
6238

> <DSSTox_RID>
78071

> <DSSTox_GSID>
26238

> <DSSTox_FileID_Sort>
2754

> <TS_ChemName>
Trimethylamine

> <TS_ChemName_Synonyms>


> <TS_CASRN>
75-50-3

> <CASRN_ChemName_Relationship>
primary

> <TS_Description>
single chemical compound

> <ChemNote>


> <STRUCTURE_Shown>
tested chemical

> <STRUCTURE_Formula>
C3H9N

> <STRUCTURE_MW>
59.1103

> <STRUCTURE_ChemType>
defined organic

> <STRUCTURE_DefinedOrganicForm>
parent

> <STRUCTURE_IUPAC>
N,N-dimethylmethanamine

> <STRUCTURE_SMILES>
CN(C)C

> <STRUCTURE_SMILES_Desalt>
CN(C)C

> <Substance_modify_yyyymmdd>
20080429

$$$$
