75-59-2
ChemmineR-0915142007XD

  6  4  0  0  0  0  0  0  0  0  2 V2000
    2.6600   -1.3275    0.0000 C   0  0  0  0  0  0  0  0  0  0  0  0
    1.3325   -1.3275    0.0000 N   0  3  0  0  0  0  0  0  0  0  0  0
    1.3325    0.0000    0.0000 C   0  0  0  0  0  0  0  0  0  0  0  0
    1.3325   -2.6600    0.0000 C   0  0  0  0  0  0  0  0  0  0  0  0
    0.0000   -1.3275    0.0000 C   0  0  0  0  0  0  0  0  0  0  0  0
    4.9534   -1.3275    0.0000 O   0  5  0  0  0  0  0  0  0  0  0  0
  1  2  1  0  0  0  0
  2  3  1  0  0  0  0
  2  4  1  0  0  0  0
  2  5  1  0  0  0  0
M  END
> <ID>
5797

> <Formula>
C4H13NO

> <FW>
91.1521 (74.1442+17.0079)

> <DSSTox_CID>
9108

> <DSSTox_RID>
78669

> <DSSTox_GSID>
29108

> <DSSTox_FileID_Sort>
3351

> <TS_ChemName>
Methanaminium, N,N,N-trimethyl-, hydroxide

> <TS_ChemName_Synonyms>


> <TS_CASRN>
75-59-2

> <CASRN_ChemName_Relationship>
primary

> <TS_Description>
single chemical compound

> <ChemNote>
parent [51-92-3]

> <STRUCTURE_Shown>
tested chemical

> <STRUCTURE_Formula>
C4H13NO

> <STRUCTURE_MW>
91.1521

> <STRUCTURE_ChemType>
defined organic

> <STRUCTURE_DefinedOrganicForm>
salt

> <STRUCTURE_IUPAC>
N,N,N-trimethylmethanaminium hydroxide

> <STRUCTURE_SMILES>
[OH-].C[N+](C)(C)C

> <STRUCTURE_SMILES_Desalt>
C[N+](C)(C)C

> <Substance_modify_yyyymmdd>
20080429

$$$$
