75-62-7
ChemmineR-0915142007XD

  5  4  0  0  0  0  0  0  0  0  1 V2000
      1.33     -1.33      0.00 C    0  0  0  0  0  0  0  0  0  0  0  0
      1.33     -2.66      0.00 Cl   0  0  0  0  0  0  0  0  0  0  0  0
      2.66     -1.33      0.00 Cl   0  0  0  0  0  0  0  0  0  0  0  0
      0.00     -1.33      0.00 Cl   0  0  0  0  0  0  0  0  0  0  0  0
      1.33      0.00      0.00 Br   0  0  0  0  0  0  0  0  0  0  0  0
  1  2  1  0  0  0  0
  1  3  1  0  0  0  0
  1  4  1  0  0  0  0
  1  5  1  0  0  0  0
M  END
> <ID>
3430

> <Formula>
CBrCl3

> <FW>
198.2737

> <DSSTox_CID>
3930

> <DSSTox_RID>
77233

> <DSSTox_GSID>
23930

> <DSSTox_FileID_Sort>
1916

> <TS_ChemName>
Bromotrichloromethane

> <TS_ChemName_Synonyms>


> <TS_CASRN>
75-62-7

> <CASRN_ChemName_Relationship>
primary

> <TS_Description>
single chemical compound

> <ChemNote>


> <STRUCTURE_Shown>
tested chemical

> <STRUCTURE_Formula>
CBrCl3

> <STRUCTURE_MW>
198.2737

> <STRUCTURE_ChemType>
defined organic

> <STRUCTURE_DefinedOrganicForm>
parent

> <STRUCTURE_IUPAC>
bromo(trichloro)methane

> <STRUCTURE_SMILES>
BrC(Cl)(Cl)Cl

> <STRUCTURE_SMILES_Desalt>
BrC(Cl)(Cl)Cl

> <Substance_modify_yyyymmdd>
20080429

$$$$
