75-64-9
ChemmineR-0915142007XD

  5  4  0  0  0  0  0  0  0  0  1 V2000
      1.33     -1.33      0.00 C   0  0  0  0  0  0  0  0  0  0  0  0
      1.33     -2.66      0.00 C   0  0  0  0  0  0  0  0  0  0  0  0
      0.00     -1.33      0.00 C   0  0  0  0  0  0  0  0  0  0  0  0
      1.33      0.00      0.00 C   0  0  0  0  0  0  0  0  0  0  0  0
      2.66     -1.33      0.00 N   0  0  0  0  0  0  0  0  0  0  0  0
  1  2  1  0  0  0  0
  1  3  1  0  0  0  0
  1  4  1  0  0  0  0
  1  5  1  0  0  0  0
M  END
> <ID>
3807

> <Formula>
C4H11N

> <FW>
73.1368

> <DSSTox_CID>
4681

> <DSSTox_RID>
77497

> <DSSTox_GSID>
24681

> <DSSTox_FileID_Sort>
2180

> <TS_ChemName>
tert-Butylamine

> <TS_ChemName_Synonyms>
tert-Butylamine (2-Propanamine, 2-methyl-)

> <TS_CASRN>
75-64-9

> <CASRN_ChemName_Relationship>
primary

> <TS_Description>
single chemical compound

> <ChemNote>


> <STRUCTURE_Shown>
tested chemical

> <STRUCTURE_Formula>
C4H11N

> <STRUCTURE_MW>
73.1368

> <STRUCTURE_ChemType>
defined organic

> <STRUCTURE_DefinedOrganicForm>
parent

> <STRUCTURE_IUPAC>
2-methylpropan-2-amine

> <STRUCTURE_SMILES>
CC(C)(C)N

> <STRUCTURE_SMILES_Desalt>
CC(C)(C)N

> <Substance_modify_yyyymmdd>
20080429

$$$$
