75-76-3
ChemmineR-0915142007XD

  5  4  0  0  0  0  0  0  0  0  1 V2000
      1.33     -1.33      0.00 Si   0  0  0  0  0  0  0  0  0  0  0  0
      0.00     -1.33      0.00 C    0  0  0  0  0  0  0  0  0  0  0  0
      1.33     -2.66      0.00 C    0  0  0  0  0  0  0  0  0  0  0  0
      1.33      0.00      0.00 C    0  0  0  0  0  0  0  0  0  0  0  0
      2.66     -1.33      0.00 C    0  0  0  0  0  0  0  0  0  0  0  0
  1  2  1  0  0  0  0
  1  3  1  0  0  0  0
  1  4  1  0  0  0  0
  1  5  1  0  0  0  0
M  END
> <ID>
4677

> <Formula>
C4H12Si

> <FW>
88.2236

> <DSSTox_CID>
6423

> <DSSTox_RID>
78110

> <DSSTox_GSID>
26423

> <DSSTox_FileID_Sort>
2793

> <TS_ChemName>
Tetramethylsilane

> <TS_ChemName_Synonyms>


> <TS_CASRN>
75-76-3

> <CASRN_ChemName_Relationship>
primary

> <TS_Description>
single chemical compound

> <ChemNote>


> <STRUCTURE_Shown>
tested chemical

> <STRUCTURE_Formula>
C4H12Si

> <STRUCTURE_MW>
88.2236

> <STRUCTURE_ChemType>
organometallic

> <STRUCTURE_DefinedOrganicForm>


> <STRUCTURE_IUPAC>
tetramethylsilane

> <STRUCTURE_SMILES>
C[Si](C)(C)C

> <STRUCTURE_SMILES_Desalt>
C[Si](C)(C)C

> <Substance_modify_yyyymmdd>
20080429

$$$$
