75-98-9
ChemmineR-0915142007XD

  7  6  0  0  0  0  0  0  0  0  1 V2000
    1.1520   -1.3284    0.0000 C   0  0  0  0  0  0  0  0  0  0  0  0
    2.3075   -1.9857    0.0000 C   0  0  0  0  0  0  0  0  0  0  0  0
    3.4595   -2.6569    0.0000 C   0  0  0  0  0  0  0  0  0  0  0  0
    1.1520    0.0000    0.0000 O   0  0  0  0  0  0  0  0  0  0  0  0
    0.0000   -1.9857    0.0000 O   0  0  0  0  0  0  0  0  0  0  0  0
    2.9613   -0.8303    0.0000 C   0  0  0  0  0  0  0  0  0  0  0  0
    1.6329   -3.1378    0.0000 C   0  0  0  0  0  0  0  0  0  0  0  0
  1  2  1  0  0  0  0
  1  5  1  0  0  0  0
  1  4  2  0  0  0  0
  2  3  1  0  0  0  0
  2  6  1  0  0  0  0
  2  7  1  0  0  0  0
M  END
> <ID>
4681

> <Formula>
C5H10O2

> <FW>
102.1317

> <DSSTox_CID>
6432

> <DSSTox_RID>
78111

> <DSSTox_GSID>
26432

> <DSSTox_FileID_Sort>
2794

> <TS_ChemName>
2,2-Dimethylpropanoic acid

> <TS_ChemName_Synonyms>
Pivalic acid

> <TS_CASRN>
75-98-9

> <CASRN_ChemName_Relationship>
primary

> <TS_Description>
single chemical compound

> <ChemNote>


> <STRUCTURE_Shown>
tested chemical

> <STRUCTURE_Formula>
C5H10O2

> <STRUCTURE_MW>
102.1317

> <STRUCTURE_ChemType>
defined organic

> <STRUCTURE_DefinedOrganicForm>
parent

> <STRUCTURE_IUPAC>
2,2-dimethylpropanoic acid

> <STRUCTURE_SMILES>
CC(C)(C)C(=O)O

> <STRUCTURE_SMILES_Desalt>
CC(C)(C)C(=O)O

> <Substance_modify_yyyymmdd>
20080429

$$$$
