75-91-2
ChemmineR-0915142007XD

  6  5  0  0  0  0  0  0  0  0  1 V2000
    1.1503   -1.1537    0.0000 C   0  0  0  0  0  0  0  0  0  0  0  0
    0.4870    0.0000    0.0000 C   0  0  0  0  0  0  0  0  0  0  0  0
    1.8169   -2.3040    0.0000 C   0  0  0  0  0  0  0  0  0  0  0  0
    0.0000   -1.8169    0.0000 C   0  0  0  0  0  0  0  0  0  0  0  0
    2.3040   -0.4870    0.0000 O   0  0  0  0  0  0  0  0  0  0  0  0
    3.4542   -1.1537    0.0000 O   0  0  0  0  0  0  0  0  0  0  0  0
  1  2  1  0  0  0  0
  1  3  1  0  0  0  0
  1  4  1  0  0  0  0
  1  5  1  0  0  0  0
  5  6  1  0  0  0  0
M  END
> <ID>
3814

> <Formula>
C4H10O2

> <FW>
90.121

> <DSSTox_CID>
4693

> <DSSTox_RID>
78866

> <DSSTox_GSID>
24693

> <DSSTox_FileID_Sort>
3548

> <TS_ChemName>
tert-Butyl hydroperoxide

> <TS_ChemName_Synonyms>
tert-Butyl hydroperoxide (Hydroperoxide, 1,1-dimethylethyl)

> <TS_CASRN>
75-91-2

> <CASRN_ChemName_Relationship>
primary

> <TS_Description>
single chemical compound

> <ChemNote>
duplicate CASRN

> <STRUCTURE_Shown>
tested chemical

> <STRUCTURE_Formula>
C4H10O2

> <STRUCTURE_MW>
90.121

> <STRUCTURE_ChemType>
defined organic

> <STRUCTURE_DefinedOrganicForm>
parent

> <STRUCTURE_IUPAC>
tert-butyl hydroperoxide

> <STRUCTURE_SMILES>
CC(C)(C)OO

> <STRUCTURE_SMILES_Desalt>
CC(C)(C)OO

> <Substance_modify_yyyymmdd>
20120530

$$$$
