75-95-6
ChemmineR-0915142007XD

  7  6  0  0  0  0  0  0  0  0  1 V2000
    2.6608   -1.9956    0.0000 Br   0  0  0  0  0  0  0  0  0  0  0  0
    1.3304   -1.9956    0.0000 C    0  0  0  0  0  0  0  0  0  0  0  0
    1.3304   -0.6652    0.0000 C    0  0  0  0  0  0  0  0  0  0  0  0
    0.1796    0.0000    0.0000 Br   0  0  0  0  0  0  0  0  0  0  0  0
    2.4812    0.0000    0.0000 Br   0  0  0  0  0  0  0  0  0  0  0  0
    1.3304   -3.3260    0.0000 Br   0  0  0  0  0  0  0  0  0  0  0  0
    0.0000   -1.9956    0.0000 Br   0  0  0  0  0  0  0  0  0  0  0  0
  1  2  1  0  0  0  0
  2  3  1  0  0  0  0
  2  6  1  0  0  0  0
  2  7  1  0  0  0  0
  3  4  1  0  0  0  0
  3  5  1  0  0  0  0
M  END
> <ID>
4427

> <Formula>
C2HBr5

> <FW>
424.5493

> <DSSTox_CID>
5830

> <DSSTox_RID>
77940

> <DSSTox_GSID>
25830

> <DSSTox_FileID_Sort>
2623

> <TS_ChemName>
Pentabromoethane

> <TS_ChemName_Synonyms>


> <TS_CASRN>
75-95-6

> <CASRN_ChemName_Relationship>
primary

> <TS_Description>
single chemical compound

> <ChemNote>


> <STRUCTURE_Shown>
tested chemical

> <STRUCTURE_Formula>
C2HBr5

> <STRUCTURE_MW>
424.5493

> <STRUCTURE_ChemType>
defined organic

> <STRUCTURE_DefinedOrganicForm>
parent

> <STRUCTURE_IUPAC>
1,1,1,2,2-pentabromoethane

> <STRUCTURE_SMILES>
BrC(Br)C(Br)(Br)Br

> <STRUCTURE_SMILES_Desalt>
BrC(Br)C(Br)(Br)Br

> <Substance_modify_yyyymmdd>
20080429

$$$$
