751-97-3
ChemmineR-0915142007XD

 39 43  0  0  1  0  0  0  0  0  1 V2000
    6.9177   -4.0296    0.0000 C   0  0  0  0  0  0  0  0  0  0  0  0
    4.6210   -4.0296    0.0000 C   0  0  0  0  0  0  0  0  0  0  0  0
    9.2282   -4.0296    0.0000 C   0  0  0  0  0  0  0  0  0  0  0  0
    5.8038   -4.6760    0.0000 C   0  0  0  0  0  0  0  0  0  0  0  0
    8.0730   -4.6760    0.0000 C   0  0  0  0  0  0  0  0  0  0  0  0
    6.9177   -2.6956    0.0000 C   0  0  0  0  0  0  0  0  0  0  0  0
    9.2282   -2.6956    0.0000 C   0  0  0  0  0  0  0  0  0  0  0  0
    3.4795   -4.6760    0.0000 C   0  0  0  0  0  0  0  0  0  0  0  0
    4.6210   -2.6956    0.0000 C   0  0  0  0  0  0  0  0  0  0  0  0
    2.3243   -4.0296    0.0000 C   0  0  0  0  0  0  0  0  0  0  0  0
    3.4795   -1.9942    0.0000 C   0  0  0  0  0  0  0  0  0  0  0  0
    2.3243   -2.6956    0.0000 C   0  0  0  0  0  0  0  0  0  0  0  0
    8.0730   -1.9942    0.0000 C   0  0  0  0  0  0  0  0  0  0  0  0
   10.4248   -4.7173    0.0000 C   0  0  0  0  0  0  0  0  0  0  0  0
    5.8038   -1.9942    0.0000 C   0  0  0  0  0  0  0  0  0  0  0  0
   11.5387   -4.0296    0.0000 N   0  0  0  0  0  0  0  0  0  0  0  0
   12.6802   -6.0238    0.0000 N   0  0  0  0  0  0  0  0  0  0  0  0
   12.6802   -4.6623    0.0000 C   0  0  0  0  0  0  0  0  0  0  0  0
    8.0730   -6.0238    0.0000 O   0  0  0  0  0  0  0  0  0  0  0  0
    3.4795   -6.0238    0.0000 O   0  0  0  0  0  0  0  0  0  0  0  0
    8.0730   -0.6601    0.0000 N   0  0  0  0  0  0  0  0  0  0  0  0
    1.1828   -4.6760    0.0000 C   0  0  0  0  0  0  0  0  0  0  0  0
    6.9177   -5.3362    0.0000 O   0  0  0  0  0  0  0  0  0  0  0  0
   10.4248   -6.0376    0.0000 O   0  0  0  0  0  0  0  0  0  0  0  0
    5.8038   -6.0376    0.0000 O   0  0  0  0  0  0  0  0  0  0  0  0
   10.4248   -1.9942    0.0000 O   0  0  0  0  0  0  0  0  0  0  0  0
    3.0257   -1.0590    0.0000 O   0  0  0  0  0  0  0  0  0  0  0  0
    1.1828   -1.9942    0.0000 C   0  0  0  0  0  0  0  0  0  0  0  0
    4.2222   -1.1002    0.0000 C   0  0  0  0  0  0  0  0  0  0  0  0
    1.1828   -6.0376    0.0000 O   0  0  0  0  0  0  0  0  0  0  0  0
   11.6213   -6.7802    0.0000 C   0  0  0  0  0  0  0  0  0  0  0  0
   13.7530   -6.7665    0.0000 C   0  0  0  0  0  0  0  0  0  0  0  0
    0.0000   -2.6956    0.0000 C   0  0  0  0  0  0  0  0  0  0  0  0
    0.0000   -4.0296    0.0000 C   0  0  0  0  0  0  0  0  0  0  0  0
    9.2282    0.0000    0.0000 C   0  0  0  0  0  0  0  0  0  0  0  0
    6.9177    0.0000    0.0000 C   0  0  0  0  0  0  0  0  0  0  0  0
   13.3541   -8.0455    0.0000 C   0  0  0  0  0  0  0  0  0  0  0  0
   12.0476   -8.0455    0.0000 C   0  0  0  0  0  0  0  0  0  0  0  0
    6.9177   -1.1277    0.0000 H   0  0  0  0  0  0  0  0  0  0  0  0
  1  4  1  0  0  0  0
  1  5  1  0  0  0  0
  1  6  1  0  0  0  0
  1 23  1  6  0  0  0
  2  4  2  0  0  0  0
  2  8  1  0  0  0  0
  2  9  1  0  0  0  0
  3  5  1  0  0  0  0
  3 14  1  0  0  0  0
  3  7  2  0  0  0  0
  4 25  1  0  0  0  0
  5 19  2  0  0  0  0
  6 13  1  0  0  0  0
  6 15  1  0  0  0  0
  6 39  1  6  0  0  0
  7 13  1  0  0  0  0
  7 26  1  0  0  0  0
  8 10  1  0  0  0  0
  8 20  2  0  0  0  0
  9 15  1  0  0  0  0
  9 11  1  0  0  0  0
 10 22  1  0  0  0  0
 10 12  2  0  0  0  0
 11 12  1  0  0  0  0
 11 27  1  1  0  0  0
 11 29  1  6  0  0  0
 12 28  1  0  0  0  0
 13 21  1  6  0  0  0
 14 16  1  0  0  0  0
 14 24  2  0  0  0  0
 16 18  1  0  0  0  0
 17 18  1  0  0  0  0
 17 31  1  0  0  0  0
 17 32  1  0  0  0  0
 21 35  1  0  0  0  0
 21 36  1  0  0  0  0
 22 30  1  0  0  0  0
 22 34  2  0  0  0  0
 28 33  2  0  0  0  0
 31 38  1  0  0  0  0
 32 37  1  0  0  0  0
 33 34  1  0  0  0  0
 37 38  1  0  0  0  0
M  END
> <ID>
3191

> <Formula>
C27H33N3O8

> <FW>
527.5662

> <DSSTox_CID>
3568

> <DSSTox_RID>
77085

> <DSSTox_GSID>
23568

> <DSSTox_FileID_Sort>
1768

> <TS_ChemName>
Rolitetracycline

> <TS_ChemName_Synonyms>


> <TS_CASRN>
751-97-3

> <CASRN_ChemName_Relationship>
primary

> <TS_Description>
single chemical compound

> <ChemNote>
stereochem

> <STRUCTURE_Shown>
tested chemical

> <STRUCTURE_Formula>
C27H33N3O8

> <STRUCTURE_MW>
527.5662

> <STRUCTURE_ChemType>
defined organic

> <STRUCTURE_DefinedOrganicForm>
parent

> <STRUCTURE_IUPAC>
(4S,4aS,6S,12aS)-4-(dimethylamino)-3,6,10,12,12a-pentahydroxy-6-methyl-1,11-dioxo-N-(pyrrolidin-1-ylmethyl)-1,4,4a,5,5a,6,11,12a-octahydrotetracene-2-carboxamide

> <STRUCTURE_SMILES>
O=C(NCN1CCCC1)C4=C(O)[C@@H](N(C)C)[C@@H]5CC3C(C(=O)c2c(O)cccc2[C@@]3(C)O)=C(O)[C@]5(O)C4=O

> <STRUCTURE_SMILES_Desalt>
O=C(NCN1CCCC1)C4=C(O)[C@@H](N(C)C)[C@@H]5CC3C(C(=O)c2c(O)cccc2[C@@]3(C)O)=C(O)[C@]5(O)C4=O

> <Substance_modify_yyyymmdd>
20080429

$$$$
