751-94-0
ChemmineR-0915142007XD

 41 43  0  0  1  0  0  0  0  0  2 V2000
   12.2377   -2.4525    0.0000 Na   0  3  0  0  0  0  0  0  0  0  0  0
    6.9630   -5.6567    0.0000 C    0  0  0  0  0  0  0  0  0  0  0  0
    5.8046   -6.3345    0.0000 C    0  0  0  0  0  0  0  0  0  0  0  0
    3.5000   -6.3345    0.0000 C    0  0  0  0  0  0  0  0  0  0  0  0
    6.9630   -4.3257    0.0000 C    0  0  0  0  0  0  0  0  0  0  0  0
    8.2201   -3.9313    0.0000 C    0  0  0  0  0  0  0  0  0  0  0  0
    4.6338   -5.6567    0.0000 C    0  0  0  0  0  0  0  0  0  0  0  0
    3.5000   -7.6655    0.0000 C    0  0  0  0  0  0  0  0  0  0  0  0
    8.9718   -4.9912    0.0000 C    0  0  0  0  0  0  0  0  0  0  0  0
    8.2201   -2.6003    0.0000 C    0  0  0  0  0  0  0  0  0  0  0  0
    8.2201   -6.0634    0.0000 C    0  0  0  0  0  0  0  0  0  0  0  0
    4.6338   -4.3257    0.0000 C    0  0  0  0  0  0  0  0  0  0  0  0
    5.7553   -3.6356    0.0000 C    0  0  0  0  0  0  0  0  0  0  0  0
    5.8046   -7.6655    0.0000 C    0  0  0  0  0  0  0  0  0  0  0  0
    9.3662   -1.9595    0.0000 C    0  0  0  0  0  0  0  0  0  0  0  0
    2.3415   -8.3310    0.0000 C    0  0  0  0  0  0  0  0  0  0  0  0
    2.3415   -5.6567    0.0000 C    0  0  0  0  0  0  0  0  0  0  0  0
    4.6338   -8.3310    0.0000 C    0  0  0  0  0  0  0  0  0  0  0  0
   10.3521   -4.9912    0.0000 O    0  0  0  0  0  0  0  0  0  0  0  0
   10.9560   -6.1127    0.0000 C    0  0  0  0  0  0  0  0  0  0  0  0
    1.1338   -7.6655    0.0000 C    0  0  0  0  0  0  0  0  0  0  0  0
    9.3662   -0.5792    0.0000 O    0  0  0  0  0  0  0  0  0  0  0  0
    1.1338   -6.3345    0.0000 C    0  0  0  0  0  0  0  0  0  0  0  0
   12.3239   -6.1127    0.0000 O    0  0  0  0  0  0  0  0  0  0  0  0
    4.7201   -0.6901    0.0000 C    0  0  0  0  0  0  0  0  0  0  0  0
    4.7201   -2.0088    0.0000 C    0  0  0  0  0  0  0  0  0  0  0  0
    6.9753   -6.9630    0.0000 C    0  0  0  0  0  0  0  0  0  0  0  0
    5.7922   -4.9912    0.0000 C    0  0  0  0  0  0  0  0  0  0  0  0
    3.5000   -4.9912    0.0000 C    0  0  0  0  0  0  0  0  0  0  0  0
    3.6849   -3.4507    0.0000 O    0  0  0  0  0  0  0  0  0  0  0  0
   10.5123   -2.5511    0.0000 O    0  5  0  0  0  0  0  0  0  0  0  0
    7.0123   -1.9595    0.0000 C    0  0  0  0  0  0  0  0  0  0  0  0
    5.9155   -2.6620    0.0000 C    0  0  0  0  0  0  0  0  0  0  0  0
    0.0000   -8.3433    0.0000 O    0  0  0  0  0  0  0  0  0  0  0  0
    2.3415   -9.6250    0.0000 C    0  0  0  0  0  0  0  0  0  0  0  0
   10.3644   -7.2711    0.0000 C    0  0  0  0  0  0  0  0  0  0  0  0
    5.7553    0.0000    0.0000 C    0  0  0  0  0  0  0  0  0  0  0  0
    3.5123   -0.0616    0.0000 C    0  0  0  0  0  0  0  0  0  0  0  0
    3.5000   -8.9965    0.0000 H    0  0  0  0  0  0  0  0  0  0  0  0
    6.9507   -3.0194    0.0000 H    0  0  0  0  0  0  0  0  0  0  0  0
    4.6338   -6.9877    0.0000 H    0  0  0  0  0  0  0  0  0  0  0  0
  2  3  1  0  0  0  0
  2  5  1  0  0  0  0
  2 11  1  0  0  0  0
  2 27  1  1  0  0  0
  3  7  1  0  0  0  0
  3 14  1  0  0  0  0
  3 28  1  6  0  0  0
  4  7  1  0  0  0  0
  4 17  1  0  0  0  0
  4 29  1  1  0  0  0
  4  8  1  0  0  0  0
  5  6  1  0  0  0  0
  5 13  1  0  0  0  0
  5 40  1  6  0  0  0
  6 10  2  0  0  0  0
  6  9  1  0  0  0  0
  7 12  1  0  0  0  0
  7 41  1  1  0  0  0
  8 18  1  0  0  0  0
  8 16  1  0  0  0  0
  8 39  1  6  0  0  0
  9 11  1  0  0  0  0
  9 19  1  1  0  0  0
 10 15  1  0  0  0  0
 10 32  1  0  0  0  0
 12 13  1  0  0  0  0
 12 30  1  6  0  0  0
 14 18  1  0  0  0  0
 15 22  2  0  0  0  0
 15 31  1  0  0  0  0
 16 21  1  0  0  0  0
 16 35  1  6  0  0  0
 17 23  1  0  0  0  0
 19 20  1  0  0  0  0
 20 24  2  0  0  0  0
 20 36  1  0  0  0  0
 21 34  1  6  0  0  0
 21 23  1  0  0  0  0
 25 26  2  0  0  0  0
 25 37  1  0  0  0  0
 25 38  1  0  0  0  0
 26 33  1  0  0  0  0
 32 33  1  0  0  0  0
M  END
> <ID>
11019

> <Formula>
C31H47NaO6

> <FW>
538.6910 (22.9892+515.7018)

> <DSSTox_CID>
25552

> <DSSTox_RID>
80951

> <DSSTox_GSID>
45552

> <DSSTox_FileID_Sort>
5632

> <TS_ChemName>
Fusidate sodium

> <TS_ChemName_Synonyms>


> <TS_CASRN>
751-94-0

> <CASRN_ChemName_Relationship>
primary

> <TS_Description>
single chemical compound

> <ChemNote>
parent [6990-06-3]

> <STRUCTURE_Shown>
tested chemical

> <STRUCTURE_Formula>
C31H47NaO6

> <STRUCTURE_MW>
538.691

> <STRUCTURE_ChemType>
defined organic

> <STRUCTURE_DefinedOrganicForm>
salt

> <STRUCTURE_IUPAC>
sodium (2Z)-2-[(3alpha,4alpha,5alpha,8alpha,9beta,11alpha,13alpha,14beta,16beta,17Z)-16-(acetyloxy)-3,11-dihydroxy-4,8,10,14-tetramethylgonan-17-ylidene]-6-methylhept-5-enoate

> <STRUCTURE_SMILES>
[Na+].[O-]C(=O)C(\CC\C=C(/C)C)=C4/[C@@H](OC(C)=O)C[C@@]1(C)[C@H]4C[C@@H](O)[C@H]2[C@@]3(C)CC[C@@H](O)[C@@H](C)[C@@H]3CC[C@]12C

> <STRUCTURE_SMILES_Desalt>
O=C(O)C(\CC\C=C(/C)C)=C4/[C@@H](OC(C)=O)C[C@@]1(C)[C@H]4C[C@@H](O)[C@H]2[C@@]3(C)CC[C@@H](O)[C@@H](C)[C@@H]3CC[C@]12C

> <Substance_modify_yyyymmdd>
20100107

$$$$
