7512-17-6
ChemmineR-0915142007XD

 15 15  0  0  1  0  0  0  0  0  1 V2000
    5.3138   -4.6256    0.0000 C   0  0  0  0  0  0  0  0  0  0  0  0
    5.9840   -3.4707    0.0000 O   0  0  0  0  0  0  0  0  0  0  0  0
    5.9660   -5.7925    0.0000 C   0  0  0  0  0  0  0  0  0  0  0  0
    1.3284   -2.3218    0.0000 C   0  0  0  0  0  0  0  0  0  0  0  0
    1.9867   -3.4707    0.0000 C   0  0  0  0  0  0  0  0  0  0  0  0
    3.3091   -3.4707    0.0000 C   0  0  0  0  0  0  0  0  0  0  0  0
    3.9853   -2.3218    0.0000 C   0  0  0  0  0  0  0  0  0  0  0  0
    3.3271   -1.1669    0.0000 O   0  0  0  0  0  0  0  0  0  0  0  0
    1.9986   -1.1669    0.0000 C   0  0  0  0  0  0  0  0  0  0  0  0
    1.3464   -0.0180    0.0000 C   0  0  0  0  0  0  0  0  0  0  0  0
    0.0180    0.0000    0.0000 O   0  0  0  0  0  0  0  0  0  0  0  0
    0.0000   -2.3218    0.0000 O   0  0  0  0  0  0  0  0  0  0  0  0
    1.3105   -4.6077    0.0000 O   0  0  0  0  0  0  0  0  0  0  0  0
    5.3138   -2.3218    0.0000 O   0  0  0  0  0  0  0  0  0  0  0  0
    3.9674   -4.6256    0.0000 N   0  0  0  0  0  0  0  0  0  0  0  0
  1  2  2  0  0  0  0
  1  3  1  0  0  0  0
  1 15  1  0  0  0  0
  4  5  1  0  0  0  0
  4  9  1  0  0  0  0
  4 12  1  6  0  0  0
  5  6  1  0  0  0  0
  5 13  1  1  0  0  0
  6  7  1  0  0  0  0
  6 15  1  6  0  0  0
  7  8  1  0  0  0  0
  7 14  1  0  0  0  0
  8  9  1  0  0  0  0
  9 10  1  1  0  0  0
 10 11  1  0  0  0  0
M  END
> <ID>
11244

> <Formula>
C8H15NO6

> <FW>
221.2078

> <DSSTox_CID>
25855

> <DSSTox_RID>
81176

> <DSSTox_GSID>
45855

> <DSSTox_FileID_Sort>
5857

> <TS_ChemName>
N-Acetylglucosamine

> <TS_ChemName_Synonyms>


> <TS_CASRN>
7512-17-6

> <CASRN_ChemName_Relationship>
primary

> <TS_Description>
single chemical compound

> <ChemNote>


> <STRUCTURE_Shown>
tested chemical

> <STRUCTURE_Formula>
C8H15NO6

> <STRUCTURE_MW>
221.2078

> <STRUCTURE_ChemType>
defined organic

> <STRUCTURE_DefinedOrganicForm>
parent

> <STRUCTURE_IUPAC>
2-(acetylamino)-2-deoxy-D-glucopyranose

> <STRUCTURE_SMILES>
OC1O[C@H](CO)[C@@H](O)[C@H](O)[C@H]1NC(C)=O

> <STRUCTURE_SMILES_Desalt>
OC1O[C@H](CO)[C@@H](O)[C@H](O)[C@H]1NC(C)=O

> <Substance_modify_yyyymmdd>
20110925

$$$$
