75176-37-3
ChemmineR-0915142007XD

 29 31  0  0  1  0  0  0  0  0  1 V2000
    2.3022   -1.9824    0.0000 C   0  0  0  0  0  0  0  0  0  0  0  0
    3.4693   -1.3270    0.0000 C   0  0  0  0  0  0  0  0  0  0  0  0
    4.6044   -1.9824    0.0000 S   0  0  0  0  0  0  0  0  0  0  0  0
    5.7714   -1.3270    0.0000 C   0  0  0  0  0  0  0  0  0  0  0  0
    6.9225   -1.9824    0.0000 C   0  0  0  0  0  0  0  0  0  0  0  0
    8.0736   -1.3270    0.0000 C   0  0  0  0  0  0  0  0  0  0  0  0
    2.3022   -3.3094    0.0000 C   0  0  0  0  0  0  0  0  0  0  0  0
    1.1671   -3.9968    0.0000 C   0  0  0  0  0  0  0  0  0  0  0  0
    0.0000   -3.3094    0.0000 C   0  0  0  0  0  0  0  0  0  0  0  0
    0.0000   -1.9824    0.0000 C   0  0  0  0  0  0  0  0  0  0  0  0
    1.1671   -1.3270    0.0000 C   0  0  0  0  0  0  0  0  0  0  0  0
    3.4693    0.0000    0.0000 O   0  0  0  0  0  0  0  0  0  0  0  0
    6.9225   -3.3094    0.0000 C   0  0  0  0  0  0  0  0  0  0  0  0
    9.2247   -1.9824    0.0000 N   0  0  0  0  0  0  0  0  0  0  0  0
    8.0736    0.0000    0.0000 O   0  0  0  0  0  0  0  0  0  0  0  0
    9.6404   -3.2614    0.0000 C   0  0  0  0  0  0  0  0  0  0  0  0
   10.9673   -3.2614    0.0000 C   0  0  0  0  0  0  0  0  0  0  0  0
   11.3830   -1.9824    0.0000 C   0  0  0  0  0  0  0  0  0  0  0  0
   10.2959   -1.1991    0.0000 C   0  0  0  0  0  0  0  0  0  0  0  0
    8.8410   -4.3326    0.0000 C   0  0  0  0  0  0  0  0  0  0  0  0
   12.5181   -1.3270    0.0000 S   0  0  0  0  0  0  0  0  0  0  0  0
   13.6852   -1.9824    0.0000 C   0  0  0  0  0  0  0  0  0  0  0  0
   13.6852   -3.3094    0.0000 C   0  0  0  0  0  0  0  0  0  0  0  0
   14.8203   -3.9968    0.0000 C   0  0  0  0  0  0  0  0  0  0  0  0
   15.9874   -3.3094    0.0000 C   0  0  0  0  0  0  0  0  0  0  0  0
   15.9874   -1.9824    0.0000 C   0  0  0  0  0  0  0  0  0  0  0  0
   14.8203   -1.3270    0.0000 C   0  0  0  0  0  0  0  0  0  0  0  0
    9.3846   -5.5476    0.0000 O   0  0  0  0  0  0  0  0  0  0  0  0
    7.5300   -4.2047    0.0000 O   0  0  0  0  0  0  0  0  0  0  0  0
  1 11  1  0  0  0  0
  1  2  1  0  0  0  0
  1  7  2  0  0  0  0
  2 12  2  0  0  0  0
  2  3  1  0  0  0  0
  3  4  1  0  0  0  0
  4  5  1  0  0  0  0
  5 13  1  1  0  0  0
  5  6  1  0  0  0  0
  6 14  1  0  0  0  0
  6 15  2  0  0  0  0
  7  8  1  0  0  0  0
  8  9  2  0  0  0  0
  9 10  1  0  0  0  0
 10 11  2  0  0  0  0
 14 16  1  0  0  0  0
 14 19  1  0  0  0  0
 16 20  1  1  0  0  0
 16 17  1  0  0  0  0
 17 18  1  0  0  0  0
 18 21  1  1  0  0  0
 18 19  1  0  0  0  0
 20 28  2  0  0  0  0
 20 29  1  0  0  0  0
 21 22  1  0  0  0  0
 22 23  2  0  0  0  0
 22 27  1  0  0  0  0
 23 24  1  0  0  0  0
 24 25  2  0  0  0  0
 25 26  1  0  0  0  0
 26 27  2  0  0  0  0
M  END
> <ID>
11851

> <Formula>
C22H23NO4S2

> <FW>
429.5523

> <DSSTox_CID>
26640

> <DSSTox_RID>
81786

> <DSSTox_GSID>
46640

> <DSSTox_FileID_Sort>
6467

> <TS_ChemName>
Zofenopril

> <TS_ChemName_Synonyms>


> <TS_CASRN>
75176-37-3

> <CASRN_ChemName_Relationship>
primary

> <TS_Description>
single chemical compound

> <ChemNote>
stereochem

> <STRUCTURE_Shown>
tested chemical

> <STRUCTURE_Formula>
C22H23NO4S2

> <STRUCTURE_MW>
429.5523

> <STRUCTURE_ChemType>
defined organic

> <STRUCTURE_DefinedOrganicForm>
parent

> <STRUCTURE_IUPAC>
(4S)-1-[(2R)-3-(benzoylsulfanyl)-2-methylpropanoyl]-4-(phenylsulfanyl)-L-proline

> <STRUCTURE_SMILES>
O=C([C@@H](C)CSC(=O)c1ccccc1)N3C[C@@H](Sc2ccccc2)C[C@H]3C(=O)O

> <STRUCTURE_SMILES_Desalt>
O=C([C@@H](C)CSC(=O)c1ccccc1)N3C[C@@H](Sc2ccccc2)C[C@H]3C(=O)O

> <Substance_modify_yyyymmdd>
20110808

$$$$
