752-56-7
ChemmineR-0915142007XD

 47 49  0  0  1  0  0  0  0  0  1 V2000
    5.8234  -10.7825    0.0000 C   0  0  0  0  0  0  0  0  0  0  0  0
    5.8234  -12.1569    0.0000 C   0  0  0  0  0  0  0  0  0  0  0  0
    4.6757  -10.1166    0.0000 N   0  0  0  0  0  0  0  0  0  0  0  0
    7.0136  -10.1166    0.0000 N   0  0  0  0  0  0  0  0  0  0  0  0
    4.6757  -12.7945    0.0000 N   0  0  0  0  0  0  0  0  0  0  0  0
    8.1613  -12.1569    0.0000 N   0  0  0  0  0  0  0  0  0  0  0  0
    7.0136  -12.7945    0.0000 C   0  0  0  0  0  0  0  0  0  0  0  0
    8.1613  -10.7825    0.0000 C   0  0  0  0  0  0  0  0  0  0  0  0
    3.4997  -10.7825    0.0000 C   0  0  0  0  0  0  0  0  0  0  0  0
    3.4997  -12.1569    0.0000 C   0  0  0  0  0  0  0  0  0  0  0  0
    2.3379  -10.1166    0.0000 C   0  0  0  0  0  0  0  0  0  0  0  0
    2.3379  -12.7945    0.0000 C   0  0  0  0  0  0  0  0  0  0  0  0
    1.1902  -10.7825    0.0000 C   0  0  0  0  0  0  0  0  0  0  0  0
    1.1902  -12.1569    0.0000 C   0  0  0  0  0  0  0  0  0  0  0  0
    7.0136  -14.1689    0.0000 O   0  0  0  0  0  0  0  0  0  0  0  0
    9.3515  -10.1166    0.0000 O   0  0  0  0  0  0  0  0  0  0  0  0
    0.0000  -10.1166    0.0000 C   0  0  0  0  0  0  0  0  0  0  0  0
    0.0000  -12.8228    0.0000 C   0  0  0  0  0  0  0  0  0  0  0  0
    6.9569   -4.7182    0.0000 C   0  0  0  0  0  0  0  0  0  0  0  0
    6.9853   -6.0643    0.0000 C   0  0  0  0  0  0  0  0  0  0  0  0
    5.8092   -6.7585    0.0000 C   0  0  0  0  0  0  0  0  0  0  0  0
    5.8234   -8.0763    0.0000 C   0  0  0  0  0  0  0  0  0  0  0  0
    4.6757   -8.7705    0.0000 C   0  0  0  0  0  0  0  0  0  0  0  0
    8.0763   -4.0381    0.0000 O   0  0  0  0  0  0  0  0  0  0  0  0
    8.1471   -6.7302    0.0000 O   0  0  0  0  0  0  0  0  0  0  0  0
    4.6616   -6.0926    0.0000 O   0  0  0  0  0  0  0  0  0  0  0  0
    6.9994   -8.7422    0.0000 O   0  0  0  0  0  0  0  0  0  0  0  0
    1.0910   -8.2888    0.0000 C   0  0  0  0  0  0  0  0  0  0  0  0
    2.3379   -8.7847    0.0000 C   0  0  0  0  0  0  0  0  0  0  0  0
    3.4997   -8.1046    0.0000 C   0  0  0  0  0  0  0  0  0  0  0  0
    3.4855   -6.7727    0.0000 C   0  0  0  0  0  0  0  0  0  0  0  0
    2.3237   -6.1068    0.0000 O   0  0  0  0  0  0  0  0  0  0  0  0
   11.6468   -8.7139    0.0000 C   0  0  0  0  0  0  0  0  0  0  0  0
   10.4850   -8.0479    0.0000 C   0  0  0  0  0  0  0  0  0  0  0  0
    9.3089   -8.7280    0.0000 C   0  0  0  0  0  0  0  0  0  0  0  0
    8.1471   -8.0621    0.0000 C   0  0  0  0  0  0  0  0  0  0  0  0
    8.1329   -7.4103    0.0000 O   0  0  0  0  0  0  0  0  0  0  0  0
   12.7945   -6.7019    0.0000 C   0  0  0  0  0  0  0  0  0  0  0  0
   11.6326   -6.0359    0.0000 C   0  0  0  0  0  0  0  0  0  0  0  0
   10.4708   -6.7160    0.0000 C   0  0  0  0  0  0  0  0  0  0  0  0
    9.2948   -6.0501    0.0000 C   0  0  0  0  0  0  0  0  0  0  0  0
    9.2948   -4.7041    0.0000 O   0  0  0  0  0  0  0  0  0  0  0  0
   10.4141    0.0000    0.0000 C   0  0  0  0  0  0  0  0  0  0  0  0
    9.2664   -0.6801    0.0000 C   0  0  0  0  0  0  0  0  0  0  0  0
    9.2806   -2.0261    0.0000 C   0  0  0  0  0  0  0  0  0  0  0  0
    8.1188   -2.6921    0.0000 C   0  0  0  0  0  0  0  0  0  0  0  0
    6.9427   -2.0261    0.0000 O   0  0  0  0  0  0  0  0  0  0  0  0
  1  2  1  0  0  0  0
  1  3  1  0  0  0  0
  1  4  2  0  0  0  0
  2  5  2  0  0  0  0
  2  7  1  0  0  0  0
  3  9  1  0  0  0  0
  3 23  1  0  0  0  0
  4  8  1  0  0  0  0
  5 10  1  0  0  0  0
  6  8  1  0  0  0  0
  6  7  1  0  0  0  0
  7 15  2  0  0  0  0
  8 16  2  0  0  0  0
  9 10  2  0  0  0  0
  9 11  1  0  0  0  0
 10 12  1  0  0  0  0
 11 13  2  0  0  0  0
 12 14  2  0  0  0  0
 13 14  1  0  0  0  0
 13 17  1  0  0  0  0
 14 18  1  0  0  0  0
 19 20  1  0  0  0  0
 19 24  1  0  0  0  0
 20 21  1  0  0  0  0
 20 25  1  1  0  0  0
 21 22  1  0  0  0  0
 21 26  1  6  0  0  0
 22 23  1  0  0  0  0
 22 27  1  1  0  0  0
 24 46  1  0  0  0  0
 25 41  1  0  0  0  0
 26 31  1  0  0  0  0
 27 36  1  0  0  0  0
 28 29  1  0  0  0  0
 29 30  1  0  0  0  0
 30 31  1  0  0  0  0
 31 32  2  0  0  0  0
 33 34  1  0  0  0  0
 34 35  1  0  0  0  0
 35 36  1  0  0  0  0
 36 37  2  0  0  0  0
 38 39  1  0  0  0  0
 39 40  1  0  0  0  0
 40 41  1  0  0  0  0
 41 42  2  0  0  0  0
 43 44  1  0  0  0  0
 44 45  1  0  0  0  0
 45 46  1  0  0  0  0
 46 47  2  0  0  0  0
M  END
> <ID>
12058

> <Formula>
C33H44N4O10

> <FW>
656.7233

> <DSSTox_CID>
26892

> <DSSTox_RID>
81995

> <DSSTox_GSID>
46892

> <DSSTox_FileID_Sort>
6676

> <TS_ChemName>
Riboflavin tetrabutyrate

> <TS_ChemName_Synonyms>


> <TS_CASRN>
752-56-7

> <CASRN_ChemName_Relationship>
primary

> <TS_Description>
single chemical compound

> <ChemNote>
stereochem

> <STRUCTURE_Shown>
tested chemical

> <STRUCTURE_Formula>
C33H44N4O10

> <STRUCTURE_MW>
656.7233

> <STRUCTURE_ChemType>
defined organic

> <STRUCTURE_DefinedOrganicForm>
parent

> <STRUCTURE_IUPAC>
2,3,4,5-tetra-O-butanoyl-1-deoxy-1-(7,8-dimethyl-2,4-dioxo-3,4-dihydrobenzo[g]pteridin-10(2H)-yl)-D-ribitol

> <STRUCTURE_SMILES>
CCCC(=O)OC[C@@H](OC(=O)CCC)[C@@H](OC(=O)CCC)[C@@H](OC(=O)CCC)CN2C3=NC(=O)NC(=O)C3=Nc1cc(C)c(C)cc12

> <STRUCTURE_SMILES_Desalt>
CCCC(=O)OC[C@@H](OC(=O)CCC)[C@@H](OC(=O)CCC)[C@@H](OC(=O)CCC)CN2C3=NC(=O)NC(=O)C3=Nc1cc(C)c(C)cc12

> <Substance_modify_yyyymmdd>
20110727

$$$$
