75272-39-8
ChemmineR-0915142007XD

 27 29  0  0  1  0  0  0  0  0  1 V2000
    4.5915   -2.7204    0.0000 C    0  0  0  0  0  0  0  0  0  0  0  0
    4.5915   -4.0446    0.0000 C    0  0  0  0  0  0  0  0  0  0  0  0
    3.4401   -2.0295    0.0000 C    0  0  0  0  0  0  0  0  0  0  0  0
    3.4401   -4.6923    0.0000 C    0  0  0  0  0  0  0  0  0  0  0  0
    2.3030   -2.7204    0.0000 C    0  0  0  0  0  0  0  0  0  0  0  0
    2.3030   -4.0446    0.0000 C    0  0  0  0  0  0  0  0  0  0  0  0
    1.1371   -2.0295    0.0000 Cl   0  0  0  0  0  0  0  0  0  0  0  0
    1.1371   -4.6923    0.0000 N    0  0  0  0  0  0  0  0  0  0  0  0
    5.7430   -4.6923    0.0000 O    0  0  0  0  0  0  0  0  0  0  0  0
    0.0000   -4.0158    0.0000 C    0  0  0  0  0  0  0  0  0  0  0  0
    5.7430   -2.0295    0.0000 C    0  0  0  0  0  0  0  0  0  0  0  0
    6.8945   -2.6916    0.0000 N    0  0  0  0  0  0  0  0  0  0  0  0
    5.7430   -0.7053    0.0000 O    0  0  0  0  0  0  0  0  0  0  0  0
    8.0460   -2.0295    0.0000 C    0  0  0  0  0  0  0  0  0  0  0  0
    7.6430   -0.7629    0.0000 C    0  0  0  0  0  0  0  0  0  0  0  0
    8.7225    0.0000    0.0000 C    0  0  0  0  0  0  0  0  0  0  0  0
    9.7876   -0.7773    0.0000 N    0  0  0  0  0  0  0  0  0  0  0  0
    9.3702   -2.0295    0.0000 C    0  0  0  0  0  0  0  0  0  0  0  0
   10.1618   -3.1234    0.0000 C    0  0  0  0  0  0  0  0  0  0  0  0
   14.3935   -0.7773    0.0000 C    0  0  0  0  0  0  0  0  0  0  0  0
   14.3935   -2.1302    0.0000 C    0  0  0  0  0  0  0  0  0  0  0  0
   13.2277   -0.1008    0.0000 C    0  0  0  0  0  0  0  0  0  0  0  0
   13.2277   -2.7636    0.0000 C    0  0  0  0  0  0  0  0  0  0  0  0
   12.0906   -0.7773    0.0000 C    0  0  0  0  0  0  0  0  0  0  0  0
   12.0906   -2.1302    0.0000 C    0  0  0  0  0  0  0  0  0  0  0  0
   10.9247   -0.1008    0.0000 C    0  0  0  0  0  0  0  0  0  0  0  0
    6.8945   -4.0446    0.0000 C    0  0  0  0  0  0  0  0  0  0  0  0
  1  2  1  0  0  0  0
  1  3  2  0  0  0  0
  1 11  1  0  0  0  0
  2  4  2  0  0  0  0
  2  9  1  0  0  0  0
  3  5  1  0  0  0  0
  4  6  1  0  0  0  0
  5  6  2  0  0  0  0
  5  7  1  0  0  0  0
  6  8  1  0  0  0  0
  8 10  1  0  0  0  0
  9 27  1  0  0  0  0
 11 12  1  0  0  0  0
 11 13  2  0  0  0  0
 14 12  1  1  0  0  0
 14 15  1  0  0  0  0
 14 18  1  0  0  0  0
 15 16  1  0  0  0  0
 16 17  1  0  0  0  0
 17 18  1  0  0  0  0
 17 26  1  0  0  0  0
 18 19  1  1  0  0  0
 20 21  1  0  0  0  0
 20 22  2  0  0  0  0
 21 23  2  0  0  0  0
 22 24  1  0  0  0  0
 23 25  1  0  0  0  0
 24 25  2  0  0  0  0
 24 26  1  0  0  0  0
M  END
> <ID>
9481

> <Formula>
C21H26ClN3O2

> <FW>
387.903

> <DSSTox_CID>
22612

> <DSSTox_RID>
80057

> <DSSTox_GSID>
42612

> <DSSTox_FileID_Sort>
4739

> <TS_ChemName>
Nemonapride

> <TS_ChemName_Synonyms>


> <TS_CASRN>
75272-39-8

> <CASRN_ChemName_Relationship>
primary

> <TS_Description>
mixture or formulation

> <ChemNote>
mixture of (2S,3S)- and (2R,3R)- enantiomers; structure shown (2S,3S)-; stereochem

> <STRUCTURE_Shown>
representative isomer in mixture

> <STRUCTURE_Formula>
C21H26ClN3O2

> <STRUCTURE_MW>
387.903

> <STRUCTURE_ChemType>
defined organic

> <STRUCTURE_DefinedOrganicForm>
parent

> <STRUCTURE_IUPAC>
N-[(2S,3S)-1-benzyl-2-methylpyrrolidin-3-yl]-5-chloro-2-methoxy-4-(methylamino)benzamide

> <STRUCTURE_SMILES>
Clc1cc(c(OC)cc1NC)C(=O)N[C@H]3CCN(Cc2ccccc2)[C@H]3C

> <STRUCTURE_SMILES_Desalt>
Clc1cc(c(OC)cc1NC)C(=O)N[C@H]3CCN(Cc2ccccc2)[C@H]3C

> <Substance_modify_yyyymmdd>
20081003

$$$$
