75277-39-3
ChemmineR-0915142007XD

 16 15  0  0  0  0  0  0  0  0  2 V2000
    5.7819   -1.9966    0.0000 N    0  0  0  0  0  0  0  0  0  0  0  0
    3.4733   -0.6759    0.0000 N    0  0  0  0  0  0  0  0  0  0  0  0
    3.4733   -1.9966    0.0000 C    0  0  0  0  0  0  0  0  0  0  0  0
    5.7819   -0.6759    0.0000 C    0  0  0  0  0  0  0  0  0  0  0  0
    4.6172   -0.0104    0.0000 C    0  0  0  0  0  0  0  0  0  0  0  0
    4.6172   -2.6518    0.0000 C    0  0  0  0  0  0  0  0  0  0  0  0
    8.0800   -1.9966    0.0000 C    0  0  0  0  0  0  0  0  0  0  0  0
    6.9362   -2.6518    0.0000 C    0  0  0  0  0  0  0  0  0  0  0  0
    9.2447   -2.6726    0.0000 S    0  0  0  0  0  0  0  0  0  0  0  0
    8.5792   -3.8268    0.0000 O    0  0  0  0  0  0  0  0  0  0  0  0
    9.8999   -1.5079    0.0000 O    0  5  0  0  0  0  0  0  0  0  0  0
   10.3990   -3.3277    0.0000 O    0  0  0  0  0  0  0  0  0  0  0  0
    2.3190    0.0000    0.0000 C    0  0  0  0  0  0  0  0  0  0  0  0
    1.1543   -0.6551    0.0000 C    0  0  0  0  0  0  0  0  0  0  0  0
    0.0000    0.0000    0.0000 O    0  0  0  0  0  0  0  0  0  0  0  0
    8.7456   -0.7383    0.0000 Na   0  3  0  0  0  0  0  0  0  0  0  0
  1  4  1  0  0  0  0
  1  6  1  0  0  0  0
  1  8  1  0  0  0  0
  2  3  1  0  0  0  0
  2  5  1  0  0  0  0
  2 13  1  0  0  0  0
  3  6  1  0  0  0  0
  4  5  1  0  0  0  0
  7  8  1  0  0  0  0
  7  9  1  0  0  0  0
  9 10  2  0  0  0  0
  9 11  1  0  0  0  0
  9 12  2  0  0  0  0
 13 14  1  0  0  0  0
 14 15  1  0  0  0  0
M  END
> <ID>
10115

> <Formula>
C8H17N2NaO4S

> <FW>
260.2863 (237.2971+22.9892)

> <DSSTox_CID>
24458

> <DSSTox_RID>
80244

> <DSSTox_GSID>
44458

> <DSSTox_FileID_Sort>
4926

> <TS_ChemName>
Sodium 2-[4-(2-hydroxyethyl)piperazin-1-yl]ethanesulfonate

> <TS_ChemName_Synonyms>
Sodium 2-[4-(2-hydroxyethyl)piperazin-1-yl]ethanesulfonate (1-Piperazineethanesulfonic acid, 4-(2-hydroxyethyl)-, monosodium salt)

> <TS_CASRN>
75277-39-3

> <CASRN_ChemName_Relationship>
primary

> <TS_Description>
single chemical compound

> <ChemNote>
parent [7365-45-9]

> <STRUCTURE_Shown>
tested chemical

> <STRUCTURE_Formula>
C8H17N2NaO4S

> <STRUCTURE_MW>
260.2863

> <STRUCTURE_ChemType>
defined organic

> <STRUCTURE_DefinedOrganicForm>
salt

> <STRUCTURE_IUPAC>
sodium 2-[4-(2-hydroxyethyl)piperazin-1-yl]ethanesulfonate

> <STRUCTURE_SMILES>
[Na+].OCCN1CCN(CC1)CCS([O-])(=O)=O

> <STRUCTURE_SMILES_Desalt>
OCCN1CCN(CC1)CCS(=O)(=O)O

> <Substance_modify_yyyymmdd>
20091116

$$$$
