7529-22-8
ChemmineR-0915142007XD

  8  8  0  0  0  0  0  0  0  0  2 V2000
    1.1534   -2.6531    0.0000 N   0  3  0  0  0  0  0  0  0  0  0  0
    1.1534    0.0000    0.0000 O   0  0  0  0  0  0  0  0  0  0  0  0
    0.0000   -1.9984    0.0000 C   0  0  0  0  0  0  0  0  0  0  0  0
    2.3029   -1.9984    0.0000 C   0  0  0  0  0  0  0  0  0  0  0  0
    2.3029   -0.6699    0.0000 C   0  0  0  0  0  0  0  0  0  0  0  0
    0.0000   -0.6699    0.0000 C   0  0  0  0  0  0  0  0  0  0  0  0
    1.8233   -3.8065    0.0000 O   0  5  0  0  0  0  0  0  0  0  0  0
    0.4796   -3.8065    0.0000 C   0  0  0  0  0  0  0  0  0  0  0  0
  1  3  1  0  0  0  0
  1  4  1  0  0  0  0
  1  7  1  0  0  0  0
  1  8  1  0  0  0  0
  2  5  1  0  0  0  0
  2  6  1  0  0  0  0
  3  6  1  0  0  0  0
  4  5  1  0  0  0  0
M  END
> <ID>
5924

> <Formula>
C5H11NO2

> <FW>
117.1463

> <DSSTox_CID>
9287

> <DSSTox_RID>
78750

> <DSSTox_GSID>
29287

> <DSSTox_FileID_Sort>
3432

> <TS_ChemName>
4-Methylmorpholine 4-oxide

> <TS_ChemName_Synonyms>


> <TS_CASRN>
7529-22-8

> <CASRN_ChemName_Relationship>
primary

> <TS_Description>
single chemical compound

> <ChemNote>


> <STRUCTURE_Shown>
tested chemical

> <STRUCTURE_Formula>
C5H11NO2

> <STRUCTURE_MW>
117.1463

> <STRUCTURE_ChemType>
defined organic

> <STRUCTURE_DefinedOrganicForm>
parent

> <STRUCTURE_IUPAC>
4-methylmorpholine 4-oxide

> <STRUCTURE_SMILES>
[O-][N+]1(C)CCOCC1

> <STRUCTURE_SMILES_Desalt>
C[N+]1(O)CCOCC1

> <Substance_modify_yyyymmdd>
20080429

$$$$
