753-73-1
ChemmineR-0915142007XD

  5  4  0  0  0  0  0  0  0  0  1 V2000
      1.33     -1.33      0.00 Sn   0  0  0  0  0  0  0  0  0  0  0  0
      0.00     -1.33      0.00 Cl   0  0  0  0  0  0  0  0  0  0  0  0
      1.33     -2.66      0.00 Cl   0  0  0  0  0  0  0  0  0  0  0  0
      1.33      0.00      0.00 C    0  0  0  0  0  0  0  0  0  0  0  0
      2.66     -1.33      0.00 C    0  0  0  0  0  0  0  0  0  0  0  0
  1  2  1  0  0  0  0
  1  3  1  0  0  0  0
  1  4  1  0  0  0  0
  1  5  1  0  0  0  0
M  END
> <ID>
5065

> <Formula>
C2H6Cl2Sn

> <FW>
219.685

> <DSSTox_CID>
7304

> <DSSTox_RID>
78398

> <DSSTox_GSID>
27304

> <DSSTox_FileID_Sort>
3081

> <TS_ChemName>
Dimethyltin dichloride

> <TS_ChemName_Synonyms>
Stannane, dichlorodimethyl-

> <TS_CASRN>
753-73-1

> <CASRN_ChemName_Relationship>
primary

> <TS_Description>
single chemical compound

> <ChemNote>


> <STRUCTURE_Shown>
tested chemical

> <STRUCTURE_Formula>
C2H6Cl2Sn

> <STRUCTURE_MW>
219.685

> <STRUCTURE_ChemType>
organometallic

> <STRUCTURE_DefinedOrganicForm>


> <STRUCTURE_IUPAC>
dichloro(dimethyl)stannane

> <STRUCTURE_SMILES>
C[Sn](C)(Cl)Cl

> <STRUCTURE_SMILES_Desalt>
C[Sn](C)(Cl)Cl

> <Substance_modify_yyyymmdd>
20080429

$$$$
