75359-31-8
ChemmineR-0915142007XD

 38 38  0  0  0  0  0  0  0  0  1 V2000
    2.3024   -2.0034    0.0000 C   0  0  0  0  0  0  0  0  0  0  0  0
    2.3024   -3.3190    0.0000 C   0  0  0  0  0  0  0  0  0  0  0  0
    3.4535   -1.3306    0.0000 C   0  0  0  0  0  0  0  0  0  0  0  0
    3.4535   -3.9768    0.0000 C   0  0  0  0  0  0  0  0  0  0  0  0
    3.4535    0.0000    0.0000 O   0  0  0  0  0  0  0  0  0  0  0  0
    4.5898   -3.3190    0.0000 O   0  0  0  0  0  0  0  0  0  0  0  0
    4.5898   -2.0034    0.0000 O   0  0  0  0  0  0  0  0  0  0  0  0
    3.4535   -5.3074    0.0000 O   0  0  0  0  0  0  0  0  0  0  0  0
    1.1362   -1.3306    0.0000 C   0  0  0  0  0  0  0  0  0  0  0  0
    1.1362   -3.9768    0.0000 C   0  0  0  0  0  0  0  0  0  0  0  0
    0.0000   -2.0034    0.0000 C   0  0  0  0  0  0  0  0  0  0  0  0
    0.0000   -3.3190    0.0000 C   0  0  0  0  0  0  0  0  0  0  0  0
    4.5898   -5.9802    0.0000 C   0  0  0  0  0  0  0  0  0  0  0  0
    4.5898   -7.3108    0.0000 C   0  0  0  0  0  0  0  0  0  0  0  0
    5.7559   -7.9536    0.0000 C   0  0  0  0  0  0  0  0  0  0  0  0
    5.7559   -9.2992    0.0000 C   0  0  0  0  0  0  0  0  0  0  0  0
    6.9071   -9.9719    0.0000 C   0  0  0  0  0  0  0  0  0  0  0  0
    6.9071  -11.3025    0.0000 C   0  0  0  0  0  0  0  0  0  0  0  0
    8.0583  -11.9603    0.0000 C   0  0  0  0  0  0  0  0  0  0  0  0
    5.7559   -1.3306    0.0000 C   0  0  0  0  0  0  0  0  0  0  0  0
    6.9071   -2.0034    0.0000 C   0  0  0  0  0  0  0  0  0  0  0  0
    8.0583   -1.3306    0.0000 C   0  0  0  0  0  0  0  0  0  0  0  0
    9.2244   -2.0034    0.0000 C   0  0  0  0  0  0  0  0  0  0  0  0
   10.3606   -1.3306    0.0000 C   0  0  0  0  0  0  0  0  0  0  0  0
   11.5118   -2.0034    0.0000 C   0  0  0  0  0  0  0  0  0  0  0  0
   12.6331   -1.3306    0.0000 C   0  0  0  0  0  0  0  0  0  0  0  0
    8.0583  -13.2909    0.0000 C   0  0  0  0  0  0  0  0  0  0  0  0
    9.2244  -13.9487    0.0000 C   0  0  0  0  0  0  0  0  0  0  0  0
   13.7992   -2.0034    0.0000 C   0  0  0  0  0  0  0  0  0  0  0  0
   14.9504   -1.3306    0.0000 C   0  0  0  0  0  0  0  0  0  0  0  0
    3.4535   -7.9985    0.0000 C   0  0  0  0  0  0  0  0  0  0  0  0
    4.5898   -9.9719    0.0000 C   0  0  0  0  0  0  0  0  0  0  0  0
    5.7559  -11.9603    0.0000 C   0  0  0  0  0  0  0  0  0  0  0  0
    6.9071  -13.9487    0.0000 C   0  0  0  0  0  0  0  0  0  0  0  0
    9.2244   -3.3339    0.0000 C   0  0  0  0  0  0  0  0  0  0  0  0
    6.9071   -3.3339    0.0000 C   0  0  0  0  0  0  0  0  0  0  0  0
   11.5118   -3.3339    0.0000 C   0  0  0  0  0  0  0  0  0  0  0  0
   13.7992   -3.3339    0.0000 C   0  0  0  0  0  0  0  0  0  0  0  0
  1  2  2  0  0  0  0
  1  3  1  0  0  0  0
  1  9  1  0  0  0  0
  2  4  1  0  0  0  0
  2 10  1  0  0  0  0
  3  5  2  0  0  0  0
  3  7  1  0  0  0  0
  4  6  2  0  0  0  0
  4  8  1  0  0  0  0
  7 20  1  0  0  0  0
  8 13  1  0  0  0  0
  9 11  2  0  0  0  0
 10 12  2  0  0  0  0
 11 12  1  0  0  0  0
 13 14  1  0  0  0  0
 14 15  1  0  0  0  0
 14 31  1  0  0  0  0
 15 16  1  0  0  0  0
 16 17  1  0  0  0  0
 16 32  1  0  0  0  0
 17 18  1  0  0  0  0
 18 19  1  0  0  0  0
 18 33  1  0  0  0  0
 19 27  1  0  0  0  0
 20 21  1  0  0  0  0
 21 22  1  0  0  0  0
 21 36  1  0  0  0  0
 22 23  1  0  0  0  0
 23 24  1  0  0  0  0
 23 35  1  0  0  0  0
 24 25  1  0  0  0  0
 25 26  1  0  0  0  0
 25 37  1  0  0  0  0
 26 29  1  0  0  0  0
 27 28  1  0  0  0  0
 27 34  1  0  0  0  0
 29 30  1  0  0  0  0
 29 38  1  0  0  0  0
M  END
> <ID>
12181

> <Formula>
C34H58O4

> <FW>
530.8219

> <DSSTox_CID>
27027

> <DSSTox_RID>
82048

> <DSSTox_GSID>
47027

> <DSSTox_FileID_Sort>
6729

> <TS_ChemName>
Ditridecyl phthalate (mixture of branched chain isomers)

> <TS_ChemName_Synonyms>


> <TS_CASRN>
75359-31-8

> <CASRN_ChemName_Relationship>
primary

> <TS_Description>
mixture or formulation

> <ChemNote>
mixture of branched chain isomers; structure shown 2,4,6,8-tetramethylnonyl ester

> <STRUCTURE_Shown>
representative isomer in mixture

> <STRUCTURE_Formula>
C34H58O4

> <STRUCTURE_MW>
530.8219

> <STRUCTURE_ChemType>
defined organic

> <STRUCTURE_DefinedOrganicForm>
parent

> <STRUCTURE_IUPAC>
bis(2,4,6,8-tetramethylnonyl) benzene-1,2-dicarboxylate

> <STRUCTURE_SMILES>
CC(C)CC(C)CC(C)CC(C)COC(=O)c1ccccc1C(=O)OCC(C)CC(C)CC(C)CC(C)C

> <STRUCTURE_SMILES_Desalt>
CC(C)CC(C)CC(C)CC(C)COC(=O)c1ccccc1C(=O)OCC(C)CC(C)CC(C)CC(C)C

> <Substance_modify_yyyymmdd>
20100427

$$$$
