754-91-6
ChemmineR-0915142007XD

 29 28  0  0  0  0  0  0  0  0  1 V2000
    2.2650   -1.3107    0.0000 C   0  0  0  0  0  0  0  0  0  0  0  0
    3.4148   -2.0006    0.0000 C   0  0  0  0  0  0  0  0  0  0  0  0
    4.5646   -1.3107    0.0000 C   0  0  0  0  0  0  0  0  0  0  0  0
    5.7143   -2.0006    0.0000 C   0  0  0  0  0  0  0  0  0  0  0  0
    6.8641   -1.3107    0.0000 C   0  0  0  0  0  0  0  0  0  0  0  0
    8.0138   -2.0006    0.0000 C   0  0  0  0  0  0  0  0  0  0  0  0
    9.1636   -1.3107    0.0000 C   0  0  0  0  0  0  0  0  0  0  0  0
   10.3134   -2.0006    0.0000 C   0  0  0  0  0  0  0  0  0  0  0  0
    1.0693   -2.0006    0.0000 S   0  0  0  0  0  0  0  0  0  0  0  0
    0.3794   -0.7358    0.0000 O   0  0  0  0  0  0  0  0  0  0  0  0
    1.7246   -3.1044    0.0000 O   0  0  0  0  0  0  0  0  0  0  0  0
    0.0000   -2.6100    0.0000 N   0  0  0  0  0  0  0  0  0  0  0  0
    2.2650    0.0000    0.0000 F   0  0  0  0  0  0  0  0  0  0  0  0
    2.2650   -2.6445    0.0000 F   0  0  0  0  0  0  0  0  0  0  0  0
    3.4148   -3.2998    0.0000 F   0  0  0  0  0  0  0  0  0  0  0  0
    3.4148   -0.6554    0.0000 F   0  0  0  0  0  0  0  0  0  0  0  0
    4.5646    0.0000    0.0000 F   0  0  0  0  0  0  0  0  0  0  0  0
    4.5646   -2.6445    0.0000 F   0  0  0  0  0  0  0  0  0  0  0  0
    5.7143   -3.2998    0.0000 F   0  0  0  0  0  0  0  0  0  0  0  0
    5.7143   -0.6554    0.0000 F   0  0  0  0  0  0  0  0  0  0  0  0
    6.8641    0.0000    0.0000 F   0  0  0  0  0  0  0  0  0  0  0  0
    6.8641   -2.6445    0.0000 F   0  0  0  0  0  0  0  0  0  0  0  0
    8.0138   -3.2998    0.0000 F   0  0  0  0  0  0  0  0  0  0  0  0
    8.0138   -0.6554    0.0000 F   0  0  0  0  0  0  0  0  0  0  0  0
    9.1636    0.0000    0.0000 F   0  0  0  0  0  0  0  0  0  0  0  0
   10.3134   -0.6554    0.0000 F   0  0  0  0  0  0  0  0  0  0  0  0
   11.4976   -1.3107    0.0000 F   0  0  0  0  0  0  0  0  0  0  0  0
   10.3134   -3.2998    0.0000 F   0  0  0  0  0  0  0  0  0  0  0  0
   11.4976   -2.6445    0.0000 F   0  0  0  0  0  0  0  0  0  0  0  0
  1  2  1  0  0  0  0
  1  9  1  0  0  0  0
  1 13  1  0  0  0  0
  1 14  1  0  0  0  0
  2  3  1  0  0  0  0
  2 15  1  0  0  0  0
  2 16  1  0  0  0  0
  3  4  1  0  0  0  0
  3 17  1  0  0  0  0
  3 18  1  0  0  0  0
  4  5  1  0  0  0  0
  4 19  1  0  0  0  0
  4 20  1  0  0  0  0
  5  6  1  0  0  0  0
  5 21  1  0  0  0  0
  5 22  1  0  0  0  0
  6  7  1  0  0  0  0
  6 23  1  0  0  0  0
  6 24  1  0  0  0  0
  7  8  1  0  0  0  0
  7 25  1  0  0  0  0
  7 26  1  0  0  0  0
  8 27  1  0  0  0  0
  8 28  1  0  0  0  0
  8 29  1  0  0  0  0
  9 10  2  0  0  0  0
  9 12  1  0  0  0  0
  9 11  2  0  0  0  0
M  END
> <ID>
7547

> <Formula>
C8H2F17NO2S

> <FW>
499.1448

> <DSSTox_CID>
18939

> <DSSTox_RID>
79421

> <DSSTox_GSID>
38939

> <DSSTox_FileID_Sort>
4103

> <TS_ChemName>
Perfluorooctanesulfonamide

> <TS_ChemName_Synonyms>
Perfluorooctanesulfonamide (PFOSA)

> <TS_CASRN>
754-91-6

> <CASRN_ChemName_Relationship>
primary

> <TS_Description>
single chemical compound

> <ChemNote>


> <STRUCTURE_Shown>
tested chemical

> <STRUCTURE_Formula>
C8H2F17NO2S

> <STRUCTURE_MW>
499.1448

> <STRUCTURE_ChemType>
defined organic

> <STRUCTURE_DefinedOrganicForm>
parent

> <STRUCTURE_IUPAC>
1,1,2,2,3,3,4,4,5,5,6,6,7,7,8,8,8-heptadecafluorooctane-1-sulfonamide

> <STRUCTURE_SMILES>
FC(F)(C(F)(F)S(N)(=O)=O)C(F)(F)C(F)(F)C(F)(F)C(F)(F)C(F)(F)C(F)(F)F

> <STRUCTURE_SMILES_Desalt>
FC(F)(C(F)(F)S(N)(=O)=O)C(F)(F)C(F)(F)C(F)(F)C(F)(F)C(F)(F)C(F)(F)F

> <Substance_modify_yyyymmdd>
20080429

$$$$
