75438-57-2
ChemmineR-0915142007XD

 16 17  0  0  0  0  0  0  0  0  1 V2000
    3.4611   -2.6504    0.0000 C    0  0  0  0  0  0  0  0  0  0  0  0
    2.3074   -1.9878    0.0000 C    0  0  0  0  0  0  0  0  0  0  0  0
    3.4611   -3.9834    0.0000 C    0  0  0  0  0  0  0  0  0  0  0  0
    4.6070   -1.9878    0.0000 N    0  0  0  0  0  0  0  0  0  0  0  0
    1.1381   -2.6504    0.0000 N    0  0  0  0  0  0  0  0  0  0  0  0
    2.3074   -0.6782    0.0000 O    0  0  0  0  0  0  0  0  0  0  0  0
    2.3074   -4.6538    0.0000 N    0  0  0  0  0  0  0  0  0  0  0  0
    4.6070   -4.6538    0.0000 Cl   0  0  0  0  0  0  0  0  0  0  0  0
    5.7452   -2.6504    0.0000 C    0  0  0  0  0  0  0  0  0  0  0  0
    1.1381   -3.9834    0.0000 C    0  0  0  0  0  0  0  0  0  0  0  0
    1.1381    0.0000    0.0000 C    0  0  0  0  0  0  0  0  0  0  0  0
    5.7452   -3.9834    0.0000 N    0  0  0  0  0  0  0  0  0  0  0  0
    7.0080   -2.2451    0.0000 N    0  0  0  0  0  0  0  0  0  0  0  0
    0.0000   -4.6538    0.0000 C    0  0  0  0  0  0  0  0  0  0  0  0
    7.0080   -4.3810    0.0000 C    0  0  0  0  0  0  0  0  0  0  0  0
    7.7953   -3.3208    0.0000 C    0  0  0  0  0  0  0  0  0  0  0  0
  1  2  1  0  0  0  0
  1  3  2  0  0  0  0
  1  4  1  0  0  0  0
  2  5  2  0  0  0  0
  2  6  1  0  0  0  0
  3  7  1  0  0  0  0
  3  8  1  0  0  0  0
  4  9  1  0  0  0  0
  5 10  1  0  0  0  0
  6 11  1  0  0  0  0
  7 10  2  0  0  0  0
  9 12  1  0  0  0  0
  9 13  2  0  0  0  0
 10 14  1  0  0  0  0
 12 15  1  0  0  0  0
 13 16  1  0  0  0  0
 15 16  1  0  0  0  0
M  END
> <ID>
10789

> <Formula>
C9H12ClN5O

> <FW>
241.6775

> <DSSTox_CID>
25170

> <DSSTox_RID>
80720

> <DSSTox_GSID>
45170

> <DSSTox_FileID_Sort>
5401

> <TS_ChemName>
Moxonidine

> <TS_ChemName_Synonyms>


> <TS_CASRN>
75438-57-2

> <CASRN_ChemName_Relationship>
primary

> <TS_Description>
single chemical compound

> <ChemNote>
tautomers

> <STRUCTURE_Shown>
tested chemical

> <STRUCTURE_Formula>
C9H12ClN5O

> <STRUCTURE_MW>
241.6775

> <STRUCTURE_ChemType>
defined organic

> <STRUCTURE_DefinedOrganicForm>
parent

> <STRUCTURE_IUPAC>
4-chloro-N-(4,5-dihydro-1H-imidazol-2-yl)-6-methoxy-2-methylpyrimidin-5-amine

> <STRUCTURE_SMILES>
COc2nc(C)nc(Cl)c2NC1=NCCN1

> <STRUCTURE_SMILES_Desalt>
COc2nc(C)nc(Cl)c2NC1=NCCN1

> <Substance_modify_yyyymmdd>
20100107

$$$$
