75443-99-1
ChemmineR-0915142007XD

 59 64  0  0  1  0  0  0  0  0  1 V2000
    9.8187   -2.2579    0.0000 Cl   0  0  0  0  0  0  0  0  0  0  0  0
    0.0000   -8.6380    0.0000 C    0  0  0  0  0  0  0  0  0  0  0  0
    1.1600   -7.9751    0.0000 O    0  0  0  0  0  0  0  0  0  0  0  0
    2.2993   -8.6380    0.0000 C    0  0  0  0  0  0  0  0  0  0  0  0
    2.2993   -9.9637    0.0000 O    0  0  0  0  0  0  0  0  0  0  0  0
    3.4593   -7.9751    0.0000 C    0  0  0  0  0  0  0  0  0  0  0  0
    3.4593   -6.6287    0.0000 C    0  0  0  0  0  0  0  0  0  0  0  0
    2.2993   -5.9658    0.0000 C    0  0  0  0  0  0  0  0  0  0  0  0
    2.2993   -4.6401    0.0000 C    0  0  0  0  0  0  0  0  0  0  0  0
    1.1600   -3.9772    0.0000 C    0  0  0  0  0  0  0  0  0  0  0  0
    0.0000   -4.6401    0.0000 O    0  0  0  0  0  0  0  0  0  0  0  0
    1.1600   -2.6515    0.0000 C    0  0  0  0  0  0  0  0  0  0  0  0
    0.0000   -1.9886    0.0000 C    0  0  0  0  0  0  0  0  0  0  0  0
    0.0000   -0.6629    0.0000 C    0  0  0  0  0  0  0  0  0  0  0  0
    1.1600    0.0000    0.0000 C    0  0  0  0  0  0  0  0  0  0  0  0
    2.2993   -0.6629    0.0000 C    0  0  0  0  0  0  0  0  0  0  0  0
    3.4593    0.0000    0.0000 O    0  0  0  0  0  0  0  0  0  0  0  0
    2.2993   -1.9886    0.0000 C    0  0  0  0  0  0  0  0  0  0  0  0
    3.4593   -2.6515    0.0000 C    0  0  0  0  0  0  0  0  0  0  0  0
    4.5986   -1.9886    0.0000 O    0  0  0  0  0  0  0  0  0  0  0  0
    3.4593   -3.9772    0.0000 C    0  0  0  0  0  0  0  0  0  0  0  0
    4.5986   -4.6401    0.0000 C    0  0  0  0  0  0  0  0  0  0  0  0
    5.7587   -3.9772    0.0000 O    0  0  0  0  0  0  0  0  0  0  0  0
    4.5986   -5.9658    0.0000 C    0  0  0  0  0  0  0  0  0  0  0  0
    5.7587   -6.6287    0.0000 C    0  0  0  0  0  0  0  0  0  0  0  0
    5.7587   -7.9751    0.0000 C    0  0  0  0  0  0  0  0  0  0  0  0
    4.5986   -8.6380    0.0000 C    0  0  0  0  0  0  0  0  0  0  0  0
    3.7493   -9.6530    0.0000 O    0  0  0  0  0  0  0  0  0  0  0  0
    5.4479   -9.6530    0.0000 C    0  0  0  0  0  0  0  0  0  0  0  0
    5.0129  -10.8959    0.0000 C    0  0  0  0  0  0  0  0  0  0  0  0
    6.8980   -5.9658    0.0000 O    0  0  0  0  0  0  0  0  0  0  0  0
    8.0580   -6.6287    0.0000 C    0  0  0  0  0  0  0  0  0  0  0  0
    9.1973   -5.9658    0.0000 O    0  0  0  0  0  0  0  0  0  0  0  0
   10.3573   -6.6287    0.0000 C    0  0  0  0  0  0  0  0  0  0  0  0
   11.5173   -5.9658    0.0000 C    0  0  0  0  0  0  0  0  0  0  0  0
   10.3573   -7.9751    0.0000 C    0  0  0  0  0  0  0  0  0  0  0  0
   11.5173   -8.6380    0.0000 O    0  0  0  0  0  0  0  0  0  0  0  0
   12.6566   -7.9751    0.0000 C    0  0  0  0  0  0  0  0  0  0  0  0
   12.6566   -6.6287    0.0000 C    0  0  0  0  0  0  0  0  0  0  0  0
   13.8167   -5.9658    0.0000 C    0  0  0  0  0  0  0  0  0  0  0  0
   13.8167   -4.6401    0.0000 O    0  0  0  0  0  0  0  0  0  0  0  0
   14.9560   -6.6287    0.0000 C    0  0  0  0  0  0  0  0  0  0  0  0
   16.1160   -5.9658    0.0000 O    0  0  0  0  0  0  0  0  0  0  0  0
   17.2553   -6.6287    0.0000 C    0  0  0  0  0  0  0  0  0  0  0  0
   18.4153   -5.9658    0.0000 C    0  0  0  0  0  0  0  0  0  0  0  0
   19.5546   -6.6287    0.0000 C    0  0  0  0  0  0  0  0  0  0  0  0
   19.5546   -7.9751    0.0000 C    0  0  0  0  0  0  0  0  0  0  0  0
   20.7146   -8.6380    0.0000 O    0  0  0  0  0  0  0  0  0  0  0  0
   18.4153   -8.6380    0.0000 C    0  0  0  0  0  0  0  0  0  0  0  0
   18.4153   -9.9637    0.0000 C    0  0  0  0  0  0  0  0  0  0  0  0
   17.2553   -7.9751    0.0000 O    0  0  0  0  0  0  0  0  0  0  0  0
   14.9560   -7.9751    0.0000 C    0  0  0  0  0  0  0  0  0  0  0  0
   16.1160   -8.6380    0.0000 C    0  0  0  0  0  0  0  0  0  0  0  0
   13.8167   -8.6380    0.0000 O    0  0  0  0  0  0  0  0  0  0  0  0
    9.1973   -8.6380    0.0000 C    0  0  0  0  0  0  0  0  0  0  0  0
    8.0580   -7.9751    0.0000 C    0  0  0  0  0  0  0  0  0  0  0  0
    9.1973   -9.9637    0.0000 N    0  0  0  0  0  0  0  0  0  0  0  0
   10.3573  -10.6266    0.0000 C    0  0  0  0  0  0  0  0  0  0  0  0
    8.0580  -10.6266    0.0000 C    0  0  0  0  0  0  0  0  0  0  0  0
  2  3  1  0  0  0  0
  3  4  1  0  0  0  0
  4  5  2  0  0  0  0
  6  4  1  6  0  0  0
  6  7  1  0  0  0  0
  6 27  1  0  0  0  0
  7  8  2  0  0  0  0
  7 24  1  0  0  0  0
  8  9  1  0  0  0  0
  9 10  1  0  0  0  0
  9 21  2  0  0  0  0
 10 11  2  0  0  0  0
 10 12  1  0  0  0  0
 12 13  2  0  0  0  0
 12 18  1  0  0  0  0
 13 14  1  0  0  0  0
 14 15  2  0  0  0  0
 15 16  1  0  0  0  0
 16 17  1  0  0  0  0
 16 18  2  0  0  0  0
 18 19  1  0  0  0  0
 19 20  2  0  0  0  0
 19 21  1  0  0  0  0
 21 22  1  0  0  0  0
 22 23  1  0  0  0  0
 22 24  2  0  0  0  0
 24 25  1  0  0  0  0
 25 26  1  0  0  0  0
 25 31  1  1  0  0  0
 26 27  1  0  0  0  0
 27 28  1  1  0  0  0
 27 29  1  6  0  0  0
 29 30  1  0  0  0  0
 32 31  1  6  0  0  0
 32 33  1  0  0  0  0
 32 56  1  0  0  0  0
 33 34  1  0  0  0  0
 34 35  1  1  0  0  0
 34 36  1  0  0  0  0
 36 37  1  1  0  0  0
 36 55  1  0  0  0  0
 38 37  1  1  0  0  0
 38 39  1  0  0  0  0
 38 54  1  0  0  0  0
 39 40  1  0  0  0  0
 40 41  1  6  0  0  0
 40 42  1  0  0  0  0
 42 43  1  6  0  0  0
 42 52  1  0  0  0  0
 44 43  1  1  0  0  0
 44 45  1  0  0  0  0
 44 51  1  0  0  0  0
 45 46  1  0  0  0  0
 46 47  1  0  0  0  0
 47 48  2  0  0  0  0
 47 49  1  0  0  0  0
 49 50  1  6  0  0  0
 49 51  1  0  0  0  0
 52 53  1  6  0  0  0
 52 54  1  0  0  0  0
 55 56  1  0  0  0  0
 55 57  1  1  0  0  0
 57 58  1  0  0  0  0
 57 59  1  0  0  0  0
M  END
> <ID>
11866

> <Formula>
C42H54ClNO15

> <FW>
848.3289 (36.4609+811.8679)

> <DSSTox_CID>
26658

> <DSSTox_RID>
81801

> <DSSTox_GSID>
46658

> <DSSTox_FileID_Sort>
6482

> <TS_ChemName>
Aclarubicin hydrochloride

> <TS_ChemName_Synonyms>


> <TS_CASRN>
75443-99-1

> <CASRN_ChemName_Relationship>
primary

> <TS_Description>
single chemical compound

> <ChemNote>
absolute stereochem; tautomers; parent [57576-44-0]

> <STRUCTURE_Shown>
tested chemical

> <STRUCTURE_Formula>
C42H54ClNO15

> <STRUCTURE_MW>
848.3289

> <STRUCTURE_ChemType>
defined organic

> <STRUCTURE_DefinedOrganicForm>
complex

> <STRUCTURE_IUPAC>
methyl (1R,2R,4S)-2-ethyl-2,5,7-trihydroxy-6,11-dioxo-4-{[2,3,6-trideoxy-4-O-{2,6-dideoxy-4-O-[(2R,6S)-6-methyl-5-oxotetrahydro-2H-pyran-2-yl]-alpha-L-lyxo-hexopyranosyl}-3-(dimethylamino)-alpha-L-lyxo-hexopyranosyl]oxy}-1,2,3,4,6,11-hexahydrotetracene-1-

> <STRUCTURE_SMILES>
Cl.O=C(OC)[C@@H]4c3cc2C(=O)c1cccc(O)c1C(=O)c2c(O)c3[C@H](C[C@]4(O)CC)O[C@H]7C[C@@H]([C@H](O[C@H]6C[C@H](O)[C@H](O[C@H]5CCC(=O)[C@H](C)O5)[C@H](C)O6)[C@H](C)O7)N(C)C

> <STRUCTURE_SMILES_Desalt>
O=C(OC)[C@@H]4c3cc2C(=O)c1cccc(O)c1C(=O)c2c(O)c3[C@H](C[C@]4(O)CC)O[C@H]7C[C@@H]([C@H](O[C@H]6C[C@H](O)[C@H](O[C@H]5CCC(=O)[C@H](C)O5)[C@H](C)O6)[C@H](C)O7)N(C)C

> <Substance_modify_yyyymmdd>
20110808

$$$$
