75444-65-4
ChemmineR-0915142007XD

 29 32  0  0  0  0  0  0  0  0  1 V2000
    0.0000   -2.3078    0.0000 C   0  0  0  0  0  0  0  0  0  0  0  0
    0.6573   -1.1539    0.0000 C   0  0  0  0  0  0  0  0  0  0  0  0
    1.9865   -1.1539    0.0000 C   0  0  0  0  0  0  0  0  0  0  0  0
    0.6573   -3.4618    0.0000 C   0  0  0  0  0  0  0  0  0  0  0  0
    1.9865   -3.4618    0.0000 C   0  0  0  0  0  0  0  0  0  0  0  0
    2.6584   -2.3078    0.0000 N   0  0  0  0  0  0  0  0  0  0  0  0
    3.9876   -2.3078    0.0000 C   0  0  0  0  0  0  0  0  0  0  0  0
    4.6449   -3.4618    0.0000 C   0  0  0  0  0  0  0  0  0  0  0  0
    3.9876   -4.6157    0.0000 C   0  0  0  0  0  0  0  0  0  0  0  0
    2.6584   -4.6157    0.0000 N   0  0  0  0  0  0  0  0  0  0  0  0
    4.6449   -1.1539    0.0000 O   0  0  0  0  0  0  0  0  0  0  0  0
    4.6449   -5.7696    0.0000 C   0  0  0  0  0  0  0  0  0  0  0  0
    5.9741   -3.4618    0.0000 C   0  0  0  0  0  0  0  0  0  0  0  0
    6.6460   -4.6157    0.0000 C   0  0  0  0  0  0  0  0  0  0  0  0
    7.9606   -4.6157    0.0000 N   0  0  0  0  0  0  0  0  0  0  0  0
    8.6179   -3.4618    0.0000 C   0  0  0  0  0  0  0  0  0  0  0  0
    9.9471   -3.4618    0.0000 C   0  0  0  0  0  0  0  0  0  0  0  0
   10.6190   -4.6157    0.0000 C   0  0  0  0  0  0  0  0  0  0  0  0
    9.9471   -5.7696    0.0000 C   0  0  0  0  0  0  0  0  0  0  0  0
    8.6179   -5.7696    0.0000 C   0  0  0  0  0  0  0  0  0  0  0  0
   11.9482   -4.6157    0.0000 C   0  0  0  0  0  0  0  0  0  0  0  0
   12.6055   -3.4618    0.0000 C   0  0  0  0  0  0  0  0  0  0  0  0
   11.9482   -2.3078    0.0000 C   0  0  0  0  0  0  0  0  0  0  0  0
   12.6055   -1.1539    0.0000 C   0  0  0  0  0  0  0  0  0  0  0  0
   13.9347   -1.1539    0.0000 C   0  0  0  0  0  0  0  0  0  0  0  0
   14.6066   -2.3078    0.0000 C   0  0  0  0  0  0  0  0  0  0  0  0
   13.9347   -3.4618    0.0000 C   0  0  0  0  0  0  0  0  0  0  0  0
   14.6066    0.0000    0.0000 F   0  0  0  0  0  0  0  0  0  0  0  0
   12.6055   -5.7696    0.0000 O   0  0  0  0  0  0  0  0  0  0  0  0
  1  2  1  0  0  0  0
  1  4  2  0  0  0  0
  2  3  2  0  0  0  0
  3  6  1  0  0  0  0
  4  5  1  0  0  0  0
  5 10  2  0  0  0  0
  5  6  1  0  0  0  0
  6  7  1  0  0  0  0
  7  8  1  0  0  0  0
  7 11  2  0  0  0  0
  8  9  2  0  0  0  0
  8 13  1  0  0  0  0
  9 10  1  0  0  0  0
  9 12  1  0  0  0  0
 13 14  1  0  0  0  0
 14 15  1  0  0  0  0
 15 16  1  0  0  0  0
 15 20  1  0  0  0  0
 16 17  1  0  0  0  0
 17 18  1  0  0  0  0
 18 19  1  0  0  0  0
 18 21  1  0  0  0  0
 19 20  1  0  0  0  0
 21 22  1  0  0  0  0
 21 29  2  0  0  0  0
 22 23  2  0  0  0  0
 22 27  1  0  0  0  0
 23 24  1  0  0  0  0
 24 25  2  0  0  0  0
 25 26  1  0  0  0  0
 25 28  1  0  0  0  0
 26 27  2  0  0  0  0
M  END
> <ID>
10800

> <Formula>
C23H24FN3O2

> <FW>
393.454

> <DSSTox_CID>
25182

> <DSSTox_RID>
80730

> <DSSTox_GSID>
45182

> <DSSTox_FileID_Sort>
5411

> <TS_ChemName>
Pirenperone

> <TS_ChemName_Synonyms>


> <TS_CASRN>
75444-65-4

> <CASRN_ChemName_Relationship>
primary

> <TS_Description>
single chemical compound

> <ChemNote>


> <STRUCTURE_Shown>
tested chemical

> <STRUCTURE_Formula>
C23H24FN3O2

> <STRUCTURE_MW>
393.454

> <STRUCTURE_ChemType>
defined organic

> <STRUCTURE_DefinedOrganicForm>
parent

> <STRUCTURE_IUPAC>
3-{2-[4-(4-fluorobenzoyl)piperidin-1-yl]ethyl}-2-methyl-4H-pyrido[1,2-a]pyrimidin-4-one

> <STRUCTURE_SMILES>
Fc1ccc(cc1)C(=O)C4CCN(CCC3=C(C)N=C2C=CC=CN2C3=O)CC4

> <STRUCTURE_SMILES_Desalt>
Fc1ccc(cc1)C(=O)C4CCN(CCC3=C(C)N=C2C=CC=CN2C3=O)CC4

> <Substance_modify_yyyymmdd>
20100107

$$$$
