7549-33-9
ChemmineR-0915142007XD

 14 14  0  0  0  0  0  0  0  0  1 V2000
    2.3169   -2.6805    0.0000 C   0  0  0  0  0  0  0  0  0  0  0  0
    2.3169   -4.0000    0.0000 O   0  0  0  0  0  0  0  0  0  0  0  0
    3.4701   -2.0260    0.0000 O   0  0  0  0  0  0  0  0  0  0  0  0
    1.1532   -2.0260    0.0000 C   0  0  0  0  0  0  0  0  0  0  0  0
    0.0000   -2.6805    0.0000 C   0  0  0  0  0  0  0  0  0  0  0  0
    4.6130   -2.6701    0.0000 C   0  0  0  0  0  0  0  0  0  0  0  0
    5.7766   -2.0052    0.0000 C   0  0  0  0  0  0  0  0  0  0  0  0
    6.9298   -2.6701    0.0000 C   0  0  0  0  0  0  0  0  0  0  0  0
    5.7766   -0.6857    0.0000 C   0  0  0  0  0  0  0  0  0  0  0  0
    8.0935   -2.0052    0.0000 C   0  0  0  0  0  0  0  0  0  0  0  0
    6.9298   -0.0104    0.0000 C   0  0  0  0  0  0  0  0  0  0  0  0
    8.0935   -0.6753    0.0000 C   0  0  0  0  0  0  0  0  0  0  0  0
    9.2363    0.0000    0.0000 O   0  0  0  0  0  0  0  0  0  0  0  0
   10.3895   -0.6753    0.0000 C   0  0  0  0  0  0  0  0  0  0  0  0
  1  2  2  0  0  0  0
  1  3  1  0  0  0  0
  1  4  1  0  0  0  0
  3  6  1  0  0  0  0
  4  5  1  0  0  0  0
  6  7  1  0  0  0  0
  7  8  2  0  0  0  0
  7  9  1  0  0  0  0
  8 10  1  0  0  0  0
  9 11  2  0  0  0  0
 10 12  2  0  0  0  0
 11 12  1  0  0  0  0
 12 13  1  0  0  0  0
 13 14  1  0  0  0  0
M  END
> <ID>
12827

> <Formula>
C11H14O3

> <FW>
194.2271

> <DSSTox_CID>
27706

> <DSSTox_RID>
82518

> <DSSTox_GSID>
47713

> <DSSTox_FileID_Sort>
7199

> <TS_ChemName>
Anisyl propionate

> <TS_ChemName_Synonyms>


> <TS_CASRN>
7549-33-9

> <CASRN_ChemName_Relationship>
primary

> <TS_Description>
single chemical compound

> <ChemNote>


> <STRUCTURE_Shown>
tested chemical

> <STRUCTURE_Formula>
C11H14O3

> <STRUCTURE_MW>
194.2271

> <STRUCTURE_ChemType>
defined organic

> <STRUCTURE_DefinedOrganicForm>
parent

> <STRUCTURE_IUPAC>
4-methoxybenzyl propanoate

> <STRUCTURE_SMILES>
COc1ccc(COC(=O)CC)cc1

> <STRUCTURE_SMILES_Desalt>
COc1ccc(COC(=O)CC)cc1

> <Substance_modify_yyyymmdd>
20101216

$$$$
