7549-37-3
ChemmineR-0915142007XD

 14 13  0  0  0  0  0  0  0  0  1 V2000
    2.3170   -1.9949    0.0000 C   0  0  0  0  0  0  0  0  0  0  0  0
    3.4704   -2.6495    0.0000 C   0  0  0  0  0  0  0  0  0  0  0  0
    4.6341   -1.9949    0.0000 C   0  0  0  0  0  0  0  0  0  0  0  0
    5.7874   -2.6495    0.0000 C   0  0  0  0  0  0  0  0  0  0  0  0
    6.9407   -1.9949    0.0000 C   0  0  0  0  0  0  0  0  0  0  0  0
    8.0733   -2.6495    0.0000 C   0  0  0  0  0  0  0  0  0  0  0  0
    9.2370   -1.9949    0.0000 C   0  0  0  0  0  0  0  0  0  0  0  0
   10.3903   -2.6495    0.0000 C   0  0  0  0  0  0  0  0  0  0  0  0
    2.3170   -0.6754    0.0000 O   0  0  0  0  0  0  0  0  0  0  0  0
    1.1533    0.0000    0.0000 C   0  0  0  0  0  0  0  0  0  0  0  0
    1.1533   -2.6703    0.0000 O   0  0  0  0  0  0  0  0  0  0  0  0
    0.0000   -1.9949    0.0000 C   0  0  0  0  0  0  0  0  0  0  0  0
    4.6341   -0.6754    0.0000 C   0  0  0  0  0  0  0  0  0  0  0  0
    9.2370   -0.6546    0.0000 C   0  0  0  0  0  0  0  0  0  0  0  0
  1  2  1  0  0  0  0
  1  9  1  0  0  0  0
  1 11  1  0  0  0  0
  2  3  2  3  0  0  0
  3  4  1  0  0  0  0
  3 13  1  0  0  0  0
  4  5  1  0  0  0  0
  5  6  1  0  0  0  0
  6  7  2  0  0  0  0
  7  8  1  0  0  0  0
  7 14  1  0  0  0  0
  9 10  1  0  0  0  0
 11 12  1  0  0  0  0
M  END
> <ID>
10480

> <Formula>
C12H22O2

> <FW>
198.3019

> <DSSTox_CID>
24832

> <DSSTox_RID>
80513

> <DSSTox_GSID>
44832

> <DSSTox_FileID_Sort>
5195

> <TS_ChemName>
1,1-Dimethoxy-3,7-dimethylocta-2,6-diene

> <TS_ChemName_Synonyms>
1,1-Dimethoxy-3,7-dimethylocta-2,6-diene (2,6-Octadiene, 1,1-dimethoxy-3,7-dimethyl-)

> <TS_CASRN>
7549-37-3

> <CASRN_ChemName_Relationship>
primary

> <TS_Description>
mixture of Z,E isomers

> <ChemNote>
mixture of Z,E isomers

> <STRUCTURE_Shown>
representative isomer in mixture

> <STRUCTURE_Formula>
C12H22O2

> <STRUCTURE_MW>
198.3019

> <STRUCTURE_ChemType>
defined organic

> <STRUCTURE_DefinedOrganicForm>
parent

> <STRUCTURE_IUPAC>
1,1-dimethoxy-3,7-dimethylocta-2,6-diene

> <STRUCTURE_SMILES>
COC(C=C(C)CC\C=C(/C)C)OC

> <STRUCTURE_SMILES_Desalt>
COC(C=C(C)CC\C=C(/C)C)OC

> <Substance_modify_yyyymmdd>
20110405

$$$$
