75498-96-3
ChemmineR-0915142007XD

 35 36  0  0  1  0  0  0  0  0  2 V2000
   10.7513   -2.0699    0.0000 C    0  0  0  0  0  0  0  0  0  0  0  0
   12.2384   -3.4967    0.0000 N    0  0  0  0  0  0  0  0  0  0  0  0
   10.7513   -3.4967    0.0000 C    0  0  0  0  0  0  0  0  0  0  0  0
   12.2384   -2.0699    0.0000 C    0  0  0  0  0  0  0  0  0  0  0  0
   18.0863   -4.1197    0.0000 C    0  0  0  0  0  0  0  0  0  0  0  0
   13.3839   -4.1599    0.0000 C    0  0  0  0  0  0  0  0  0  0  0  0
   19.2921   -3.6374    0.0000 N    0  0  0  0  0  0  0  0  0  0  0  0
   18.0863   -5.4058    0.0000 N    0  0  0  0  0  0  0  0  0  0  0  0
   19.3926   -5.7675    0.0000 N    0  0  0  0  0  0  0  0  0  0  0  0
   20.0959   -4.7225    0.0000 N    0  0  0  0  0  0  0  0  0  0  0  0
   13.3839   -1.3866    0.0000 S    0  0  0  0  0  0  0  0  0  0  0  0
   14.6097   -3.4766    0.0000 C    0  0  0  0  0  0  0  0  0  0  0  0
    8.9427   -2.0096    0.0000 N    0  0  0  0  0  0  0  0  0  0  0  0
   13.3839   -5.4862    0.0000 C    0  0  0  0  0  0  0  0  0  0  0  0
   16.9208   -3.4163    0.0000 S    0  0  0  0  0  0  0  0  0  0  0  0
    2.0900   -2.0096    0.0000 C    0  0  0  0  0  0  0  0  0  0  0  0
   14.6097   -2.0699    0.0000 C    0  0  0  0  0  0  0  0  0  0  0  0
    3.2555   -1.3464    0.0000 C    0  0  0  0  0  0  0  0  0  0  0  0
    7.8173   -1.3464    0.0000 C    0  0  0  0  0  0  0  0  0  0  0  0
    9.9475   -4.4412    0.0000 O    0  0  0  0  0  0  0  0  0  0  0  0
   15.7954   -4.0594    0.0000 C    0  0  0  0  0  0  0  0  0  0  0  0
   10.7513   -0.9646    0.0000 O    0  0  0  0  0  0  0  0  0  0  0  0
   14.5495   -6.1494    0.0000 O    0  0  0  0  0  0  0  0  0  0  0  0
    2.0900   -3.3359    0.0000 O    0  0  0  0  0  0  0  0  0  0  0  0
    7.8173   -0.0201    0.0000 O    0  0  0  0  0  0  0  0  0  0  0  0
    5.5264   -1.3464    0.0000 S    0  0  0  0  0  0  0  0  0  0  0  0
    3.2555   -0.0201    0.0000 N    0  0  0  0  0  0  0  0  0  0  0  0
   19.5132   -2.5120    0.0000 C    0  0  0  0  0  0  0  0  0  0  0  0
   12.3188   -6.1494    0.0000 O    0  0  0  0  0  0  0  0  0  0  0  0
    0.9646   -1.3464    0.0000 O    0  5  0  0  0  0  0  0  0  0  0  0
    4.3809   -2.0096    0.0000 C    0  0  0  0  0  0  0  0  0  0  0  0
    6.6518   -2.0096    0.0000 C    0  0  0  0  0  0  0  0  0  0  0  0
   10.0480    0.0000    0.0000 C    0  0  0  0  0  0  0  0  0  0  0  0
   12.2384   -1.0450    0.0000 H    0  0  0  0  0  0  0  0  0  0  0  0
    0.0000   -2.6728    0.0000 Na   0  3  0  0  0  0  0  0  0  0  0  0
  1  3  1  0  0  0  0
  1  4  1  0  0  0  0
  1 13  1  1  0  0  0
  1 22  1  6  0  0  0
  2  4  1  0  0  0  0
  2  6  1  0  0  0  0
  2  3  1  0  0  0  0
  3 20  2  0  0  0  0
  4 11  1  0  0  0  0
  4 34  1  6  0  0  0
  5 15  1  0  0  0  0
  5  7  1  0  0  0  0
  5  8  2  0  0  0  0
  6 14  1  0  0  0  0
  6 12  2  0  0  0  0
  7 10  1  0  0  0  0
  7 28  1  0  0  0  0
  8  9  1  0  0  0  0
  9 10  2  0  0  0  0
 11 17  1  0  0  0  0
 12 17  1  0  0  0  0
 12 21  1  0  0  0  0
 13 19  1  0  0  0  0
 14 23  2  0  0  0  0
 14 29  1  0  0  0  0
 15 21  1  0  0  0  0
 16 18  1  0  0  0  0
 16 24  2  0  0  0  0
 16 30  1  0  0  0  0
 18 31  1  0  0  0  0
 18 27  1  6  0  0  0
 19 25  2  0  0  0  0
 19 32  1  0  0  0  0
 22 33  1  0  0  0  0
 26 32  1  0  0  0  0
 26 31  1  0  0  0  0
M  END
> <ID>
13589

> <Formula>
C16H20N7NaO7S3

> <FW>
541.5575 (518.5682+22.9892)

> <DSSTox_CID>
28517

> <DSSTox_RID>
82789

> <DSSTox_GSID>
48591

> <DSSTox_FileID_Sort>
7466

> <TS_ChemName>
Cefminox sodium

> <TS_ChemName_Synonyms>


> <TS_CASRN>
75498-96-3

> <CASRN_ChemName_Relationship>
primary

> <TS_Description>
single chemical compound

> <ChemNote>
stereochem; parent [75481-73-1]

> <STRUCTURE_Shown>
tested chemical

> <STRUCTURE_Formula>
C16H20N7NaO7S3

> <STRUCTURE_MW>
541.5575

> <STRUCTURE_ChemType>
defined organic

> <STRUCTURE_DefinedOrganicForm>
salt

> <STRUCTURE_IUPAC>
sodium (2S)-2-amino-3-[(2-{[(6R,7S)-2-carboxy-7-methoxy-3-{[(1-methyl-1H-tetrazol-5-yl)sulfanyl]methyl}-8-oxo-5-thia-1-azabicyclo[4.2.0]oct-2-en-7-yl]amino}-2-oxoethyl)sulfanyl]propanoate

> <STRUCTURE_SMILES>
[Na+].[O-]C(=O)[C@H](N)CSCC(=O)N[C@]3(OC)C(=O)N2C(=C(CSc1nnnn1C)CS[C@@H]23)C(=O)O

> <STRUCTURE_SMILES_Desalt>
O=C(O)[C@H](N)CSCC(=O)N[C@]3(OC)C(=O)N2C(=C(CSc1nnnn1C)CS[C@@H]23)C(=O)O

> <Substance_modify_yyyymmdd>
20111014

$$$$
