75507-68-5
ChemmineR-0915142007XD

 30 30  0  0  0  0  0  0  0  0  1 V2000
    6.9331   -2.6505    0.0000 N   0  0  0  0  0  0  0  0  0  0  0  0
    5.7651   -1.9766    0.0000 C   0  0  0  0  0  0  0  0  0  0  0  0
    3.4441   -0.6738    0.0000 C   0  0  0  0  0  0  0  0  0  0  0  0
    4.5971    0.0000    0.0000 N   0  0  0  0  0  0  0  0  0  0  0  0
    5.7651   -0.6738    0.0000 C   0  0  0  0  0  0  0  0  0  0  0  0
    8.0412   -1.9766    0.0000 C   0  0  0  0  0  0  0  0  0  0  0  0
    9.1943   -2.6505    0.0000 N   0  0  0  0  0  0  0  0  0  0  0  0
    3.4441   -1.9766    0.0000 O   0  0  0  0  0  0  0  0  0  0  0  0
    6.9331    0.0000    0.0000 C   0  0  0  0  0  0  0  0  0  0  0  0
    4.5971   -2.6505    0.0000 N   0  0  0  0  0  0  0  0  0  0  0  0
    8.0412   -0.6738    0.0000 C   0  0  0  0  0  0  0  0  0  0  0  0
    2.2911    0.0000    0.0000 O   0  0  0  0  0  0  0  0  0  0  0  0
   10.3623   -1.9766    0.0000 C   0  0  0  0  0  0  0  0  0  0  0  0
   13.8213   -4.0131    0.0000 C   0  0  0  0  0  0  0  0  0  0  0  0
   11.5003   -2.6505    0.0000 C   0  0  0  0  0  0  0  0  0  0  0  0
   14.9744   -4.6570    0.0000 F   0  0  0  0  0  0  0  0  0  0  0  0
   12.6533   -4.6570    0.0000 C   0  0  0  0  0  0  0  0  0  0  0  0
   13.8213   -2.6505    0.0000 C   0  0  0  0  0  0  0  0  0  0  0  0
   11.5003   -4.0131    0.0000 C   0  0  0  0  0  0  0  0  0  0  0  0
   12.6533   -1.9766    0.0000 C   0  0  0  0  0  0  0  0  0  0  0  0
    1.1381   -0.6738    0.0000 C   0  0  0  0  0  0  0  0  0  0  0  0
    0.0000    0.0000    0.0000 C   0  0  0  0  0  0  0  0  0  0  0  0
    7.0230   -4.2827    0.0000 O   0  0  0  0  0  0  0  0  0  0  0  0
    7.6818   -5.4357    0.0000 C   0  0  0  0  0  0  0  0  0  0  0  0
    9.0146   -5.4357    0.0000 O   0  0  0  0  0  0  0  0  0  0  0  0
    7.0230   -6.5737    0.0000 C   0  0  0  0  0  0  0  0  0  0  0  0
    5.6903   -6.5737    0.0000 C   0  0  0  0  0  0  0  0  0  0  0  0
    5.0164   -5.4357    0.0000 C   0  0  0  0  0  0  0  0  0  0  0  0
    3.6987   -5.4357    0.0000 O   0  0  0  0  0  0  0  0  0  0  0  0
    5.6903   -4.2827    0.0000 O   0  0  0  0  0  0  0  0  0  0  0  0
  1  2  1  0  0  0  0
  1  6  2  0  0  0  0
  2  5  2  0  0  0  0
  2 10  1  0  0  0  0
  3  4  1  0  0  0  0
  3  8  2  0  0  0  0
  3 12  1  0  0  0  0
  4  5  1  0  0  0  0
  5  9  1  0  0  0  0
  6  7  1  0  0  0  0
  6 11  1  0  0  0  0
  7 13  1  0  0  0  0
  9 11  2  0  0  0  0
 12 21  1  0  0  0  0
 13 15  1  0  0  0  0
 14 18  2  0  0  0  0
 14 16  1  0  0  0  0
 14 17  1  0  0  0  0
 15 19  1  0  0  0  0
 15 20  2  0  0  0  0
 17 19  2  0  0  0  0
 18 20  1  0  0  0  0
 21 22  1  0  0  0  0
 23 24  1  0  0  0  0
 24 25  2  0  0  0  0
 24 26  1  0  0  0  0
 26 27  2  0  0  0  0
 27 28  1  0  0  0  0
 28 29  1  0  0  0  0
 28 30  2  0  0  0  0
M  END
> <ID>
11181

> <Formula>
C19H21FN4O6

> <FW>
420.3916 (304.3195+116.0722)

> <DSSTox_CID>
25771

> <DSSTox_RID>
81113

> <DSSTox_GSID>
45771

> <DSSTox_FileID_Sort>
5794

> <TS_ChemName>
Flupirtine maleate

> <TS_ChemName_Synonyms>


> <TS_CASRN>
75507-68-5

> <CASRN_ChemName_Relationship>
primary

> <TS_Description>
single chemical compound

> <ChemNote>
stereochem; parent [56995-20-1]

> <STRUCTURE_Shown>
tested chemical

> <STRUCTURE_Formula>
C19H21FN4O6

> <STRUCTURE_MW>
420.3916

> <STRUCTURE_ChemType>
defined organic

> <STRUCTURE_DefinedOrganicForm>
complex

> <STRUCTURE_IUPAC>
ethyl {2-amino-6-[(4-fluorobenzyl)amino]pyridin-3-yl}carbamate (2Z)-but-2-enedioate (1:1)

> <STRUCTURE_SMILES>
Nc1nc(ccc1NC(=O)OCC)NCc2ccc(F)cc2.O=C(O)/C=C\C(=O)O

> <STRUCTURE_SMILES_Desalt>
Nc1nc(ccc1NC(=O)OCC)NCc2ccc(F)cc2

> <Substance_modify_yyyymmdd>
20110902

$$$$
