75529-73-6
ChemmineR-0915142007XD

 30 31  0  0  0  0  0  0  0  0  1 V2000
    0.0000   -5.8951    0.0000 C    0  0  0  0  0  0  0  0  0  0  0  0
    2.1883   -3.3495    0.0000 C    0  0  0  0  0  0  0  0  0  0  0  0
    3.3495   -4.0045    0.0000 N    0  0  0  0  0  0  0  0  0  0  0  0
    5.6718   -5.3294    0.0000 N    0  0  0  0  0  0  0  0  0  0  0  0
    2.1883   -2.0246    0.0000 O    0  0  0  0  0  0  0  0  0  0  0  0
   10.2718   -5.3294    0.0000 C    0  0  0  0  0  0  0  0  0  0  0  0
   10.2718   -4.0045    0.0000 C    0  0  0  0  0  0  0  0  0  0  0  0
   11.4330   -6.0291    0.0000 C    0  0  0  0  0  0  0  0  0  0  0  0
    4.5107   -3.3495    0.0000 C    0  0  0  0  0  0  0  0  0  0  0  0
    3.3495   -5.3294    0.0000 C    0  0  0  0  0  0  0  0  0  0  0  0
    1.0570   -4.0045    0.0000 N    0  0  0  0  0  0  0  0  0  0  0  0
   12.5941   -5.3294    0.0000 C    0  0  0  0  0  0  0  0  0  0  0  0
    9.1255   -3.3495    0.0000 C    0  0  0  0  0  0  0  0  0  0  0  0
   11.4330   -7.3540    0.0000 C    0  0  0  0  0  0  0  0  0  0  0  0
   11.4330   -3.3495    0.0000 C    0  0  0  0  0  0  0  0  0  0  0  0
    5.6718   -4.0045    0.0000 C    0  0  0  0  0  0  0  0  0  0  0  0
    4.5107   -6.0291    0.0000 C    0  0  0  0  0  0  0  0  0  0  0  0
   13.7404   -7.3540    0.0000 C    0  0  0  0  0  0  0  0  0  0  0  0
   10.2718   -1.3547    0.0000 C    0  0  0  0  0  0  0  0  0  0  0  0
   12.5941   -8.0090    0.0000 C    0  0  0  0  0  0  0  0  0  0  0  0
    9.1255   -2.0246    0.0000 C    0  0  0  0  0  0  0  0  0  0  0  0
   13.7404   -6.0291    0.0000 C    0  0  0  0  0  0  0  0  0  0  0  0
   11.4330   -2.0246    0.0000 C    0  0  0  0  0  0  0  0  0  0  0  0
   10.2718    0.0000    0.0000 F    0  0  0  0  0  0  0  0  0  0  0  0
   14.8867   -8.0090    0.0000 F    0  0  0  0  0  0  0  0  0  0  0  0
    6.8181   -6.0291    0.0000 C    0  0  0  0  0  0  0  0  0  0  0  0
    7.9495   -5.3294    0.0000 C    0  0  0  0  0  0  0  0  0  0  0  0
    9.1255   -6.0291    0.0000 C    0  0  0  0  0  0  0  0  0  0  0  0
    1.0570   -5.3294    0.0000 C    0  0  0  0  0  0  0  0  0  0  0  0
    4.7489   -7.4433    0.0000 Cl   0  0  0  0  0  0  0  0  0  0  0  0
  1 29  1  0  0  0  0
  2  3  1  0  0  0  0
  2  5  2  0  0  0  0
  2 11  1  0  0  0  0
  3  9  1  0  0  0  0
  3 10  1  0  0  0  0
  4 17  1  0  0  0  0
  4 26  1  0  0  0  0
  4 16  1  0  0  0  0
  6 28  1  0  0  0  0
  6  7  1  0  0  0  0
  6  8  1  0  0  0  0
  7 13  1  0  0  0  0
  7 15  2  0  0  0  0
  8 12  1  0  0  0  0
  8 14  2  0  0  0  0
  9 16  1  0  0  0  0
 10 17  1  0  0  0  0
 11 29  1  0  0  0  0
 12 22  2  0  0  0  0
 13 21  2  0  0  0  0
 14 20  1  0  0  0  0
 15 23  1  0  0  0  0
 18 20  2  0  0  0  0
 18 25  1  0  0  0  0
 18 22  1  0  0  0  0
 19 23  2  0  0  0  0
 19 24  1  0  0  0  0
 19 21  1  0  0  0  0
 26 27  1  0  0  0  0
 27 28  1  0  0  0  0
M  END
> <ID>
11162

> <Formula>
C23H30ClF2N3O

> <FW>
437.9536 (401.4927+36.4609)

> <DSSTox_CID>
25750

> <DSSTox_RID>
81094

> <DSSTox_GSID>
45750

> <DSSTox_FileID_Sort>
5775

> <TS_ChemName>
Amperozide hydrochloride

> <TS_ChemName_Synonyms>


> <TS_CASRN>
75529-73-6

> <CASRN_ChemName_Relationship>
primary

> <TS_Description>
single chemical compound

> <ChemNote>
parent [75558-90-6]

> <STRUCTURE_Shown>
tested chemical

> <STRUCTURE_Formula>
C23H30ClF2N3O

> <STRUCTURE_MW>
437.9536

> <STRUCTURE_ChemType>
defined organic

> <STRUCTURE_DefinedOrganicForm>
complex

> <STRUCTURE_IUPAC>
4-[4,4-bis(4-fluorophenyl)butyl]-N-ethylpiperazine-1-carboxamide hydrochloride (1:1)

> <STRUCTURE_SMILES>
Cl.Fc1ccc(cc1)C(CCCN2CCN(CC2)C(=O)NCC)c3ccc(F)cc3

> <STRUCTURE_SMILES_Desalt>
Fc1ccc(cc1)C(CCCN2CCN(CC2)C(=O)NCC)c3ccc(F)cc3

> <Substance_modify_yyyymmdd>
20110826

$$$$
