75530-68-6
ChemmineR-0915142007XD

 28 29  0  0  0  0  0  0  0  0  2 V2000
    4.5565   -2.6331    0.0000 C   0  0  0  0  0  0  0  0  0  0  0  0
    6.8399   -2.6331    0.0000 C   0  0  0  0  0  0  0  0  0  0  0  0
    5.7187   -3.3222    0.0000 C   0  0  0  0  0  0  0  0  0  0  0  0
    6.8399   -1.3165    0.0000 C   0  0  0  0  0  0  0  0  0  0  0  0
    4.5565   -1.3165    0.0000 C   0  0  0  0  0  0  0  0  0  0  0  0
    3.4251   -3.3222    0.0000 C   0  0  0  0  0  0  0  0  0  0  0  0
    5.7187   -0.6891    0.0000 N   0  0  0  0  0  0  0  0  0  0  0  0
    8.0021   -7.2924    0.0000 N   0  3  0  0  0  0  0  0  0  0  0  0
    5.7187   -4.6388    0.0000 C   0  0  0  0  0  0  0  0  0  0  0  0
    8.0021   -3.3222    0.0000 C   0  0  0  0  0  0  0  0  0  0  0  0
    8.0021   -0.6891    0.0000 C   0  0  0  0  0  0  0  0  0  0  0  0
    6.8399   -6.6033    0.0000 C   0  0  0  0  0  0  0  0  0  0  0  0
    9.1438    0.0000    0.0000 N   0  0  0  0  0  0  0  0  0  0  0  0
    6.8399   -5.2867    0.0000 C   0  0  0  0  0  0  0  0  0  0  0  0
    2.2731   -2.6331    0.0000 O   0  0  0  0  0  0  0  0  0  0  0  0
    9.2261   -6.5724    0.0000 O   0  5  0  0  0  0  0  0  0  0  0  0
    8.0021   -8.7015    0.0000 O   0  0  0  0  0  0  0  0  0  0  0  0
    3.4251   -4.6388    0.0000 O   0  0  0  0  0  0  0  0  0  0  0  0
    8.0021   -4.6388    0.0000 O   0  0  0  0  0  0  0  0  0  0  0  0
    9.1438   -2.6331    0.0000 O   0  0  0  0  0  0  0  0  0  0  0  0
    3.4251   -0.6891    0.0000 C   0  0  0  0  0  0  0  0  0  0  0  0
    4.5565   -5.2867    0.0000 C   0  0  0  0  0  0  0  0  0  0  0  0
    1.1314   -3.3222    0.0000 C   0  0  0  0  0  0  0  0  0  0  0  0
    5.7187   -7.2924    0.0000 C   0  0  0  0  0  0  0  0  0  0  0  0
    4.5565   -6.6033    0.0000 C   0  0  0  0  0  0  0  0  0  0  0  0
   10.2855   -3.3222    0.0000 C   0  0  0  0  0  0  0  0  0  0  0  0
    1.1314   -4.6388    0.0000 C   0  0  0  0  0  0  0  0  0  0  0  0
    0.0000   -2.6331    0.0000 C   0  0  0  0  0  0  0  0  0  0  0  0
  1  3  1  0  0  0  0
  1  5  2  0  0  0  0
  1  6  1  0  0  0  0
  2  3  1  0  0  0  0
  2 10  1  0  0  0  0
  2  4  2  0  0  0  0
  3  9  1  0  0  0  0
  4  7  1  0  0  0  0
  4 11  1  0  0  0  0
  5  7  1  0  0  0  0
  5 21  1  0  0  0  0
  6 15  1  0  0  0  0
  6 18  2  0  0  0  0
  8 12  1  0  0  0  0
  8 16  1  0  0  0  0
  8 17  2  0  0  0  0
  9 14  1  0  0  0  0
  9 22  2  0  0  0  0
 10 19  2  0  0  0  0
 10 20  1  0  0  0  0
 11 13  3  0  0  0  0
 12 14  2  0  0  0  0
 12 24  1  0  0  0  0
 15 23  1  0  0  0  0
 20 26  1  0  0  0  0
 22 25  1  0  0  0  0
 23 27  1  0  0  0  0
 23 28  1  0  0  0  0
 24 25  2  0  0  0  0
M  END
> <ID>
11839

> <Formula>
C19H19N3O6

> <FW>
385.3707

> <DSSTox_CID>
26624

> <DSSTox_RID>
81774

> <DSSTox_GSID>
46624

> <DSSTox_FileID_Sort>
6455

> <TS_ChemName>
Nilvadipine

> <TS_ChemName_Synonyms>


> <TS_CASRN>
75530-68-6

> <CASRN_ChemName_Relationship>
primary

> <TS_Description>
single chemical compound

> <ChemNote>


> <STRUCTURE_Shown>
tested chemical

> <STRUCTURE_Formula>
C19H19N3O6

> <STRUCTURE_MW>
385.3707

> <STRUCTURE_ChemType>
defined organic

> <STRUCTURE_DefinedOrganicForm>
parent

> <STRUCTURE_IUPAC>
3-methyl 5-propan-2-yl 2-cyano-6-methyl-4-(3-nitrophenyl)-1,4-dihydropyridine-3,5-dicarboxylate

> <STRUCTURE_SMILES>
CC=1NC(C#N)=C(C(C=1C(=O)OC(C)C)c2cccc(c2)[N+]([O-])=O)C(=O)OC

> <STRUCTURE_SMILES_Desalt>
CC=1NC(C#N)=C(C(C=1C(=O)OC(C)C)c2cccc(c2)[N+]([O-])=O)C(=O)OC

> <Substance_modify_yyyymmdd>
20110809

$$$$
