75695-93-1
ChemmineR-0915142007XD

 27 29  0  0  0  0  0  0  0  0  1 V2000
    4.4414   -5.4854    0.0000 C   0  0  0  0  0  0  0  0  0  0  0  0
    5.5739   -4.8307    0.0000 C   0  0  0  0  0  0  0  0  0  0  0  0
    6.6975   -5.4854    0.0000 C   0  0  0  0  0  0  0  0  0  0  0  0
    7.9273   -5.0430    0.0000 C   0  0  0  0  0  0  0  0  0  0  0  0
    8.8474   -5.9632    0.0000 O   0  0  0  0  0  0  0  0  0  0  0  0
    8.3697   -3.8132    0.0000 O   0  0  0  0  0  0  0  0  0  0  0  0
    7.5380   -2.8135    0.0000 C   0  0  0  0  0  0  0  0  0  0  0  0
    6.6975   -6.7860    0.0000 C   0  0  0  0  0  0  0  0  0  0  0  0
    5.5739   -7.4407    0.0000 N   0  0  0  0  0  0  0  0  0  0  0  0
    4.4414   -6.7860    0.0000 C   0  0  0  0  0  0  0  0  0  0  0  0
    3.3178   -7.4407    0.0000 C   0  0  0  0  0  0  0  0  0  0  0  0
    7.8300   -7.4407    0.0000 C   0  0  0  0  0  0  0  0  0  0  0  0
    5.5739   -2.7516    0.0000 C   0  0  0  0  0  0  0  0  0  0  0  0
    4.5741   -1.9110    0.0000 C   0  0  0  0  0  0  0  0  0  0  0  0
    4.7865   -0.6459    0.0000 C   0  0  0  0  0  0  0  0  0  0  0  0
    3.6628    0.0000    0.0000 N   0  0  0  0  0  0  0  0  0  0  0  0
    2.7250   -0.9378    0.0000 O   0  0  0  0  0  0  0  0  0  0  0  0
    3.2824   -2.0968    0.0000 N   0  0  0  0  0  0  0  0  0  0  0  0
    6.0251   -0.1858    0.0000 C   0  0  0  0  0  0  0  0  0  0  0  0
    7.0249   -1.0175    0.0000 C   0  0  0  0  0  0  0  0  0  0  0  0
    6.7948   -2.3003    0.0000 C   0  0  0  0  0  0  0  0  0  0  0  0
    3.3178   -4.8307    0.0000 C   0  0  0  0  0  0  0  0  0  0  0  0
    2.2473   -5.5827    0.0000 O   0  0  0  0  0  0  0  0  0  0  0  0
    1.0705   -5.0342    0.0000 C   0  0  0  0  0  0  0  0  0  0  0  0
    0.0000   -5.7774    0.0000 C   0  0  0  0  0  0  0  0  0  0  0  0
    0.9555   -3.7336    0.0000 C   0  0  0  0  0  0  0  0  0  0  0  0
    3.0878   -3.5478    0.0000 O   0  0  0  0  0  0  0  0  0  0  0  0
  1  2  1  0  0  0  0
  1 10  2  0  0  0  0
  1 22  1  0  0  0  0
  2  3  1  0  0  0  0
  2 13  1  0  0  0  0
  3  4  1  0  0  0  0
  3  8  2  0  0  0  0
  4  5  2  0  0  0  0
  4  6  1  0  0  0  0
  6  7  1  0  0  0  0
  8  9  1  0  0  0  0
  8 12  1  0  0  0  0
  9 10  1  0  0  0  0
 10 11  1  0  0  0  0
 13 14  1  0  0  0  0
 13 21  2  0  0  0  0
 14 15  1  0  0  0  0
 14 18  2  0  0  0  0
 15 16  2  0  0  0  0
 15 19  1  0  0  0  0
 16 17  1  0  0  0  0
 17 18  1  0  0  0  0
 19 20  2  0  0  0  0
 20 21  1  0  0  0  0
 22 23  1  0  0  0  0
 22 27  2  0  0  0  0
 23 24  1  0  0  0  0
 24 25  1  0  0  0  0
 24 26  1  0  0  0  0
M  END
> <ID>
2855

> <Formula>
C19H21N3O5

> <FW>
371.3871

> <DSSTox_CID>
3179

> <DSSTox_RID>
76907

> <DSSTox_GSID>
23179

> <DSSTox_FileID_Sort>
1591

> <TS_ChemName>
Isradipine

> <TS_ChemName_Synonyms>


> <TS_CASRN>
75695-93-1

> <CASRN_ChemName_Relationship>
primary

> <TS_Description>
single chemical compound

> <ChemNote>


> <STRUCTURE_Shown>
tested chemical

> <STRUCTURE_Formula>
C19H21N3O5

> <STRUCTURE_MW>
371.3871

> <STRUCTURE_ChemType>
defined organic

> <STRUCTURE_DefinedOrganicForm>
parent

> <STRUCTURE_IUPAC>
methyl propan-2-yl 4-(2,1,3-benzoxadiazol-4-yl)-2,6-dimethyl-1,4-dihydropyridine-3,5-dicarboxylate

> <STRUCTURE_SMILES>
O=C(OC)C3=C(C)NC(C)=C(C(=O)OC(C)C)C3c1cccc2nonc12

> <STRUCTURE_SMILES_Desalt>
O=C(OC)C3=C(C)NC(C)=C(C(=O)OC(C)C)C3c1cccc2nonc12

> <Substance_modify_yyyymmdd>
20080429

$$$$
