75738-58-8
ChemmineR-0915142007XD

 71 76  0  0  1  0  0  0  0  0  1 V2000
    6.1903  -15.1599    0.0000 N    0  0  0  0  0  0  0  0  0  0  0  0
    4.6743  -15.1599    0.0000 C    0  0  0  0  0  0  0  0  0  0  0  0
    4.6743  -13.6981    0.0000 C    0  0  0  0  0  0  0  0  0  0  0  0
    6.1903  -13.6981    0.0000 C    0  0  0  0  0  0  0  0  0  0  0  0
   10.9188  -13.7522    0.0000 C    0  0  0  0  0  0  0  0  0  0  0  0
    7.3454  -15.8277    0.0000 C    0  0  0  0  0  0  0  0  0  0  0  0
    1.3536  -14.9073    0.0000 C    0  0  0  0  0  0  0  0  0  0  0  0
   11.9836  -13.0484    0.0000 N    0  0  0  0  0  0  0  0  0  0  0  0
    9.8540  -13.0303    0.0000 N    0  0  0  0  0  0  0  0  0  0  0  0
   10.2871  -11.7129    0.0000 N    0  0  0  0  0  0  0  0  0  0  0  0
    1.3716  -13.5718    0.0000 C    0  0  0  0  0  0  0  0  0  0  0  0
    0.2166  -15.5750    0.0000 N    0  0  0  0  0  0  0  0  0  0  0  0
   11.5865  -11.7309    0.0000 N    0  0  0  0  0  0  0  0  0  0  0  0
    3.5373  -13.6981    0.0000 N    0  0  0  0  0  0  0  0  0  0  0  0
    2.4364  -12.9221    0.0000 C    0  0  0  0  0  0  0  0  0  0  0  0
    7.3454  -13.0484    0.0000 S    0  0  0  0  0  0  0  0  0  0  0  0
    8.5726  -15.1239    0.0000 C    0  0  0  0  0  0  0  0  0  0  0  0
    0.6497  -16.9827    0.0000 C    0  0  0  0  0  0  0  0  0  0  0  0
    2.4364  -15.5570    0.0000 C    0  0  0  0  0  0  0  0  0  0  0  0
    2.0033  -16.9647    0.0000 S    0  0  0  0  0  0  0  0  0  0  0  0
    7.3454  -17.1452    0.0000 C    0  0  0  0  0  0  0  0  0  0  0  0
   10.9188  -15.0878    0.0000 S    0  0  0  0  0  0  0  0  0  0  0  0
    8.5726  -13.6981    0.0000 C    0  0  0  0  0  0  0  0  0  0  0  0
    0.2527  -12.9040    0.0000 N    0  0  0  0  0  0  0  0  0  0  0  0
    3.8622  -16.0984    0.0000 O    0  0  0  0  0  0  0  0  0  0  0  0
    9.7457  -15.7375    0.0000 C    0  0  0  0  0  0  0  0  0  0  0  0
    2.4364  -11.5865    0.0000 O    0  0  0  0  0  0  0  0  0  0  0  0
    8.5004  -17.8310    0.0000 O    0  0  0  0  0  0  0  0  0  0  0  0
    0.0000  -18.0476    0.0000 N    0  0  0  0  0  0  0  0  0  0  0  0
   13.0845  -13.4815    0.0000 C    0  0  0  0  0  0  0  0  0  0  0  0
    6.2625  -17.8310    0.0000 O    0  0  0  0  0  0  0  0  0  0  0  0
    0.2527  -11.3880    0.0000 O    0  0  0  0  0  0  0  0  0  0  0  0
    1.3175  -10.7202    0.0000 C    0  0  0  0  0  0  0  0  0  0  0  0
    4.6743  -12.6152    0.0000 H    0  0  0  0  0  0  0  0  0  0  0  0
    6.1903  -12.6874    0.0000 H    0  0  0  0  0  0  0  0  0  0  0  0
    7.2551   -4.4397    0.0000 N    0  0  0  0  0  0  0  0  0  0  0  0
    5.7391   -4.4397    0.0000 C    0  0  0  0  0  0  0  0  0  0  0  0
    5.7391   -2.9959    0.0000 C    0  0  0  0  0  0  0  0  0  0  0  0
    7.2551   -2.9959    0.0000 C    0  0  0  0  0  0  0  0  0  0  0  0
   11.9836   -3.0320    0.0000 C    0  0  0  0  0  0  0  0  0  0  0  0
    8.4102   -5.1075    0.0000 C    0  0  0  0  0  0  0  0  0  0  0  0
    2.4184   -4.2051    0.0000 C    0  0  0  0  0  0  0  0  0  0  0  0
   13.0484   -2.3281    0.0000 N    0  0  0  0  0  0  0  0  0  0  0  0
   10.9188   -2.3101    0.0000 N    0  0  0  0  0  0  0  0  0  0  0  0
   11.3519   -0.9926    0.0000 N    0  0  0  0  0  0  0  0  0  0  0  0
    2.4364   -2.8696    0.0000 C    0  0  0  0  0  0  0  0  0  0  0  0
    1.2814   -4.8548    0.0000 N    0  0  0  0  0  0  0  0  0  0  0  0
   12.6513   -1.0107    0.0000 N    0  0  0  0  0  0  0  0  0  0  0  0
    4.6021   -2.9959    0.0000 N    0  0  0  0  0  0  0  0  0  0  0  0
    3.4832   -2.2018    0.0000 C    0  0  0  0  0  0  0  0  0  0  0  0
    8.4102   -2.3281    0.0000 S    0  0  0  0  0  0  0  0  0  0  0  0
    9.6374   -4.4036    0.0000 C    0  0  0  0  0  0  0  0  0  0  0  0
    1.6965   -6.2805    0.0000 C    0  0  0  0  0  0  0  0  0  0  0  0
    3.4832   -4.8367    0.0000 C    0  0  0  0  0  0  0  0  0  0  0  0
    3.0681   -6.2625    0.0000 S    0  0  0  0  0  0  0  0  0  0  0  0
    8.4102   -6.4430    0.0000 C    0  0  0  0  0  0  0  0  0  0  0  0
   11.9836   -4.3675    0.0000 S    0  0  0  0  0  0  0  0  0  0  0  0
    9.6374   -2.9959    0.0000 C    0  0  0  0  0  0  0  0  0  0  0  0
    1.3175   -2.1838    0.0000 N    0  0  0  0  0  0  0  0  0  0  0  0
    4.9270   -5.3962    0.0000 O    0  0  0  0  0  0  0  0  0  0  0  0
   10.8105   -5.0172    0.0000 C    0  0  0  0  0  0  0  0  0  0  0  0
    3.4832   -0.8663    0.0000 O    0  0  0  0  0  0  0  0  0  0  0  0
    9.5652   -7.1107    0.0000 O    0  0  0  0  0  0  0  0  0  0  0  0
    1.0648   -7.3273    0.0000 N    0  0  0  0  0  0  0  0  0  0  0  0
   14.1493   -2.7613    0.0000 C    0  0  0  0  0  0  0  0  0  0  0  0
    7.3273   -7.1107    0.0000 O    0  0  0  0  0  0  0  0  0  0  0  0
    1.3175   -0.6678    0.0000 O    0  0  0  0  0  0  0  0  0  0  0  0
    2.3823    0.0000    0.0000 C    0  0  0  0  0  0  0  0  0  0  0  0
    5.7391   -1.8950    0.0000 H    0  0  0  0  0  0  0  0  0  0  0  0
    7.2551   -1.9852    0.0000 H    0  0  0  0  0  0  0  0  0  0  0  0
    5.7391   -9.5291    0.0000 Cl   0  0  0  0  0  0  0  0  0  0  0  0
  1  2  1  0  0  0  0
  1  4  1  0  0  0  0
  1  6  1  0  0  0  0
  2 25  2  0  0  0  0
  2  3  1  0  0  0  0
  3  4  1  0  0  0  0
  3 14  1  1  0  0  0
  3 34  1  6  0  0  0
  4 16  1  0  0  0  0
  4 35  1  6  0  0  0
  5 22  1  0  0  0  0
  5  8  1  0  0  0  0
  5  9  2  0  0  0  0
  6 17  2  0  0  0  0
  6 21  1  0  0  0  0
  7 11  1  0  0  0  0
  7 12  1  0  0  0  0
  7 19  2  0  0  0  0
  8 13  1  0  0  0  0
  8 30  1  0  0  0  0
  9 10  1  0  0  0  0
 10 13  2  0  0  0  0
 11 15  1  0  0  0  0
 11 24  2  0  0  0  0
 12 18  2  0  0  0  0
 14 15  1  0  0  0  0
 15 27  2  0  0  0  0
 16 23  1  0  0  0  0
 17 23  1  0  0  0  0
 17 26  1  0  0  0  0
 18 29  1  0  0  0  0
 18 20  1  0  0  0  0
 19 20  1  0  0  0  0
 21 28  2  0  0  0  0
 21 31  1  0  0  0  0
 22 26  1  0  0  0  0
 24 32  1  0  0  0  0
 32 33  1  0  0  0  0
 36 37  1  0  0  0  0
 36 39  1  0  0  0  0
 36 41  1  0  0  0  0
 37 60  2  0  0  0  0
 37 38  1  0  0  0  0
 38 39  1  0  0  0  0
 38 49  1  1  0  0  0
 38 69  1  6  0  0  0
 39 51  1  0  0  0  0
 39 70  1  6  0  0  0
 40 57  1  0  0  0  0
 40 43  1  0  0  0  0
 40 44  2  0  0  0  0
 41 52  2  0  0  0  0
 41 56  1  0  0  0  0
 42 46  1  0  0  0  0
 42 47  1  0  0  0  0
 42 54  2  0  0  0  0
 43 48  1  0  0  0  0
 43 65  1  0  0  0  0
 44 45  1  0  0  0  0
 45 48  2  0  0  0  0
 46 50  1  0  0  0  0
 46 59  2  0  0  0  0
 47 53  2  0  0  0  0
 49 50  1  0  0  0  0
 50 62  2  0  0  0  0
 51 58  1  0  0  0  0
 52 58  1  0  0  0  0
 52 61  1  0  0  0  0
 53 64  1  0  0  0  0
 53 55  1  0  0  0  0
 54 55  1  0  0  0  0
 56 63  2  0  0  0  0
 56 66  1  0  0  0  0
 57 61  1  0  0  0  0
 59 67  1  0  0  0  0
 67 68  1  0  0  0  0
M  END
> <ID>
11856

> <Formula>
C32H35ClN18O10S6

> <FW>
1059.5779 (511.5585+511.5585+36.4609)

> <DSSTox_CID>
26646

> <DSSTox_RID>
81791

> <DSSTox_GSID>
46646

> <DSSTox_FileID_Sort>
6472

> <TS_ChemName>
Cefmenoxime hydrochloride

> <TS_ChemName_Synonyms>


> <TS_CASRN>
75738-58-8

> <CASRN_ChemName_Relationship>
primary

> <TS_Description>
single chemical compound

> <ChemNote>
stereochem

> <STRUCTURE_Shown>
tested chemical

> <STRUCTURE_Formula>
C32H35ClN18O10S6

> <STRUCTURE_MW>
1059.5779

> <STRUCTURE_ChemType>
defined organic

> <STRUCTURE_DefinedOrganicForm>
complex

> <STRUCTURE_IUPAC>
(6R,7R)-7-{[(2Z)-2-(2-amino-1,3-thiazol-4-yl)-2-(methoxyimino)acetyl]amino}-3-{[(1-methyl-1H-tetrazol-5-yl)sulfanyl]methyl}-8-oxo-5-thia-1-azabicyclo[4.2.0]oct-2-ene-2-carboxylic acid hydrochloride (2:1)

> <STRUCTURE_SMILES>
Cl.Nc1scc(n1)\C(=N\OC)C(=O)N[C@@H]4C(=O)N3C(C(=O)O)=C(CSc2nnnn2C)CS[C@@H]34.Nc1scc(n1)\C(=N\OC)C(=O)N[C@@H]4C(=O)N3C(=C(CSc2nnnn2C)CS[C@@H]34)C(=O)O

> <STRUCTURE_SMILES_Desalt>
Nc1scc(n1)\C(=N\OC)C(=O)N[C@@H]4C(=O)N3C(=C(CSc2nnnn2C)CS[C@@H]34)C(=O)O

> <Substance_modify_yyyymmdd>
20110808

$$$$
