75747-14-7
ChemmineR-0915142007XD

 42 43  0  0  1  0  0  0  0  0  1 V2000
    5.6632   -6.2466    0.0000 N   0  0  0  0  0  0  0  0  0  0  0  0
    6.8178   -6.8785    0.0000 C   0  0  0  0  0  0  0  0  0  0  0  0
    7.9601   -6.2466    0.0000 C   0  0  0  0  0  0  0  0  0  0  0  0
    9.1146   -6.8785    0.0000 C   0  0  0  0  0  0  0  0  0  0  0  0
   10.2206   -6.2466    0.0000 C   0  0  0  0  0  0  0  0  0  0  0  0
   10.2206   -4.9219    0.0000 C   0  0  0  0  0  0  0  0  0  0  0  0
    9.1146   -4.2535    0.0000 C   0  0  0  0  0  0  0  0  0  0  0  0
    9.1146   -2.9410    0.0000 C   0  0  0  0  0  0  0  0  0  0  0  0
    7.9601   -2.2604    0.0000 C   0  0  0  0  0  0  0  0  0  0  0  0
    6.8178   -2.9410    0.0000 C   0  0  0  0  0  0  0  0  0  0  0  0
    5.6632   -2.2604    0.0000 C   0  0  0  0  0  0  0  0  0  0  0  0
    4.5452   -2.9410    0.0000 C   0  0  0  0  0  0  0  0  0  0  0  0
    2.2604   -2.9410    0.0000 C   0  0  0  0  0  0  0  0  0  0  0  0
    2.2604   -4.2535    0.0000 C   0  0  0  0  0  0  0  0  0  0  0  0
    1.1424   -4.9219    0.0000 C   0  0  0  0  0  0  0  0  0  0  0  0
    1.1424   -6.2466    0.0000 C   0  0  0  0  0  0  0  0  0  0  0  0
    2.2604   -6.8785    0.0000 C   0  0  0  0  0  0  0  0  0  0  0  0
    3.4028   -6.2466    0.0000 C   0  0  0  0  0  0  0  0  0  0  0  0
    4.5452   -6.8785    0.0000 C   0  0  0  0  0  0  0  0  0  0  0  0
    4.5452   -8.1789    0.0000 C   0  0  0  0  0  0  0  0  0  0  0  0
    3.4028   -8.8594    0.0000 C   0  0  0  0  0  0  0  0  0  0  0  0
    2.2604   -8.1789    0.0000 C   0  0  0  0  0  0  0  0  0  0  0  0
    6.8178   -8.1789    0.0000 O   0  0  0  0  0  0  0  0  0  0  0  0
    7.9115   -4.8004    0.0000 C   0  0  0  0  0  0  0  0  0  0  0  0
   10.2692   -3.7066    0.0000 O   0  0  0  0  0  0  0  0  0  0  0  0
   11.1442   -4.6667    0.0000 C   0  0  0  0  0  0  0  0  0  0  0  0
    9.6372   -1.9931    0.0000 O   0  0  0  0  0  0  0  0  0  0  0  0
   10.7796   -1.3125    0.0000 C   0  0  0  0  0  0  0  0  0  0  0  0
   10.7796    0.0000    0.0000 O   0  0  0  0  0  0  0  0  0  0  0  0
    7.9601   -0.9844    0.0000 C   0  0  0  0  0  0  0  0  0  0  0  0
    5.6632   -0.9844    0.0000 C   0  0  0  0  0  0  0  0  0  0  0  0
    4.5452   -4.2535    0.0000 O   0  0  0  0  0  0  0  0  0  0  0  0
    1.1424   -2.2604    0.0000 O   0  0  0  0  0  0  0  0  0  0  0  0
    1.1424   -0.9844    0.0000 C   0  0  0  0  0  0  0  0  0  0  0  0
    0.0000   -4.2535    0.0000 C   0  0  0  0  0  0  0  0  0  0  0  0
    3.4028   -4.9219    0.0000 O   0  0  0  0  0  0  0  0  0  0  0  0
    3.4028  -10.1963    0.0000 O   0  0  0  0  0  0  0  0  0  0  0  0
    1.1424   -8.8473    0.0000 N   0  0  0  0  0  0  0  0  0  0  0  0
    1.1424  -10.1719    0.0000 C   0  0  0  0  0  0  0  0  0  0  0  0
   11.9098   -1.9931    0.0000 N   0  0  0  0  0  0  0  0  0  0  0  0
    0.0000  -10.8404    0.0000 C   0  0  0  0  0  0  0  0  0  0  0  0
    0.0000  -12.1529    0.0000 C   0  0  0  0  0  0  0  0  0  0  0  0
  1 19  1  0  0  0  0
  1  2  1  0  0  0  0
  2  3  1  0  0  0  0
  2 23  2  0  0  0  0
  3  4  2  0  0  0  0
  3 24  1  0  0  0  0
  4  5  1  0  0  0  0
  5  6  2  0  0  0  0
  6  7  1  0  0  0  0
  7 25  1  6  0  0  0
  7  8  1  0  0  0  0
  8  9  1  0  0  0  0
  8 27  1  6  0  0  0
  9 10  2  0  0  0  0
  9 30  1  0  0  0  0
 10 11  1  0  0  0  0
 11 12  1  0  0  0  0
 11 31  1  1  0  0  0
 12 32  1  1  0  0  0
 12 13  1  0  0  0  0
 13 14  1  0  0  0  0
 13 33  1  6  0  0  0
 14 15  1  0  0  0  0
 15 16  1  0  0  0  0
 15 35  1  1  0  0  0
 16 17  1  0  0  0  0
 17 18  1  0  0  0  0
 17 22  2  0  0  0  0
 18 19  1  0  0  0  0
 18 36  2  0  0  0  0
 19 20  2  0  0  0  0
 20 21  1  0  0  0  0
 21 22  1  0  0  0  0
 21 37  2  0  0  0  0
 22 38  1  0  0  0  0
 25 26  1  0  0  0  0
 27 28  1  0  0  0  0
 28 40  1  0  0  0  0
 28 29  2  0  0  0  0
 33 34  1  0  0  0  0
 38 39  1  0  0  0  0
 39 41  1  0  0  0  0
 41 42  2  0  0  0  0
M  END
> <ID>
11622

> <Formula>
C31H43N3O8

> <FW>
585.6884

> <DSSTox_CID>
26352

> <DSSTox_RID>
81555

> <DSSTox_GSID>
46352

> <DSSTox_FileID_Sort>
6236

> <TS_ChemName>
Tanespimycin

> <TS_ChemName_Synonyms>


> <TS_CASRN>
75747-14-7

> <CASRN_ChemName_Relationship>
primary

> <TS_Description>
single chemical compound

> <ChemNote>
stereochem; tautomers

> <STRUCTURE_Shown>
tested chemical

> <STRUCTURE_Formula>
C31H43N3O8

> <STRUCTURE_MW>
585.6884

> <STRUCTURE_ChemType>
defined organic

> <STRUCTURE_DefinedOrganicForm>
parent

> <STRUCTURE_IUPAC>
(4E,6Z,8S,9S,10E,12S,13R,14S,16R)-13-hydroxy-8,14-dimethoxy-4,10,12,16-tetramethyl-3,20,22-trioxo-19-(prop-2-en-1-ylamino)-2-azabicyclo[16.3.1]docosa-1(21),4,6,10,18-pentaen-9-yl carbamate

> <STRUCTURE_SMILES>
NC(=O)O[C@H]1C(C)=C[C@H](C)[C@@H](O)[C@@H](OC)C[C@H](C)CC2=C(NCC=C)C(=O)C=C(NC(=O)C(C)=CC=C[C@@H]1OC)C2=O

> <STRUCTURE_SMILES_Desalt>
NC(=O)O[C@H]1C(C)=C[C@H](C)[C@@H](O)[C@@H](OC)C[C@H](C)CC2=C(NCC=C)C(=O)C=C(NC(=O)C(C)=CC=C[C@@H]1OC)C2=O

> <Substance_modify_yyyymmdd>
20100814

$$$$
