7575-23-7
ChemmineR-0915142007XD

 29 28  0  0  0  0  0  0  0  0  1 V2000
    6.6697   -2.8013    0.0000 C   0  0  0  0  0  0  0  0  0  0  0  0
    7.6035   -1.8542    0.0000 C   0  0  0  0  0  0  0  0  0  0  0  0
    5.7360   -1.8542    0.0000 C   0  0  0  0  0  0  0  0  0  0  0  0
    7.6035   -3.7617    0.0000 C   0  0  0  0  0  0  0  0  0  0  0  0
    5.7360   -3.7617    0.0000 C   0  0  0  0  0  0  0  0  0  0  0  0
    8.8974   -2.2010    0.0000 O   0  0  0  0  0  0  0  0  0  0  0  0
    4.4421   -2.2010    0.0000 O   0  0  0  0  0  0  0  0  0  0  0  0
    8.8974   -3.4016    0.0000 O   0  0  0  0  0  0  0  0  0  0  0  0
    4.4421   -3.4016    0.0000 O   0  0  0  0  0  0  0  0  0  0  0  0
    9.8312   -1.2806    0.0000 C   0  0  0  0  0  0  0  0  0  0  0  0
    3.5083   -1.2806    0.0000 C   0  0  0  0  0  0  0  0  0  0  0  0
    9.8312   -4.3353    0.0000 C   0  0  0  0  0  0  0  0  0  0  0  0
    3.5083   -4.3353    0.0000 C   0  0  0  0  0  0  0  0  0  0  0  0
   11.1251   -1.6141    0.0000 C   0  0  0  0  0  0  0  0  0  0  0  0
    9.4977    0.0000    0.0000 O   0  0  0  0  0  0  0  0  0  0  0  0
    2.2277   -1.6141    0.0000 C   0  0  0  0  0  0  0  0  0  0  0  0
    3.8418    0.0000    0.0000 O   0  0  0  0  0  0  0  0  0  0  0  0
   11.1251   -4.0018    0.0000 C   0  0  0  0  0  0  0  0  0  0  0  0
    9.4977   -5.6293    0.0000 O   0  0  0  0  0  0  0  0  0  0  0  0
    2.2277   -4.0018    0.0000 C   0  0  0  0  0  0  0  0  0  0  0  0
    3.8418   -5.6293    0.0000 O   0  0  0  0  0  0  0  0  0  0  0  0
   12.0722   -0.6803    0.0000 C   0  0  0  0  0  0  0  0  0  0  0  0
    1.2939   -0.6803    0.0000 C   0  0  0  0  0  0  0  0  0  0  0  0
   12.0722   -4.9490    0.0000 C   0  0  0  0  0  0  0  0  0  0  0  0
    1.2939   -4.9490    0.0000 C   0  0  0  0  0  0  0  0  0  0  0  0
   13.3395   -1.0271    0.0000 S   0  0  0  0  0  0  0  0  0  0  0  0
    0.0000   -1.0271    0.0000 S   0  0  0  0  0  0  0  0  0  0  0  0
   13.3395   -4.5888    0.0000 S   0  0  0  0  0  0  0  0  0  0  0  0
    0.0000   -4.5888    0.0000 S   0  0  0  0  0  0  0  0  0  0  0  0
  1  2  1  0  0  0  0
  1  3  1  0  0  0  0
  1  4  1  0  0  0  0
  1  5  1  0  0  0  0
  2  6  1  0  0  0  0
  3  7  1  0  0  0  0
  4  8  1  0  0  0  0
  5  9  1  0  0  0  0
  6 10  1  0  0  0  0
  7 11  1  0  0  0  0
  8 12  1  0  0  0  0
  9 13  1  0  0  0  0
 10 14  1  0  0  0  0
 10 15  2  0  0  0  0
 11 16  1  0  0  0  0
 11 17  2  0  0  0  0
 12 18  1  0  0  0  0
 12 19  2  0  0  0  0
 13 20  1  0  0  0  0
 13 21  2  0  0  0  0
 14 22  1  0  0  0  0
 16 23  1  0  0  0  0
 18 24  1  0  0  0  0
 20 25  1  0  0  0  0
 22 26  1  0  0  0  0
 23 27  1  0  0  0  0
 24 28  1  0  0  0  0
 25 29  1  0  0  0  0
M  END
> <ID>
10380

> <Formula>
C17H28O8S4

> <FW>
488.6594

> <DSSTox_CID>
24728

> <DSSTox_RID>
80427

> <DSSTox_GSID>
44728

> <DSSTox_FileID_Sort>
5109

> <TS_ChemName>
3-[(3-Sulfanylpropanoyl)oxy]-2,2-bis{[(3-sulfanylpropanoyl)oxy]methyl}propyl 3-sulfanylpropanoate

> <TS_ChemName_Synonyms>
3-[(3-Sulfanylpropanoyl)oxy]-2,2-bis{[(3-sulfanylpropanoyl)oxy]methyl}propyl 3-sulfanylpropanoate (Propanoic acid, 3-mercapto-, 2,2-bis[(3-mercapto-1-oxopropoxy)methyl]-1,3-propanediyl ester)

> <TS_CASRN>
7575-23-7

> <CASRN_ChemName_Relationship>
primary

> <TS_Description>
single chemical compound

> <ChemNote>


> <STRUCTURE_Shown>
tested chemical

> <STRUCTURE_Formula>
C17H28O8S4

> <STRUCTURE_MW>
488.6594

> <STRUCTURE_ChemType>
defined organic

> <STRUCTURE_DefinedOrganicForm>
parent

> <STRUCTURE_IUPAC>
3-[(3-sulfanylpropanoyl)oxy]-2,2-bis{[(3-sulfanylpropanoyl)oxy]methyl}propyl 3-sulfanylpropanoate

> <STRUCTURE_SMILES>
SCCC(=O)OCC(COC(=O)CCS)(COC(=O)CCS)COC(=O)CCS

> <STRUCTURE_SMILES_Desalt>
SCCC(=O)OCC(COC(=O)CCS)(COC(=O)CCS)COC(=O)CCS

> <Substance_modify_yyyymmdd>
20091116

$$$$
