7579-36-4
ChemmineR-0915142007XD

 20 21  0  0  0  0  0  0  0  0  1 V2000
    5.7547   -2.6687    0.0000 C   0  0  0  0  0  0  0  0  0  0  0  0
    6.8930   -2.0110    0.0000 C   0  0  0  0  0  0  0  0  0  0  0  0
    5.7420   -3.9967    0.0000 O   0  0  0  0  0  0  0  0  0  0  0  0
    6.8930   -0.6703    0.0000 O   0  0  0  0  0  0  0  0  0  0  0  0
    8.0439   -2.6687    0.0000 O   0  0  0  0  0  0  0  0  0  0  0  0
    4.6037   -1.9857    0.0000 O   0  0  0  0  0  0  0  0  0  0  0  0
    3.4402   -2.6687    0.0000 C   0  0  0  0  0  0  0  0  0  0  0  0
    2.2892   -1.9857    0.0000 C   0  0  0  0  0  0  0  0  0  0  0  0
    1.1383   -2.6687    0.0000 C   0  0  0  0  0  0  0  0  0  0  0  0
    2.2892   -0.6577    0.0000 C   0  0  0  0  0  0  0  0  0  0  0  0
    0.0000   -1.9857    0.0000 C   0  0  0  0  0  0  0  0  0  0  0  0
    1.1383    0.0000    0.0000 C   0  0  0  0  0  0  0  0  0  0  0  0
    0.0000   -0.6577    0.0000 C   0  0  0  0  0  0  0  0  0  0  0  0
    9.1822   -2.0110    0.0000 C   0  0  0  0  0  0  0  0  0  0  0  0
   10.3331   -2.6687    0.0000 C   0  0  0  0  0  0  0  0  0  0  0  0
   10.3331   -3.9967    0.0000 C   0  0  0  0  0  0  0  0  0  0  0  0
   11.4967   -2.0110    0.0000 C   0  0  0  0  0  0  0  0  0  0  0  0
   11.4967   -4.6670    0.0000 C   0  0  0  0  0  0  0  0  0  0  0  0
   12.6477   -2.6687    0.0000 C   0  0  0  0  0  0  0  0  0  0  0  0
   12.6477   -3.9967    0.0000 C   0  0  0  0  0  0  0  0  0  0  0  0
  1  2  1  0  0  0  0
  1  3  2  0  0  0  0
  1  6  1  0  0  0  0
  2  4  2  0  0  0  0
  2  5  1  0  0  0  0
  5 14  1  0  0  0  0
  6  7  1  0  0  0  0
  7  8  1  0  0  0  0
  8  9  2  0  0  0  0
  8 10  1  0  0  0  0
  9 11  1  0  0  0  0
 10 12  2  0  0  0  0
 11 13  2  0  0  0  0
 12 13  1  0  0  0  0
 14 15  1  0  0  0  0
 15 16  2  0  0  0  0
 15 17  1  0  0  0  0
 16 18  1  0  0  0  0
 17 19  2  0  0  0  0
 18 20  2  0  0  0  0
 19 20  1  0  0  0  0
M  END
> <ID>
7546

> <Formula>
C16H14O4

> <FW>
270.28

> <DSSTox_CID>
18926

> <DSSTox_RID>
79420

> <DSSTox_GSID>
38926

> <DSSTox_FileID_Sort>
4102

> <TS_ChemName>
Dibenzyl oxalate

> <TS_ChemName_Synonyms>


> <TS_CASRN>
7579-36-4

> <CASRN_ChemName_Relationship>
primary

> <TS_Description>
single chemical compound

> <ChemNote>


> <STRUCTURE_Shown>
tested chemical

> <STRUCTURE_Formula>
C16H14O4

> <STRUCTURE_MW>
270.28

> <STRUCTURE_ChemType>
defined organic

> <STRUCTURE_DefinedOrganicForm>
parent

> <STRUCTURE_IUPAC>
dibenzyl ethanedioate

> <STRUCTURE_SMILES>
O=C(OCc1ccccc1)C(=O)OCc2ccccc2

> <STRUCTURE_SMILES_Desalt>
O=C(OCc1ccccc1)C(=O)OCc2ccccc2

> <Substance_modify_yyyymmdd>
20080429

$$$$
