75820-08-5
ChemmineR-0915142007XD

 24 25  0  0  0  0  0  0  0  0  1 V2000
    3.5059   -7.9680    0.0000 C   0  0  0  0  0  0  0  0  0  0  0  0
    5.7901   -3.9840    0.0000 C   0  0  0  0  0  0  0  0  0  0  0  0
    4.6214   -7.3306    0.0000 C   0  0  0  0  0  0  0  0  0  0  0  0
    3.5059   -9.2960    0.0000 C   0  0  0  0  0  0  0  0  0  0  0  0
    4.6214   -6.0026    0.0000 C   0  0  0  0  0  0  0  0  0  0  0  0
    5.7901   -5.3120    0.0000 C   0  0  0  0  0  0  0  0  0  0  0  0
    6.9587   -3.2934    0.0000 N   0  0  0  0  0  0  0  0  0  0  0  0
    3.5059   -5.3120    0.0000 C   0  0  0  0  0  0  0  0  0  0  0  0
    2.3373   -7.2775    0.0000 C   0  0  0  0  0  0  0  0  0  0  0  0
    4.6214   -3.2934    0.0000 S   0  0  0  0  0  0  0  0  0  0  0  0
    8.0849   -1.3280    0.0000 C   0  0  0  0  0  0  0  0  0  0  0  0
    6.9587   -1.9654    0.0000 C   0  0  0  0  0  0  0  0  0  0  0  0
    2.3373   -6.0026    0.0000 C   0  0  0  0  0  0  0  0  0  0  0  0
    9.2429   -1.9654    0.0000 O   0  0  0  0  0  0  0  0  0  0  0  0
    3.5059  -10.6240    0.0000 F   0  0  0  0  0  0  0  0  0  0  0  0
    2.1248   -9.2960    0.0000 F   0  0  0  0  0  0  0  0  0  0  0  0
    4.8339   -9.2960    0.0000 F   0  0  0  0  0  0  0  0  0  0  0  0
    5.7901   -7.9680    0.0000 C   0  0  0  0  0  0  0  0  0  0  0  0
    8.0849    0.0000    0.0000 O   0  0  0  0  0  0  0  0  0  0  0  0
    6.9587   -6.0026    0.0000 C   0  0  0  0  0  0  0  0  0  0  0  0
    1.1686   -7.9149    0.0000 O   0  0  0  0  0  0  0  0  0  0  0  0
    8.0849   -3.9309    0.0000 C   0  0  0  0  0  0  0  0  0  0  0  0
    6.9587   -7.2775    0.0000 C   0  0  0  0  0  0  0  0  0  0  0  0
    0.0000   -7.2350    0.0000 C   0  0  0  0  0  0  0  0  0  0  0  0
  1  3  1  0  0  0  0
  1  4  1  0  0  0  0
  1  9  2  0  0  0  0
  2  6  1  0  0  0  0
  2  7  1  0  0  0  0
  2 10  2  0  0  0  0
  3  5  2  0  0  0  0
  3 18  1  0  0  0  0
  4 15  1  0  0  0  0
  4 16  1  0  0  0  0
  4 17  1  0  0  0  0
  5  6  1  0  0  0  0
  5  8  1  0  0  0  0
  6 20  2  0  0  0  0
  7 12  1  0  0  0  0
  7 22  1  0  0  0  0
  8 13  2  0  0  0  0
  9 13  1  0  0  0  0
  9 21  1  0  0  0  0
 11 12  1  0  0  0  0
 11 14  2  0  0  0  0
 11 19  1  0  0  0  0
 18 23  2  0  0  0  0
 20 23  1  0  0  0  0
 21 24  1  0  0  0  0
M  END
> <ID>
13823

> <Formula>
C16H14F3NO3S

> <FW>
357.3475

> <DSSTox_CID>
28760

> <DSSTox_RID>
83029

> <DSSTox_GSID>
48834

> <DSSTox_FileID_Sort>
7706

> <TS_ChemName>
Tolrestat

> <TS_ChemName_Synonyms>


> <TS_CASRN>
75820-08-5

> <CASRN_ChemName_Relationship>
primary

> <TS_Description>
single chemical compound

> <ChemNote>


> <STRUCTURE_Shown>
tested chemical

> <STRUCTURE_Formula>
C16H14F3NO3S

> <STRUCTURE_MW>
357.3475

> <STRUCTURE_ChemType>
defined organic

> <STRUCTURE_DefinedOrganicForm>
parent

> <STRUCTURE_IUPAC>
N-{[6-methoxy-5-(trifluoromethyl)naphthalen-1-yl]carbonothioyl}-N-methylglycine

> <STRUCTURE_SMILES>
O=C(O)CN(C)C(=S)c2cccc1c2ccc(OC)c1C(F)(F)F

> <STRUCTURE_SMILES_Desalt>
O=C(O)CN(C)C(=S)c2cccc1c2ccc(OC)c1C(F)(F)F

> <Substance_modify_yyyymmdd>
20111204

$$$$
