75859-03-9
ChemmineR-0915142007XD

 26 27  0  0  1  0  0  0  0  0  1 V2000
    0.0000   -6.3622    0.0000 C    0  0  0  0  0  0  0  0  0  0  0  0
    1.1483   -7.0140    0.0000 C    0  0  0  0  0  0  0  0  0  0  0  0
    2.3070   -6.3622    0.0000 C    0  0  0  0  0  0  0  0  0  0  0  0
    3.4553   -7.0140    0.0000 N    0  0  0  0  0  0  0  0  0  0  0  0
    4.6139   -6.3622    0.0000 C    0  0  0  0  0  0  0  0  0  0  0  0
    4.6139   -5.0277    0.0000 C    0  0  0  0  0  0  0  0  0  0  0  0
    5.7519   -4.3553    0.0000 C    0  0  0  0  0  0  0  0  0  0  0  0
    5.7519   -3.0311    0.0000 N    0  0  0  0  0  0  0  0  0  0  0  0
    6.8381   -2.2552    0.0000 C    0  0  0  0  0  0  0  0  0  0  0  0
    6.4243   -0.9931    0.0000 C    0  0  0  0  0  0  0  0  0  0  0  0
    7.3036    0.0000    0.0000 C    0  0  0  0  0  0  0  0  0  0  0  0
    8.6175   -0.2690    0.0000 C    0  0  0  0  0  0  0  0  0  0  0  0
    9.0209   -1.5414    0.0000 C    0  0  0  0  0  0  0  0  0  0  0  0
    8.1312   -2.5345    0.0000 C    0  0  0  0  0  0  0  0  0  0  0  0
    5.0898   -0.9931    0.0000 C    0  0  0  0  0  0  0  0  0  0  0  0
    4.6760   -2.2552    0.0000 C    0  0  0  0  0  0  0  0  0  0  0  0
    3.3828   -2.5345    0.0000 C    0  0  0  0  0  0  0  0  0  0  0  0
    2.4932   -1.5414    0.0000 C    0  0  0  0  0  0  0  0  0  0  0  0
    2.8966   -0.2690    0.0000 C    0  0  0  0  0  0  0  0  0  0  0  0
    4.2001    0.0000    0.0000 C    0  0  0  0  0  0  0  0  0  0  0  0
    3.4553   -8.3485    0.0000 C    0  0  0  0  0  0  0  0  0  0  0  0
    2.3070   -9.0209    0.0000 C    0  0  0  0  0  0  0  0  0  0  0  0
    2.3070  -10.3451    0.0000 C    0  0  0  0  0  0  0  0  0  0  0  0
    1.1483   -8.3485    0.0000 N    0  0  0  0  0  0  0  0  0  0  0  0
    7.5312   -3.7966    0.0000 Cl   0  0  0  0  0  0  0  0  0  0  0  0
    6.5174   -5.4932    0.0000 Cl   0  0  0  0  0  0  0  0  0  0  0  0
  2  1  1  6  0  0  0
  2  3  1  0  0  0  0
  2 24  1  0  0  0  0
  3  4  1  0  0  0  0
  4  5  1  0  0  0  0
  4 21  1  0  0  0  0
  5  6  1  0  0  0  0
  6  7  1  0  0  0  0
  7  8  1  0  0  0  0
  8  9  1  0  0  0  0
  8 16  1  0  0  0  0
  9 10  2  0  0  0  0
  9 14  1  0  0  0  0
 10 11  1  0  0  0  0
 10 15  1  0  0  0  0
 11 12  2  0  0  0  0
 12 13  1  0  0  0  0
 13 14  2  0  0  0  0
 15 16  2  0  0  0  0
 15 20  1  0  0  0  0
 16 17  1  0  0  0  0
 17 18  2  0  0  0  0
 18 19  1  0  0  0  0
 19 20  2  0  0  0  0
 21 22  1  0  0  0  0
 22 23  1  6  0  0  0
 22 24  1  0  0  0  0
M  END
> <ID>
11123

> <Formula>
C21H29Cl2N3

> <FW>
394.3811 (321.4592+36.4609+36.4609)

> <DSSTox_CID>
25681

> <DSSTox_RID>
82704

> <DSSTox_GSID>
48161

> <DSSTox_FileID_Sort>
7381

> <TS_ChemName>
Rimcazole dihydrochloride

> <TS_ChemName_Synonyms>


> <TS_CASRN>
75859-03-9

> <CASRN_ChemName_Relationship>
primary

> <TS_Description>
single chemical compound

> <ChemNote>
stereochem; parent [75859-04-0]

> <STRUCTURE_Shown>
tested chemical

> <STRUCTURE_Formula>
C21H29Cl2N3

> <STRUCTURE_MW>
394.3811

> <STRUCTURE_ChemType>
defined organic

> <STRUCTURE_DefinedOrganicForm>
complex

> <STRUCTURE_IUPAC>
9-{3-[(3R,5S)-3,5-dimethylpiperazin-1-yl]propyl}-9H-carbazole dihydrochloride

> <STRUCTURE_SMILES>
Cl.Cl.C[C@H]4CN(CCCn3c1ccccc1c2ccccc23)C[C@@H](C)N4

> <STRUCTURE_SMILES_Desalt>
C[C@H]4CN(CCCn3c1ccccc1c2ccccc23)C[C@@H](C)N4

> <Substance_modify_yyyymmdd>
20110603

$$$$
