75887-54-6
ChemmineR-0915142007XD

 28 31  0  0  1  0  0  0  0  0  1 V2000
    9.3864   -2.6751    0.0000 C   0  0  0  0  0  0  0  0  0  0  0  0
    8.4196   -3.6044    0.0000 C   0  0  0  0  0  0  0  0  0  0  0  0
    7.2088   -3.4354    0.0000 O   0  0  0  0  0  0  0  0  0  0  0  0
    5.9322   -3.5762    0.0000 C   0  0  0  0  0  0  0  0  0  0  0  0
    6.3734   -4.8903    0.0000 H   0  0  0  0  0  0  0  0  0  0  0  0
    4.8152   -4.1770    0.0000 O   0  0  0  0  0  0  0  0  0  0  0  0
    3.5668   -4.4961    0.0000 C   0  0  0  0  0  0  0  0  0  0  0  0
    4.3553   -5.6318    0.0000 H   0  0  0  0  0  0  0  0  0  0  0  0
    2.8722   -5.6788    0.0000 O   0  0  0  0  0  0  0  0  0  0  0  0
    1.5581   -5.9885    0.0000 C   0  0  0  0  0  0  0  0  0  0  0  0
    1.1358   -7.2369    0.0000 C   0  0  0  0  0  0  0  0  0  0  0  0
    0.5163   -5.0311    0.0000 C   0  0  0  0  0  0  0  0  0  0  0  0
    0.5820   -3.7170    0.0000 C   0  0  0  0  0  0  0  0  0  0  0  0
    1.5957   -2.7408    0.0000 C   0  0  0  0  0  0  0  0  0  0  0  0
    0.2534   -2.6282    0.0000 H   0  0  0  0  0  0  0  0  0  0  0  0
    1.3235   -1.3516    0.0000 C   0  0  0  0  0  0  0  0  0  0  0  0
    1.1170    0.0000    0.0000 H   0  0  0  0  0  0  0  0  0  0  0  0
    0.0000   -0.9293    0.0000 C   0  0  0  0  0  0  0  0  0  0  0  0
    2.3654   -0.5350    0.0000 C   0  0  0  0  0  0  0  0  0  0  0  0
    3.5011   -0.9856    0.0000 C   0  0  0  0  0  0  0  0  0  0  0  0
    3.9798   -2.2058    0.0000 C   0  0  0  0  0  0  0  0  0  0  0  0
    4.3835   -0.8917    0.0000 H   0  0  0  0  0  0  0  0  0  0  0  0
    5.2658   -2.4405    0.0000 C   0  0  0  0  0  0  0  0  0  0  0  0
    5.9041   -1.1639    0.0000 H   0  0  0  0  0  0  0  0  0  0  0  0
    6.5423   -1.9242    0.0000 C   0  0  0  0  0  0  0  0  0  0  0  0
    3.0412   -3.1163    0.0000 C   0  0  0  0  0  0  0  0  0  0  0  0
    2.1589   -3.8109    0.0000 O   0  0  0  0  0  0  0  0  0  0  0  0
    1.6426   -4.8715    0.0000 O   0  0  0  0  0  0  0  0  0  0  0  0
  1  2  1  0  0  0  0
  2  3  1  0  0  0  0
  3  4  1  0  0  0  0
  4  5  1  6  0  0  0
  4  6  1  0  0  0  0
  4 23  1  0  0  0  0
  6  7  1  0  0  0  0
  7  8  1  1  0  0  0
  7  9  1  0  0  0  0
  7 26  1  0  0  0  0
  9 10  1  0  0  0  0
 10 11  1  0  0  0  0
 10 12  1  0  0  0  0
 10 28  1  0  0  0  0
 12 13  1  0  0  0  0
 13 14  1  0  0  0  0
 14 15  1  6  0  0  0
 14 16  1  0  0  0  0
 14 26  1  0  0  0  0
 16 17  1  1  0  0  0
 16 18  1  0  0  0  0
 16 19  1  0  0  0  0
 19 20  1  0  0  0  0
 20 21  1  0  0  0  0
 21 22  1  6  0  0  0
 21 23  1  0  0  0  0
 21 26  1  0  0  0  0
 23 24  1  6  0  0  0
 23 25  1  0  0  0  0
 26 27  1  6  0  0  0
 27 28  1  0  0  0  0
M  END
> <ID>
16219

> <Formula>
C17H28O5

> <FW>
312.4012

> <DSSTox_CID>
31610

> <DSSTox_RID>
97494

> <DSSTox_GSID>
57821

> <DSSTox_FileID_Sort>
8561

> <TS_ChemName>
Artemotil

> <TS_ChemName_Synonyms>


> <TS_CASRN>
75887-54-6

> <CASRN_ChemName_Relationship>
primary

> <TS_Description>
single chemical compound

> <ChemNote>


> <STRUCTURE_Shown>
tested chemical

> <STRUCTURE_Formula>
C17H28O5

> <STRUCTURE_MW>
312.4012

> <STRUCTURE_ChemType>
defined organic

> <STRUCTURE_DefinedOrganicForm>
parent

> <STRUCTURE_IUPAC>
(5aS,6R,8aS,9R,10S,12R,12aR)-10-ethoxy-3,6,9-trimethyldecahydro-3,12-epoxy[1,2]dioxepino[4,3-i]isochromene

> <STRUCTURE_SMILES>
CC12O[C@H]4O[C@H](OCC)[C@H](C)[C@@H]3CC[C@@H](C)[C@H](CC1)[C@@]34OO2

> <STRUCTURE_SMILES_Desalt>
CC12O[C@H]4O[C@H](OCC)[C@H](C)[C@@H]3CC[C@@H](C)[C@H](CC1)[C@@]34OO2

> <Substance_modify_yyyymmdd>
20131018

$$$$
