75899-68-2
ChemmineR-0915142007XD

 11 10  0  0  0  0  0  0  0  0  1 V2000
    1.1515    0.0000    0.0000 C   0  0  0  0  0  0  0  0  0  0  0  0
    2.3031   -0.6639    0.0000 C   0  0  0  0  0  0  0  0  0  0  0  0
    3.4546    0.0000    0.0000 C   0  0  0  0  0  0  0  0  0  0  0  0
    4.6061   -0.6639    0.0000 C   0  0  0  0  0  0  0  0  0  0  0  0
    5.7681    0.0000    0.0000 C   0  0  0  0  0  0  0  0  0  0  0  0
    6.9196   -0.6639    0.0000 C   0  0  0  0  0  0  0  0  0  0  0  0
    8.0711    0.0000    0.0000 C   0  0  0  0  0  0  0  0  0  0  0  0
    9.2227   -0.6639    0.0000 C   0  0  0  0  0  0  0  0  0  0  0  0
   10.3742    0.0000    0.0000 C   0  0  0  0  0  0  0  0  0  0  0  0
    0.0000   -0.6639    0.0000 O   0  0  0  0  0  0  0  0  0  0  0  0
    4.6061   -1.9918    0.0000 O   0  0  0  0  0  0  0  0  0  0  0  0
  1  2  1  0  0  0  0
  1 10  2  0  0  0  0
  2  3  2  0  0  0  0
  3  4  1  0  0  0  0
  4  5  1  0  0  0  0
  4 11  1  0  0  0  0
  5  6  1  0  0  0  0
  6  7  1  0  0  0  0
  7  8  1  0  0  0  0
  8  9  1  0  0  0  0
M  END
> <ID>
7736

> <Formula>
C9H16O2

> <FW>
156.2221

> <DSSTox_CID>
20395

> <DSSTox_RID>
79489

> <DSSTox_GSID>
40395

> <DSSTox_FileID_Sort>
4171

> <TS_ChemName>
4-Hydroxy-2-nonenal

> <TS_ChemName_Synonyms>
4-hydroxy-2-nonenal (HNE)

> <TS_CASRN>
75899-68-2

> <CASRN_ChemName_Relationship>
primary

> <TS_Description>
single chemical compound

> <ChemNote>
stereochem

> <STRUCTURE_Shown>
tested chemical

> <STRUCTURE_Formula>
C9H16O2

> <STRUCTURE_MW>
156.2221

> <STRUCTURE_ChemType>
defined organic

> <STRUCTURE_DefinedOrganicForm>
parent

> <STRUCTURE_IUPAC>
(2E)-4-hydroxynon-2-enal

> <STRUCTURE_SMILES>
CCCCCC(O)/C=C/C=O

> <STRUCTURE_SMILES_Desalt>
CCCCCC(O)/C=C/C=O

> <Substance_modify_yyyymmdd>
20080429

$$$$
