759-94-4
ChemmineR-0915142007XD

 12 11  0  0  0  0  0  0  0  0  1 V2000
    3.4563   -2.0058    0.0000 C   0  0  0  0  0  0  0  0  0  0  0  0
    2.3320   -2.6721    0.0000 N   0  0  0  0  0  0  0  0  0  0  0  0
    3.4563   -0.6663    0.0000 O   0  0  0  0  0  0  0  0  0  0  0  0
    4.6293   -2.6721    0.0000 S   0  0  0  0  0  0  0  0  0  0  0  0
    2.3320   -3.9769    0.0000 C   0  0  0  0  0  0  0  0  0  0  0  0
    1.1591   -1.9919    0.0000 C   0  0  0  0  0  0  0  0  0  0  0  0
    5.7814   -2.0058    0.0000 C   0  0  0  0  0  0  0  0  0  0  0  0
    1.1591   -0.6663    0.0000 C   0  0  0  0  0  0  0  0  0  0  0  0
    1.1868   -4.6293    0.0000 C   0  0  0  0  0  0  0  0  0  0  0  0
    6.9404   -2.6721    0.0000 C   0  0  0  0  0  0  0  0  0  0  0  0
    1.1868   -5.9549    0.0000 C   0  0  0  0  0  0  0  0  0  0  0  0
    0.0000    0.0000    0.0000 C   0  0  0  0  0  0  0  0  0  0  0  0
  1  2  1  0  0  0  0
  1  3  2  0  0  0  0
  1  4  1  0  0  0  0
  2  5  1  0  0  0  0
  2  6  1  0  0  0  0
  4  7  1  0  0  0  0
  5  9  1  0  0  0  0
  6  8  1  0  0  0  0
  7 10  1  0  0  0  0
  8 12  1  0  0  0  0
  9 11  1  0  0  0  0
M  END
> <ID>
3498

> <Formula>
C9H19NOS

> <FW>
189.3183

> <DSSTox_CID>
4091

> <DSSTox_RID>
77285

> <DSSTox_GSID>
24091

> <DSSTox_FileID_Sort>
1968

> <TS_ChemName>
EPTC

> <TS_ChemName_Synonyms>
S-Ethyl dipropylthiocarbamate; Eptam

> <TS_CASRN>
759-94-4

> <CASRN_ChemName_Relationship>
primary

> <TS_Description>
single chemical compound

> <ChemNote>


> <STRUCTURE_Shown>
tested chemical

> <STRUCTURE_Formula>
C9H19NOS

> <STRUCTURE_MW>
189.3183

> <STRUCTURE_ChemType>
defined organic

> <STRUCTURE_DefinedOrganicForm>
parent

> <STRUCTURE_IUPAC>
S-ethyl dipropylcarbamothioate

> <STRUCTURE_SMILES>
CCCN(CCC)C(=O)SCC

> <STRUCTURE_SMILES_Desalt>
CCCN(CCC)C(=O)SCC

> <Substance_modify_yyyymmdd>
20131118

$$$$
