759437-26-8
ChemmineR-0915142007XD

 58 63  0  0  0  0  0  0  0  0  1 V2000
   10.3697   -3.9866    0.0000 O   0  0  0  0  0  0  0  0  0  0  0  0
   12.1901   -3.5026    0.0000 O   0  0  0  0  0  0  0  0  0  0  0  0
   10.8536   -5.8070    0.0000 O   0  0  0  0  0  0  0  0  0  0  0  0
   11.5218   -4.6548    0.0000 S   0  0  0  0  0  0  0  0  0  0  0  0
   12.6740  -11.9597    0.0000 O   0  0  0  0  0  0  0  0  0  0  0  0
   10.8766  -12.4666    0.0000 O   0  0  0  0  0  0  0  0  0  0  0  0
   12.1901  -10.1392    0.0000 O   0  0  0  0  0  0  0  0  0  0  0  0
   11.5218  -11.2914    0.0000 S   0  0  0  0  0  0  0  0  0  0  0  0
   19.5871    0.0000    0.0000 O   0  0  0  0  0  0  0  0  0  0  0  0
   18.2737   -1.3365    0.0000 O   0  0  0  0  0  0  0  0  0  0  0  0
   20.9237   -1.3365    0.0000 O   0  0  0  0  0  0  0  0  0  0  0  0
   19.5871   -1.3365    0.0000 S   0  0  0  0  0  0  0  0  0  0  0  0
   19.5871   -6.6596    0.0000 O   0  0  0  0  0  0  0  0  0  0  0  0
   20.7393   -3.3183    0.0000 C   0  0  0  0  0  0  0  0  0  0  0  0
   19.5871   -2.6500    0.0000 C   0  0  0  0  0  0  0  0  0  0  0  0
   18.4350   -3.3183    0.0000 C   0  0  0  0  0  0  0  0  0  0  0  0
   18.4350   -4.6548    0.0000 C   0  0  0  0  0  0  0  0  0  0  0  0
   19.5871   -5.3231    0.0000 C   0  0  0  0  0  0  0  0  0  0  0  0
   20.7393   -4.6548    0.0000 C   0  0  0  0  0  0  0  0  0  0  0  0
   17.2828   -5.3231    0.0000 C   0  0  0  0  0  0  0  0  0  0  0  0
   17.2828   -6.6596    0.0000 O   0  0  0  0  0  0  0  0  0  0  0  0
   16.1306   -4.6548    0.0000 N   0  0  0  0  0  0  0  0  0  0  0  0
   14.9784   -5.3231    0.0000 C   0  0  0  0  0  0  0  0  0  0  0  0
   13.8262   -4.6548    0.0000 C   0  0  0  0  0  0  0  0  0  0  0  0
   12.6740   -5.3231    0.0000 C   0  0  0  0  0  0  0  0  0  0  0  0
   12.6740   -6.6596    0.0000 C   0  0  0  0  0  0  0  0  0  0  0  0
   13.8262   -7.3049    0.0000 C   0  0  0  0  0  0  0  0  0  0  0  0
   14.9784   -6.6596    0.0000 C   0  0  0  0  0  0  0  0  0  0  0  0
   11.5218   -7.3049    0.0000 C   0  0  0  0  0  0  0  0  0  0  0  0
   11.5218   -8.6414    0.0000 C   0  0  0  0  0  0  0  0  0  0  0  0
   10.3697   -9.3097    0.0000 C   0  0  0  0  0  0  0  0  0  0  0  0
    9.2405   -8.6414    0.0000 C   0  0  0  0  0  0  0  0  0  0  0  0
    8.0883   -9.3097    0.0000 C   0  0  0  0  0  0  0  0  0  0  0  0
    8.0883  -10.6462    0.0000 C   0  0  0  0  0  0  0  0  0  0  0  0
    9.2405  -11.2914    0.0000 C   0  0  0  0  0  0  0  0  0  0  0  0
   10.3697  -10.6231    0.0000 C   0  0  0  0  0  0  0  0  0  0  0  0
    6.9362  -11.2914    0.0000 N   0  0  0  0  0  0  0  0  0  0  0  0
    5.7840  -10.6462    0.0000 C   0  0  0  0  0  0  0  0  0  0  0  0
    5.7840   -9.3097    0.0000 O   0  0  0  0  0  0  0  0  0  0  0  0
    4.6087  -11.2914    0.0000 C   0  0  0  0  0  0  0  0  0  0  0  0
    3.4566  -10.6462    0.0000 C   0  0  0  0  0  0  0  0  0  0  0  0
    2.3044  -11.2914    0.0000 C   0  0  0  0  0  0  0  0  0  0  0  0
    2.3044  -12.6279    0.0000 C   0  0  0  0  0  0  0  0  0  0  0  0
    3.4566  -13.2962    0.0000 C   0  0  0  0  0  0  0  0  0  0  0  0
    4.6087  -12.6279    0.0000 C   0  0  0  0  0  0  0  0  0  0  0  0
    3.4566  -14.6327    0.0000 S   0  0  0  0  0  0  0  0  0  0  0  0
    2.1431  -14.6327    0.0000 O   0  0  0  0  0  0  0  0  0  0  0  0
    4.7931  -14.6327    0.0000 O   0  0  0  0  0  0  0  0  0  0  0  0
    3.4566  -15.9693    0.0000 O   0  0  0  0  0  0  0  0  0  0  0  0
    1.1522  -13.2962    0.0000 C   0  0  0  0  0  0  0  0  0  0  0  0
    0.0000  -12.6279    0.0000 C   0  0  0  0  0  0  0  0  0  0  0  0
    0.0000  -11.2914    0.0000 C   0  0  0  0  0  0  0  0  0  0  0  0
    1.1522  -10.6462    0.0000 N   0  0  0  0  0  0  0  0  0  0  0  0
    3.4566   -9.3097    0.0000 O   0  0  0  0  0  0  0  0  0  0  0  0
   23.0437   -3.3183    0.0000 C   0  0  0  0  0  0  0  0  0  0  0  0
   21.8915   -2.6500    0.0000 C   0  0  0  0  0  0  0  0  0  0  0  0
   23.0437   -4.6548    0.0000 C   0  0  0  0  0  0  0  0  0  0  0  0
   21.8915   -5.3231    0.0000 N   0  0  0  0  0  0  0  0  0  0  0  0
  1  4  1  0  0  0  0
  2  4  2  0  0  0  0
  3  4  2  0  0  0  0
  4 25  1  0  0  0  0
  5  8  1  0  0  0  0
  6  8  2  0  0  0  0
  7  8  2  0  0  0  0
  8 36  1  0  0  0  0
  9 12  1  0  0  0  0
 10 12  2  0  0  0  0
 11 12  2  0  0  0  0
 12 15  1  0  0  0  0
 13 18  1  0  0  0  0
 14 15  2  0  0  0  0
 14 56  1  0  0  0  0
 14 19  1  0  0  0  0
 15 16  1  0  0  0  0
 16 17  2  0  0  0  0
 17 18  1  0  0  0  0
 17 20  1  0  0  0  0
 18 19  2  0  0  0  0
 19 58  1  0  0  0  0
 20 21  2  0  0  0  0
 20 22  1  0  0  0  0
 22 23  1  0  0  0  0
 23 24  1  0  0  0  0
 23 28  2  0  0  0  0
 24 25  2  0  0  0  0
 25 26  1  0  0  0  0
 26 27  2  0  0  0  0
 26 29  1  0  0  0  0
 27 28  1  0  0  0  0
 29 30  2  0  0  0  0
 30 31  1  0  0  0  0
 31 32  2  0  0  0  0
 31 36  1  0  0  0  0
 32 33  1  0  0  0  0
 33 34  2  0  0  0  0
 34 35  1  0  0  0  0
 34 37  1  0  0  0  0
 35 36  2  0  0  0  0
 37 38  1  0  0  0  0
 38 39  2  0  0  0  0
 38 40  1  0  0  0  0
 40 41  2  0  0  0  0
 40 45  1  0  0  0  0
 41 42  1  0  0  0  0
 41 54  1  0  0  0  0
 42 43  1  0  0  0  0
 42 53  2  0  0  0  0
 43 44  1  0  0  0  0
 43 50  2  0  0  0  0
 44 45  2  0  0  0  0
 44 46  1  0  0  0  0
 46 47  2  0  0  0  0
 46 48  2  0  0  0  0
 46 49  1  0  0  0  0
 50 51  1  0  0  0  0
 51 52  2  0  0  0  0
 52 53  1  0  0  0  0
 55 56  2  0  0  0  0
 55 57  1  0  0  0  0
 57 58  2  0  0  0  0
M  END
> <ID>
13753

> <Formula>
C34H24N4O16S4

> <FW>
872.8316

> <DSSTox_CID>
28689

> <DSSTox_RID>
82959

> <DSSTox_GSID>
48763

> <DSSTox_FileID_Sort>
7636

> <TS_ChemName>
Ubistatin A

> <TS_ChemName_Synonyms>


> <TS_CASRN>
759437-26-8

> <CASRN_ChemName_Relationship>
primary

> <TS_Description>
single chemical compound

> <ChemNote>
stereochem; parent CAS [71031-15-7]

> <STRUCTURE_Shown>
tested chemical

> <STRUCTURE_Formula>
C34H24N4O16S4

> <STRUCTURE_MW>
872.8316

> <STRUCTURE_ChemType>
defined organic

> <STRUCTURE_DefinedOrganicForm>
parent

> <STRUCTURE_IUPAC>
7,7'-{(E)-ethene-1,2-diylbis[(3-sulfobenzene-4,1-diyl)carbamoyl]}bis(8-hydroxyquinoline-5-sulfonic acid)

> <STRUCTURE_SMILES>
O=S(=O)(O)c1cc(c(O)c2ncccc12)C(=O)Nc6ccc(/C=C/c3ccc(cc3S(=O)(=O)O)NC(=O)c4cc(c5cccnc5c4O)S(=O)(=O)O)c(c6)S(=O)(=O)O

> <STRUCTURE_SMILES_Desalt>
O=S(=O)(O)c1cc(c(O)c2ncccc12)C(=O)Nc6ccc(/C=C/c3ccc(cc3S(=O)(=O)O)NC(=O)c4cc(c5cccnc5c4O)S(=O)(=O)O)c(c6)S(=O)(=O)O

> <Substance_modify_yyyymmdd>
20111204

$$$$
