75963-52-9
ChemmineR-0915142007XD

 19 21  0  0  0  0  0  0  0  0  1 V2000
   10.1098   -3.9934    0.0000 Cl   0  0  0  0  0  0  0  0  0  0  0  0
    8.9573   -3.3261    0.0000 C    0  0  0  0  0  0  0  0  0  0  0  0
    7.8048   -3.9934    0.0000 C    0  0  0  0  0  0  0  0  0  0  0  0
    6.6522   -3.3261    0.0000 C    0  0  0  0  0  0  0  0  0  0  0  0
    6.6522   -2.0017    0.0000 C    0  0  0  0  0  0  0  0  0  0  0  0
    5.4997   -1.3345    0.0000 C    0  0  0  0  0  0  0  0  0  0  0  0
    4.3472   -2.0017    0.0000 C    0  0  0  0  0  0  0  0  0  0  0  0
    4.3472   -3.3261    0.0000 C    0  0  0  0  0  0  0  0  0  0  0  0
    5.4997   -3.9934    0.0000 O    0  0  0  0  0  0  0  0  0  0  0  0
    3.1947   -3.9934    0.0000 N    0  0  0  0  0  0  0  0  0  0  0  0
    2.0422   -3.3261    0.0000 C    0  0  0  0  0  0  0  0  0  0  0  0
    0.7785   -3.7406    0.0000 S    0  0  0  0  0  0  0  0  0  0  0  0
    0.0000   -2.6589    0.0000 C    0  0  0  0  0  0  0  0  0  0  0  0
    0.7785   -1.5872    0.0000 C    0  0  0  0  0  0  0  0  0  0  0  0
    2.0422   -2.0017    0.0000 N    0  0  0  0  0  0  0  0  0  0  0  0
    3.1947   -1.3345    0.0000 C    0  0  0  0  0  0  0  0  0  0  0  0
    3.1947    0.0000    0.0000 O    0  0  0  0  0  0  0  0  0  0  0  0
    7.8048   -1.3345    0.0000 C    0  0  0  0  0  0  0  0  0  0  0  0
    8.9573   -2.0017    0.0000 C    0  0  0  0  0  0  0  0  0  0  0  0
  1  2  1  0  0  0  0
  2  3  2  0  0  0  0
  2 19  1  0  0  0  0
  3  4  1  0  0  0  0
  4  5  2  0  0  0  0
  5  6  1  0  0  0  0
  5 18  1  0  0  0  0
  6  7  1  0  0  0  0
  7  8  1  0  0  0  0
  7 16  1  0  0  0  0
  8  9  2  0  0  0  0
  8 10  1  0  0  0  0
 10 11  2  0  0  0  0
 11 12  1  0  0  0  0
 11 15  1  0  0  0  0
 12 13  1  0  0  0  0
 13 14  1  0  0  0  0
 14 15  1  0  0  0  0
 15 16  1  0  0  0  0
 16 17  2  0  0  0  0
 18 19  2  0  0  0  0
M  END
> <ID>
11504

> <Formula>
C13H11ClN2O2S

> <FW>
294.7566

> <DSSTox_CID>
26208

> <DSSTox_RID>
81437

> <DSSTox_GSID>
46208

> <DSSTox_FileID_Sort>
6118

> <TS_ChemName>
Nuclomedone

> <TS_ChemName_Synonyms>


> <TS_CASRN>
75963-52-9

> <CASRN_ChemName_Relationship>
primary

> <TS_Description>
single chemical compound

> <ChemNote>


> <STRUCTURE_Shown>
tested chemical

> <STRUCTURE_Formula>
C13H11ClN2O2S

> <STRUCTURE_MW>
294.7566

> <STRUCTURE_ChemType>
defined organic

> <STRUCTURE_DefinedOrganicForm>
parent

> <STRUCTURE_IUPAC>
6-(4-chlorobenzyl)-2,3-dihydro-5H-[1,3]thiazolo[3,2-a]pyrimidine-5,7(6H)-dione

> <STRUCTURE_SMILES>
Clc1ccc(cc1)CC3C(=O)N=C2SCCN2C3=O

> <STRUCTURE_SMILES_Desalt>
Clc1ccc(cc1)CC3C(=O)N=C2SCCN2C3=O

> <Substance_modify_yyyymmdd>
20110817

$$$$
