76-25-5
ChemmineR-0915142007XD

 33 37  0  0  1  0  0  0  0  0  1 V2000
    8.2043   -2.0076    0.0000 C   0  0  0  0  0  0  0  0  0  0  0  0
    6.9395   -2.4253    0.0000 C   0  0  0  0  0  0  0  0  0  0  0  0
    4.6650   -3.7366    0.0000 C   0  0  0  0  0  0  0  0  0  0  0  0
    3.4929   -4.3981    0.0000 C   0  0  0  0  0  0  0  0  0  0  0  0
    6.9395   -3.7366    0.0000 C   0  0  0  0  0  0  0  0  0  0  0  0
    5.7790   -4.4097    0.0000 C   0  0  0  0  0  0  0  0  0  0  0  0
    8.9934   -3.0984    0.0000 C   0  0  0  0  0  0  0  0  0  0  0  0
    3.4929   -5.7442    0.0000 C   0  0  0  0  0  0  0  0  0  0  0  0
    9.0050   -0.9516    0.0000 O   0  0  0  0  0  0  0  0  0  0  0  0
    4.6650   -2.4253    0.0000 C   0  0  0  0  0  0  0  0  0  0  0  0
    5.7790   -1.7639    0.0000 C   0  0  0  0  0  0  0  0  0  0  0  0
   10.2583   -1.3577    0.0000 C   0  0  0  0  0  0  0  0  0  0  0  0
   10.2583   -2.6922    0.0000 O   0  0  0  0  0  0  0  0  0  0  0  0
    2.3325   -3.7366    0.0000 C   0  0  0  0  0  0  0  0  0  0  0  0
    8.2043   -4.1428    0.0000 C   0  0  0  0  0  0  0  0  0  0  0  0
    8.2043   -0.6731    0.0000 C   0  0  0  0  0  0  0  0  0  0  0  0
    2.3325   -6.4289    0.0000 C   0  0  0  0  0  0  0  0  0  0  0  0
    5.7790   -5.7442    0.0000 C   0  0  0  0  0  0  0  0  0  0  0  0
    1.1720   -4.4097    0.0000 C   0  0  0  0  0  0  0  0  0  0  0  0
    1.1720   -5.7326    0.0000 C   0  0  0  0  0  0  0  0  0  0  0  0
    4.6650   -6.4289    0.0000 C   0  0  0  0  0  0  0  0  0  0  0  0
    4.6766   -5.0131    0.0000 F   0  0  0  0  0  0  0  0  0  0  0  0
    9.3880    0.0000    0.0000 O   0  0  0  0  0  0  0  0  0  0  0  0
    0.0000   -6.4173    0.0000 O   0  0  0  0  0  0  0  0  0  0  0  0
    6.9395   -1.0676    0.0000 C   0  0  0  0  0  0  0  0  0  0  0  0
    3.4929   -1.7523    0.0000 O   0  0  0  0  0  0  0  0  0  0  0  0
    3.4929   -3.0752    0.0000 C   0  0  0  0  0  0  0  0  0  0  0  0
    7.0671    0.0000    0.0000 C   0  0  0  0  0  0  0  0  0  0  0  0
   11.6044   -1.3577    0.0000 C   0  0  0  0  0  0  0  0  0  0  0  0
   10.6065   -0.0580    0.0000 C   0  0  0  0  0  0  0  0  0  0  0  0
    5.9067   -0.7079    0.0000 O   0  0  0  0  0  0  0  0  0  0  0  0
    5.7790   -3.1796    0.0000 H   0  0  0  0  0  0  0  0  0  0  0  0
    6.9395   -5.0711    0.0000 H   0  0  0  0  0  0  0  0  0  0  0  0
  1  2  1  0  0  0  0
  1  7  1  0  0  0  0
  1  9  1  6  0  0  0
  1 16  1  1  0  0  0
  2  5  1  0  0  0  0
  2 11  1  0  0  0  0
  2 25  1  1  0  0  0
  3 10  1  0  0  0  0
  3  4  1  0  0  0  0
  3 22  1  6  0  0  0
  3  6  1  0  0  0  0
  4  8  1  0  0  0  0
  4 14  1  0  0  0  0
  4 27  1  1  0  0  0
  5  6  1  0  0  0  0
  5 15  1  0  0  0  0
  5 33  1  6  0  0  0
  6 18  1  0  0  0  0
  6 32  1  1  0  0  0
  7 13  1  6  0  0  0
  7 15  1  0  0  0  0
  8 17  2  0  0  0  0
  8 21  1  0  0  0  0
  9 12  1  0  0  0  0
 10 11  1  0  0  0  0
 10 26  1  1  0  0  0
 12 29  1  0  0  0  0
 12 30  1  0  0  0  0
 12 13  1  0  0  0  0
 14 19  2  0  0  0  0
 16 23  2  0  0  0  0
 16 28  1  0  0  0  0
 17 20  1  0  0  0  0
 18 21  1  0  0  0  0
 19 20  1  0  0  0  0
 20 24  2  0  0  0  0
 28 31  1  0  0  0  0
M  END
> <ID>
1317

> <Formula>
C24H31FO6

> <FW>
434.4977

> <DSSTox_CID>
1371

> <DSSTox_RID>
76115

> <DSSTox_GSID>
21371

> <DSSTox_FileID_Sort>
799

> <TS_ChemName>
Triamcinolone acetonide

> <TS_ChemName_Synonyms>


> <TS_CASRN>
76-25-5

> <CASRN_ChemName_Relationship>
primary

> <TS_Description>
single chemical compound

> <ChemNote>
stereochem

> <STRUCTURE_Shown>
tested chemical

> <STRUCTURE_Formula>
C24H31FO6

> <STRUCTURE_MW>
434.4977

> <STRUCTURE_ChemType>
defined organic

> <STRUCTURE_DefinedOrganicForm>
parent

> <STRUCTURE_IUPAC>
(4aS,4bR,5S,6aS,6bS,9aR,10aS,10bS)-4b-fluoro-5-hydroxy-6b-(hydroxyacetyl)-4a,6a,8,8-tetramethyl-4a,4b,5,6,6a,6b,9a,10,10a,10b,11,12-dodecahydro-2H-naphtho[2',1':4,5]indeno[1,2-d][1,3]dioxol-2-one

> <STRUCTURE_SMILES>
OCC(=O)[C@@]54OC(C)(C)O[C@@H]5C[C@@H]3[C@]4(C)C[C@H](O)[C@@]2(F)[C@H]3CCC1=CC(=O)C=C[C@@]12C

> <STRUCTURE_SMILES_Desalt>
OCC(=O)[C@@]54OC(C)(C)O[C@@H]5C[C@@H]3[C@]4(C)C[C@H](O)[C@@]2(F)[C@H]3CCC1=CC(=O)C=C[C@@]12C

> <Substance_modify_yyyymmdd>
20080429

$$$$
