76-38-0
ChemmineR-0915142007XD

  8  7  0  0  0  0  0  0  0  0  1 V2000
    1.3305   -1.9958    0.0000 C    0  0  0  0  0  0  0  0  0  0  0  0
    1.3305   -3.3263    0.0000 F    0  0  0  0  0  0  0  0  0  0  0  0
    0.0000   -1.9958    0.0000 F    0  0  0  0  0  0  0  0  0  0  0  0
    2.6610   -1.9958    0.0000 O    0  0  0  0  0  0  0  0  0  0  0  0
    3.3263   -3.1466    0.0000 C    0  0  0  0  0  0  0  0  0  0  0  0
    1.3305   -0.6653    0.0000 C    0  0  0  0  0  0  0  0  0  0  0  0
    0.1796    0.0000    0.0000 Cl   0  0  0  0  0  0  0  0  0  0  0  0
    2.4814    0.0000    0.0000 Cl   0  0  0  0  0  0  0  0  0  0  0  0
  1  2  1  0  0  0  0
  1  3  1  0  0  0  0
  1  4  1  0  0  0  0
  1  6  1  0  0  0  0
  4  5  1  0  0  0  0
  6  7  1  0  0  0  0
  6  8  1  0  0  0  0
M  END
> <ID>
4263

> <Formula>
C3H4Cl2F2O

> <FW>
164.9661

> <DSSTox_CID>
5556

> <DSSTox_RID>
77827

> <DSSTox_GSID>
25556

> <DSSTox_FileID_Sort>
2510

> <TS_ChemName>
Methoxyflurane

> <TS_ChemName_Synonyms>


> <TS_CASRN>
76-38-0

> <CASRN_ChemName_Relationship>
primary

> <TS_Description>
single chemical compound

> <ChemNote>


> <STRUCTURE_Shown>
tested chemical

> <STRUCTURE_Formula>
C3H4Cl2F2O

> <STRUCTURE_MW>
164.9661

> <STRUCTURE_ChemType>
defined organic

> <STRUCTURE_DefinedOrganicForm>
parent

> <STRUCTURE_IUPAC>
2,2-dichloro-1,1-difluoroethyl methyl ether

> <STRUCTURE_SMILES>
ClC(Cl)C(F)(F)OC

> <STRUCTURE_SMILES_Desalt>
ClC(Cl)C(F)(F)OC

> <Substance_modify_yyyymmdd>
20080429

$$$$
