76-39-1
ChemmineR-0915142007XD

  8  7  0  0  0  0  0  0  0  0  2 V2000
    0.6571   -1.3309    0.0000 C   0  0  0  0  0  0  0  0  0  0  0  0
    1.9880   -1.3309    0.0000 C   0  0  0  0  0  0  0  0  0  0  0  0
    1.9880    0.0000    0.0000 C   0  0  0  0  0  0  0  0  0  0  0  0
    0.0000   -0.1759    0.0000 O   0  0  0  0  0  0  0  0  0  0  0  0
    3.3189   -1.3309    0.0000 C   0  0  0  0  0  0  0  0  0  0  0  0
    1.9880   -2.6618    0.0000 N   0  3  0  0  0  0  0  0  0  0  0  0
    3.1430   -3.3189    0.0000 O   0  5  0  0  0  0  0  0  0  0  0  0
    0.8330   -3.3189    0.0000 O   0  0  0  0  0  0  0  0  0  0  0  0
  1  2  1  0  0  0  0
  1  4  1  0  0  0  0
  2  3  1  0  0  0  0
  2  5  1  0  0  0  0
  2  6  1  0  0  0  0
  6  7  1  0  0  0  0
  6  8  2  0  0  0  0
M  END
> <ID>
4684

> <Formula>
C4H9NO3

> <FW>
119.1192

> <DSSTox_CID>
6436

> <DSSTox_RID>
78112

> <DSSTox_GSID>
26436

> <DSSTox_FileID_Sort>
2795

> <TS_ChemName>
2-Methyl-2-nitro-1-propanol

> <TS_ChemName_Synonyms>


> <TS_CASRN>
76-39-1

> <CASRN_ChemName_Relationship>
primary

> <TS_Description>
single chemical compound

> <ChemNote>


> <STRUCTURE_Shown>
tested chemical

> <STRUCTURE_Formula>
C4H9NO3

> <STRUCTURE_MW>
119.1192

> <STRUCTURE_ChemType>
defined organic

> <STRUCTURE_DefinedOrganicForm>
parent

> <STRUCTURE_IUPAC>
2-methyl-2-nitropropan-1-ol

> <STRUCTURE_SMILES>
[O-][N+](=O)C(C)(C)CO

> <STRUCTURE_SMILES_Desalt>
[O-][N+](=O)C(C)(C)CO

> <Substance_modify_yyyymmdd>
20080429

$$$$
