76-47-1
ChemmineR-0915142007XD

 38 41  0  0  1  0  0  0  0  0  1 V2000
    2.2060  -12.1459    0.0000 C   0  0  0  0  0  0  0  0  0  0  0  0
    2.3343  -10.8634    0.0000 C   0  0  0  0  0  0  0  0  0  0  0  0
    1.2954  -10.1067    0.0000 N   0  0  0  0  0  0  0  0  0  0  0  0
    0.1283  -10.6325    0.0000 C   0  0  0  0  0  0  0  0  0  0  0  0
    0.0000  -11.9023    0.0000 C   0  0  0  0  0  0  0  0  0  0  0  0
    1.4365   -8.8369    0.0000 C   0  0  0  0  0  0  0  0  0  0  0  0
    2.6164   -8.3111    0.0000 C   0  0  0  0  0  0  0  0  0  0  0  0
    3.6553   -9.0549    0.0000 O   0  0  0  0  0  0  0  0  0  0  0  0
    2.7447   -7.0413    0.0000 O   0  0  0  0  0  0  0  0  0  0  0  0
    3.9118   -6.5155    0.0000 C   0  0  0  0  0  0  0  0  0  0  0  0
    4.0529   -5.2329    0.0000 C   0  0  0  0  0  0  0  0  0  0  0  0
    3.0140   -4.4762    0.0000 O   0  0  0  0  0  0  0  0  0  0  0  0
    5.2201   -4.7199    0.0000 C   0  0  0  0  0  0  0  0  0  0  0  0
    4.3607   -3.7579    0.0000 O   0  0  0  0  0  0  0  0  0  0  0  0
    5.7459   -5.8742    0.0000 C   0  0  0  0  0  0  0  0  0  0  0  0
    7.0028   -5.7587    0.0000 C   0  0  0  0  0  0  0  0  0  0  0  0
    7.2722   -4.4890    0.0000 C   0  0  0  0  0  0  0  0  0  0  0  0
    7.9263   -5.6048    0.0000 H   0  0  0  0  0  0  0  0  0  0  0  0
    8.3880   -3.8477    0.0000 C   0  0  0  0  0  0  0  0  0  0  0  0
    8.6189   -5.1175    0.0000 H   0  0  0  0  0  0  0  0  0  0  0  0
    9.5038   -4.4890    0.0000 C   0  0  0  0  0  0  0  0  0  0  0  0
   10.6197   -3.8477    0.0000 C   0  0  0  0  0  0  0  0  0  0  0  0
   10.6197   -2.5651    0.0000 C   0  0  0  0  0  0  0  0  0  0  0  0
   11.7227   -1.9239    0.0000 C   0  0  0  0  0  0  0  0  0  0  0  0
   11.7099   -0.6541    0.0000 C   0  0  0  0  0  0  0  0  0  0  0  0
   12.8257    0.0000    0.0000 O   0  0  0  0  0  0  0  0  0  0  0  0
   10.6197    0.0000    0.0000 C   0  0  0  0  0  0  0  0  0  0  0  0
    9.5038   -0.6413    0.0000 C   0  0  0  0  0  0  0  0  0  0  0  0
    9.5038   -1.9239    0.0000 C   0  0  0  0  0  0  0  0  0  0  0  0
    8.6189   -0.0641    0.0000 C   0  0  0  0  0  0  0  0  0  0  0  0
    8.3880   -2.5651    0.0000 C   0  0  0  0  0  0  0  0  0  0  0  0
    8.1058   -1.1671    0.0000 H   0  0  0  0  0  0  0  0  0  0  0  0
    7.2850   -1.9367    0.0000 C   0  0  0  0  0  0  0  0  0  0  0  0
    6.7335   -0.2950    0.0000 H   0  0  0  0  0  0  0  0  0  0  0  0
    5.8998   -1.0645    0.0000 O   0  0  0  0  0  0  0  0  0  0  0  0
    6.1692   -2.5651    0.0000 C   0  0  0  0  0  0  0  0  0  0  0  0
    6.1692   -3.8477    0.0000 C   0  0  0  0  0  0  0  0  0  0  0  0
    5.1944   -2.6934    0.0000 C   0  0  0  0  0  0  0  0  0  0  0  0
  1  2  1  0  0  0  0
  2  3  1  0  0  0  0
  3  4  1  0  0  0  0
  3  6  1  0  0  0  0
  4  5  1  0  0  0  0
  6  7  1  0  0  0  0
  7  8  2  0  0  0  0
  7  9  1  0  0  0  0
  9 10  1  0  0  0  0
 10 11  1  0  0  0  0
 11 12  2  0  0  0  0
 13 11  1  6  0  0  0
 13 14  1  0  0  0  0
 13 15  1  0  0  0  0
 13 37  1  0  0  0  0
 15 16  1  0  0  0  0
 16 17  1  0  0  0  0
 17 18  1  1  0  0  0
 17 19  1  0  0  0  0
 17 37  1  0  0  0  0
 19 20  1  6  0  0  0
 19 21  1  0  0  0  0
 19 31  1  0  0  0  0
 21 22  1  0  0  0  0
 22 23  1  0  0  0  0
 23 24  2  0  0  0  0
 23 29  1  0  0  0  0
 24 25  1  0  0  0  0
 25 26  2  0  0  0  0
 25 27  1  0  0  0  0
 27 28  1  0  0  0  0
 28 29  1  0  0  0  0
 29 30  1  6  0  0  0
 29 31  1  0  0  0  0
 31 32  1  1  0  0  0
 31 33  1  0  0  0  0
 33 34  1  1  0  0  0
 33 35  1  0  0  0  0
 33 36  1  0  0  0  0
 36 37  1  0  0  0  0
 37 38  1  6  0  0  0
M  END
> <ID>
16222

> <Formula>
C27H41NO6

> <FW>
475.6175

> <DSSTox_CID>
31613

> <DSSTox_RID>
97497

> <DSSTox_GSID>
57824

> <DSSTox_FileID_Sort>
8564

> <TS_ChemName>
Hydrocortamate

> <TS_ChemName_Synonyms>


> <TS_CASRN>
76-47-1

> <CASRN_ChemName_Relationship>
primary

> <TS_Description>
single chemical compound

> <ChemNote>


> <STRUCTURE_Shown>
tested chemical

> <STRUCTURE_Formula>
C27H41NO6

> <STRUCTURE_MW>
475.6175

> <STRUCTURE_ChemType>
defined organic

> <STRUCTURE_DefinedOrganicForm>
parent

> <STRUCTURE_IUPAC>
(11beta)-11,17-dihydroxy-3,20-dioxopregn-4-en-21-yl N,N-diethylglycinate

> <STRUCTURE_SMILES>
CCN(CC)CC(=O)OCC(=O)[C@@]4(O)CC[C@@H]2[C@]4(C)C[C@H](O)[C@@H]1[C@@]3(C)CCC(=O)C=C3CC[C@H]12

> <STRUCTURE_SMILES_Desalt>
CCN(CC)CC(=O)OCC(=O)[C@@]4(O)CC[C@@H]2[C@]4(C)C[C@H](O)[C@@H]1[C@@]3(C)CCC(=O)C=C3CC[C@H]12

> <Substance_modify_yyyymmdd>
20131018

$$$$
