76-43-7
ChemmineR-0915142007XD

 26 29  0  0  1  0  0  0  0  0  1 V2000
    4.6769   -3.1433    0.0000 C   0  0  0  0  0  0  0  0  0  0  0  0
    7.0296   -1.7622    0.0000 C   0  0  0  0  0  0  0  0  0  0  0  0
    3.4957   -3.7910    0.0000 C   0  0  0  0  0  0  0  0  0  0  0  0
    5.8485   -3.7910    0.0000 C   0  0  0  0  0  0  0  0  0  0  0  0
    7.0296   -3.1433    0.0000 C   0  0  0  0  0  0  0  0  0  0  0  0
    3.4957   -5.1341    0.0000 C   0  0  0  0  0  0  0  0  0  0  0  0
    4.6769   -1.7622    0.0000 C   0  0  0  0  0  0  0  0  0  0  0  0
    5.8485   -1.0859    0.0000 C   0  0  0  0  0  0  0  0  0  0  0  0
    8.3250   -1.3430    0.0000 C   0  0  0  0  0  0  0  0  0  0  0  0
    2.3622   -5.8008    0.0000 C   0  0  0  0  0  0  0  0  0  0  0  0
    5.8485   -5.1341    0.0000 C   0  0  0  0  0  0  0  0  0  0  0  0
    2.3622   -3.1433    0.0000 C   0  0  0  0  0  0  0  0  0  0  0  0
    8.3250   -3.5148    0.0000 C   0  0  0  0  0  0  0  0  0  0  0  0
    4.6769   -5.8008    0.0000 C   0  0  0  0  0  0  0  0  0  0  0  0
    1.1811   -5.1341    0.0000 C   0  0  0  0  0  0  0  0  0  0  0  0
    9.1061   -2.4289    0.0000 C   0  0  0  0  0  0  0  0  0  0  0  0
    4.6673   -4.3530    0.0000 F   0  0  0  0  0  0  0  0  0  0  0  0
    0.0000   -5.8294    0.0000 O   0  0  0  0  0  0  0  0  0  0  0  0
    1.1811   -3.7910    0.0000 C   0  0  0  0  0  0  0  0  0  0  0  0
    3.5624   -1.1811    0.0000 O   0  0  0  0  0  0  0  0  0  0  0  0
    8.3250    0.0000    0.0000 O   0  0  0  0  0  0  0  0  0  0  0  0
    7.0296   -0.4001    0.0000 C   0  0  0  0  0  0  0  0  0  0  0  0
    3.4957   -2.4765    0.0000 C   0  0  0  0  0  0  0  0  0  0  0  0
    9.5252   -1.3430    0.0000 C   0  0  0  0  0  0  0  0  0  0  0  0
    5.8485   -2.5527    0.0000 H   0  0  0  0  0  0  0  0  0  0  0  0
    7.0296   -4.4673    0.0000 H   0  0  0  0  0  0  0  0  0  0  0  0
  1  3  1  0  0  0  0
  1  4  1  0  0  0  0
  1  7  1  0  0  0  0
  1 17  1  6  0  0  0
  2  8  1  0  0  0  0
  2  9  1  0  0  0  0
  2 22  1  1  0  0  0
  2  5  1  0  0  0  0
  3  6  1  0  0  0  0
  3 12  1  0  0  0  0
  3 23  1  1  0  0  0
  4  5  1  0  0  0  0
  4 11  1  0  0  0  0
  4 25  1  1  0  0  0
  5 13  1  0  0  0  0
  5 26  1  6  0  0  0
  6 10  2  0  0  0  0
  6 14  1  0  0  0  0
  7  8  1  0  0  0  0
  7 20  1  1  0  0  0
  9 21  1  0  0  0  0
  9 24  1  6  0  0  0
  9 16  1  0  0  0  0
 10 15  1  0  0  0  0
 11 14  1  0  0  0  0
 12 19  1  0  0  0  0
 13 16  1  0  0  0  0
 15 19  1  0  0  0  0
 15 18  2  0  0  0  0
M  END
> <ID>
6631

> <Formula>
C20H29FO3

> <FW>
336.4409

> <DSSTox_CID>
13512

> <DSSTox_RID>
79080

> <DSSTox_GSID>
33512

> <DSSTox_FileID_Sort>
3762

> <TS_ChemName>
Fluoxymestrone

> <TS_ChemName_Synonyms>
Fluoxymesterone

> <TS_CASRN>
76-43-7

> <CASRN_ChemName_Relationship>
primary

> <TS_Description>
single chemical compound

> <ChemNote>
stereochem

> <STRUCTURE_Shown>
tested chemical

> <STRUCTURE_Formula>
C20H29FO3

> <STRUCTURE_MW>
336.4409

> <STRUCTURE_ChemType>
defined organic

> <STRUCTURE_DefinedOrganicForm>
parent

> <STRUCTURE_IUPAC>
(11beta,17beta)-9-fluoro-11,17-dihydroxy-17-methylandrost-4-en-3-one

> <STRUCTURE_SMILES>
C[C@]4(O)CC[C@@H]2[C@]4(C)C[C@H](O)[C@]1(F)[C@@]3(C)CCC(=O)C=C3CC[C@H]12

> <STRUCTURE_SMILES_Desalt>
C[C@]4(O)CC[C@@H]2[C@]4(C)C[C@H](O)[C@]1(F)[C@@]3(C)CCC(=O)C=C3CC[C@H]12

> <Substance_modify_yyyymmdd>
20080429

$$$$
