76-58-4
ChemmineR-0915142007XD

 24 28  0  0  1  0  0  0  0  0  1 V2000
    2.6836   -2.2635    0.0000 C   0  0  0  0  0  0  0  0  0  0  0  0
    3.9868   -2.2635    0.0000 C   0  0  0  0  0  0  0  0  0  0  0  0
    2.0320   -3.4038    0.0000 C   0  0  0  0  0  0  0  0  0  0  0  0
    4.6299   -1.1489    0.0000 C   0  0  0  0  0  0  0  0  0  0  0  0
    2.0149   -1.1489    0.0000 C   0  0  0  0  0  0  0  0  0  0  0  0
    3.3695   -0.3601    0.0000 O   0  0  0  0  0  0  0  0  0  0  0  0
    2.6836   -4.5527    0.0000 C   0  0  0  0  0  0  0  0  0  0  0  0
    4.6470   -3.4038    0.0000 C   0  0  0  0  0  0  0  0  0  0  0  0
    0.7288   -3.4038    0.0000 C   0  0  0  0  0  0  0  0  0  0  0  0
    4.0040   -4.5184    0.0000 C   0  0  0  0  0  0  0  0  0  0  0  0
    2.0920   -5.1529    0.0000 N   0  0  0  0  0  0  0  0  0  0  0  0
    1.3718   -2.2806    0.0000 C   0  0  0  0  0  0  0  0  0  0  0  0
    0.0600   -2.2806    0.0000 C   0  0  0  0  0  0  0  0  0  0  0  0
    0.6945   -1.1489    0.0000 C   0  0  0  0  0  0  0  0  0  0  0  0
    5.9588   -1.1489    0.0000 C   0  0  0  0  0  0  0  0  0  0  0  0
    1.3718   -4.7842    0.0000 C   0  0  0  0  0  0  0  0  0  0  0  0
    5.9588   -3.4038    0.0000 C   0  0  0  0  0  0  0  0  0  0  0  0
    6.6190   -2.2806    0.0000 C   0  0  0  0  0  0  0  0  0  0  0  0
    0.0000   -0.0429    0.0000 O   0  0  0  0  0  0  0  0  0  0  0  0
    6.6190    0.0000    0.0000 O   0  0  0  0  0  0  0  0  0  0  0  0
    2.0920   -6.3961    0.0000 C   0  0  0  0  0  0  0  0  0  0  0  0
    7.9308    0.0000    0.0000 C   0  0  0  0  0  0  0  0  0  0  0  0
    8.5738   -1.0975    0.0000 C   0  0  0  0  0  0  0  0  0  0  0  0
    3.3609   -3.4038    0.0000 H   0  0  0  0  0  0  0  0  0  0  0  0
  1  2  1  0  0  0  0
  1  3  1  0  0  0  0
  1  5  1  0  0  0  0
  1 12  1  1  0  0  0
  2  4  1  0  0  0  0
  2  8  2  0  0  0  0
  3  7  1  0  0  0  0
  3  9  1  0  0  0  0
  3 24  1  1  0  0  0
  4 15  2  0  0  0  0
  4  6  1  0  0  0  0
  5  6  1  6  0  0  0
  5 14  1  0  0  0  0
  7 10  1  0  0  0  0
  7 11  1  1  0  0  0
  8 17  1  0  0  0  0
  8 10  1  0  0  0  0
  9 13  2  0  0  0  0
 11 16  1  0  0  0  0
 11 21  1  0  0  0  0
 12 16  1  0  0  0  0
 13 14  1  0  0  0  0
 14 19  1  6  0  0  0
 15 20  1  0  0  0  0
 15 18  1  0  0  0  0
 17 18  2  0  0  0  0
 20 22  1  0  0  0  0
 22 23  1  0  0  0  0
M  END
> <ID>
11948

> <Formula>
C19H23NO3

> <FW>
313.3908

> <DSSTox_CID>
26760

> <DSSTox_RID>
81884

> <DSSTox_GSID>
46760

> <DSSTox_FileID_Sort>
6565

> <TS_ChemName>
Ethylmorphine

> <TS_ChemName_Synonyms>


> <TS_CASRN>
76-58-4

> <CASRN_ChemName_Relationship>
primary

> <TS_Description>
single chemical compound

> <ChemNote>
stereochem

> <STRUCTURE_Shown>
tested chemical

> <STRUCTURE_Formula>
C19H23NO3

> <STRUCTURE_MW>
313.3908

> <STRUCTURE_ChemType>
defined organic

> <STRUCTURE_DefinedOrganicForm>
parent

> <STRUCTURE_IUPAC>
(5alpha,6alpha)-3-ethoxy-17-methyl-7,8-didehydro-4,5-epoxymorphinan-6-ol

> <STRUCTURE_SMILES>
CCOc1ccc2C[C@H]4N(C)CC[C@@]35[C@@H](Oc1c23)[C@@H](O)C=C[C@@H]45

> <STRUCTURE_SMILES_Desalt>
CCOc1ccc2C[C@H]4N(C)CC[C@@]35[C@@H](Oc1c23)[C@@H](O)C=C[C@@H]45

> <Substance_modify_yyyymmdd>
20080429

$$$$
