76-60-8
ChemmineR-0915142007XD

 31 34  0  0  0  0  0  0  0  0  1 V2000
    3.5624   -1.2348    0.0000 S    0  0  0  0  0  0  0  0  0  0  0  0
    3.5624   -3.3669    0.0000 C    0  0  0  0  0  0  0  0  0  0  0  0
    4.3442   -2.2742    0.0000 O    0  0  0  0  0  0  0  0  0  0  0  0
    2.3098   -2.9672    0.0000 C    0  0  0  0  0  0  0  0  0  0  0  0
    4.8594   -3.3669    0.0000 C    0  0  0  0  0  0  0  0  0  0  0  0
    3.5624   -4.6995    0.0000 C    0  0  0  0  0  0  0  0  0  0  0  0
    2.3098   -1.6346    0.0000 C    0  0  0  0  0  0  0  0  0  0  0  0
    5.5168   -2.2298    0.0000 C    0  0  0  0  0  0  0  0  0  0  0  0
    2.4075   -5.3569    0.0000 C    0  0  0  0  0  0  0  0  0  0  0  0
    6.8494   -2.2298    0.0000 C    0  0  0  0  0  0  0  0  0  0  0  0
    2.4075   -6.6806    0.0000 C    0  0  0  0  0  0  0  0  0  0  0  0
    7.5334   -3.3669    0.0000 C    0  0  0  0  0  0  0  0  0  0  0  0
    3.5624   -7.3558    0.0000 C    0  0  0  0  0  0  0  0  0  0  0  0
    5.5346   -4.5218    0.0000 C    0  0  0  0  0  0  0  0  0  0  0  0
    4.6817   -5.3569    0.0000 C    0  0  0  0  0  0  0  0  0  0  0  0
    4.6817   -6.6806    0.0000 C    0  0  0  0  0  0  0  0  0  0  0  0
    6.8494   -4.5218    0.0000 C    0  0  0  0  0  0  0  0  0  0  0  0
    4.3442   -0.1777    0.0000 O    0  0  0  0  0  0  0  0  0  0  0  0
    3.0827    0.0000    0.0000 O    0  0  0  0  0  0  0  0  0  0  0  0
    7.5334   -1.0749    0.0000 Br   0  0  0  0  0  0  0  0  0  0  0  0
    1.2171   -7.3380    0.0000 Br   0  0  0  0  0  0  0  0  0  0  0  0
    3.5624   -8.6883    0.0000 O    0  0  0  0  0  0  0  0  0  0  0  0
    8.8838   -3.3669    0.0000 O    0  0  0  0  0  0  0  0  0  0  0  0
    5.8544   -7.3735    0.0000 Br   0  0  0  0  0  0  0  0  0  0  0  0
    7.5334   -5.6856    0.0000 Br   0  0  0  0  0  0  0  0  0  0  0  0
    1.1727   -3.6246    0.0000 C    0  0  0  0  0  0  0  0  0  0  0  0
    4.8594   -1.0749    0.0000 C    0  0  0  0  0  0  0  0  0  0  0  0
    1.2171   -4.6995    0.0000 C    0  0  0  0  0  0  0  0  0  0  0  0
    1.1727   -0.9772    0.0000 C    0  0  0  0  0  0  0  0  0  0  0  0
    0.0000   -2.9761    0.0000 C    0  0  0  0  0  0  0  0  0  0  0  0
    0.0000   -1.5991    0.0000 C    0  0  0  0  0  0  0  0  0  0  0  0
  1  3  1  0  0  0  0
  1  7  1  0  0  0  0
  1 18  2  0  0  0  0
  1 19  2  0  0  0  0
  2  3  1  0  0  0  0
  2  5  1  0  0  0  0
  2  6  1  0  0  0  0
  2  4  1  0  0  0  0
  4  7  2  0  0  0  0
  4 26  1  0  0  0  0
  5  8  2  0  0  0  0
  5 14  1  0  0  0  0
  6  9  2  0  0  0  0
  6 15  1  0  0  0  0
  7 29  1  0  0  0  0
  8 10  1  0  0  0  0
  8 27  1  0  0  0  0
  9 11  1  0  0  0  0
  9 28  1  0  0  0  0
 10 20  1  0  0  0  0
 10 12  2  0  0  0  0
 11 21  1  0  0  0  0
 11 13  2  0  0  0  0
 12 17  1  0  0  0  0
 12 23  1  0  0  0  0
 13 16  1  0  0  0  0
 13 22  1  0  0  0  0
 14 17  2  0  0  0  0
 15 16  2  0  0  0  0
 16 24  1  0  0  0  0
 17 25  1  0  0  0  0
 26 30  2  0  0  0  0
 29 31  2  0  0  0  0
 30 31  1  0  0  0  0
M  END
> <ID>
10116

> <Formula>
C21H14Br4O5S

> <FW>
698.0139

> <DSSTox_CID>
24459

> <DSSTox_RID>
80245

> <DSSTox_GSID>
44459

> <DSSTox_FileID_Sort>
4927

> <TS_ChemName>
Bromcresol green

> <TS_ChemName_Synonyms>
Bromcresol green (Phenol, 4,4'-(3H-2,1-benzoxathiol- 3-ylidene)bis[2,6-dibromo-3-methyl-, S,S-dioxide)

> <TS_CASRN>
76-60-8

> <CASRN_ChemName_Relationship>
primary

> <TS_Description>
single chemical compound

> <ChemNote>


> <STRUCTURE_Shown>
tested chemical

> <STRUCTURE_Formula>
C21H14Br4O5S

> <STRUCTURE_MW>
698.0139

> <STRUCTURE_ChemType>
defined organic

> <STRUCTURE_DefinedOrganicForm>
parent

> <STRUCTURE_IUPAC>
4,4'-(1,1-dioxido-3H-2,1-benzoxathiole-3,3-diyl)bis(2,6-dibromo-3-methylphenol)

> <STRUCTURE_SMILES>
Brc1cc(c(C)c(Br)c1O)C3(OS(=O)(=O)c2ccccc23)c4cc(Br)c(O)c(Br)c4C

> <STRUCTURE_SMILES_Desalt>
Brc1cc(c(C)c(Br)c1O)C3(OS(=O)(=O)c2ccccc23)c4cc(Br)c(O)c(Br)c4C

> <Substance_modify_yyyymmdd>
20091116

$$$$
