76-90-4
ChemmineR-0915142007XD

 26 27  0  0  0  0  0  0  0  0  2 V2000
    0.0000   -3.9923    0.0000 C    0  0  0  0  0  0  0  0  0  0  0  0
    0.6654   -2.8410    0.0000 C    0  0  0  0  0  0  0  0  0  0  0  0
    1.9961   -2.8410    0.0000 C    0  0  0  0  0  0  0  0  0  0  0  0
    2.6615   -3.9923    0.0000 C    0  0  0  0  0  0  0  0  0  0  0  0
    3.9923   -3.9923    0.0000 C    0  0  0  0  0  0  0  0  0  0  0  0
    3.9923   -5.3230    0.0000 O    0  0  0  0  0  0  0  0  0  0  0  0
    5.3230   -3.9923    0.0000 C    0  0  0  0  0  0  0  0  0  0  0  0
    5.9884   -5.1435    0.0000 O    0  0  0  0  0  0  0  0  0  0  0  0
    5.9884   -2.8410    0.0000 O    0  0  0  0  0  0  0  0  0  0  0  0
    7.3191   -2.8410    0.0000 C    0  0  0  0  0  0  0  0  0  0  0  0
    7.9845   -1.6898    0.0000 C    0  0  0  0  0  0  0  0  0  0  0  0
    9.3153   -1.6898    0.0000 N    0  3  0  0  0  0  0  0  0  0  0  0
   10.5615   -1.2357    0.0000 C    0  0  0  0  0  0  0  0  0  0  0  0
    9.0829   -0.3802    0.0000 C    0  0  0  0  0  0  0  0  0  0  0  0
    9.9806   -2.8410    0.0000 C    0  0  0  0  0  0  0  0  0  0  0  0
    9.3153   -3.9923    0.0000 C    0  0  0  0  0  0  0  0  0  0  0  0
    7.9845   -3.9923    0.0000 C    0  0  0  0  0  0  0  0  0  0  0  0
    3.9923   -2.6615    0.0000 C    0  0  0  0  0  0  0  0  0  0  0  0
    2.8410   -1.9961    0.0000 C    0  0  0  0  0  0  0  0  0  0  0  0
    2.8410   -0.6654    0.0000 C    0  0  0  0  0  0  0  0  0  0  0  0
    3.9923    0.0000    0.0000 C    0  0  0  0  0  0  0  0  0  0  0  0
    5.1435   -0.6654    0.0000 C    0  0  0  0  0  0  0  0  0  0  0  0
    5.1435   -1.9961    0.0000 C    0  0  0  0  0  0  0  0  0  0  0  0
    1.9961   -5.1435    0.0000 C    0  0  0  0  0  0  0  0  0  0  0  0
    0.6654   -5.1435    0.0000 C    0  0  0  0  0  0  0  0  0  0  0  0
    5.3230   -6.6538    0.0000 Br   0  5  0  0  0  0  0  0  0  0  0  0
  1  2  2  0  0  0  0
  1 25  1  0  0  0  0
  2  3  1  0  0  0  0
  3  4  2  0  0  0  0
  4  5  1  0  0  0  0
  4 24  1  0  0  0  0
  5  6  1  0  0  0  0
  5  7  1  0  0  0  0
  5 18  1  0  0  0  0
  7  8  2  0  0  0  0
  7  9  1  0  0  0  0
  9 10  1  0  0  0  0
 10 11  1  0  0  0  0
 10 17  1  0  0  0  0
 11 12  1  0  0  0  0
 12 13  1  0  0  0  0
 12 14  1  0  0  0  0
 12 15  1  0  0  0  0
 15 16  1  0  0  0  0
 16 17  1  0  0  0  0
 18 19  2  0  0  0  0
 18 23  1  0  0  0  0
 19 20  1  0  0  0  0
 20 21  2  0  0  0  0
 21 22  1  0  0  0  0
 22 23  2  0  0  0  0
 24 25  2  0  0  0  0
M  END
> <ID>
2920

> <Formula>
C21H26BrNO3

> <FW>
420.3400 (340.4355+79.9045)

> <DSSTox_CID>
3252

> <DSSTox_RID>
76941

> <DSSTox_GSID>
23252

> <DSSTox_FileID_Sort>
1625

> <TS_ChemName>
Mepenzolate bromide

> <TS_ChemName_Synonyms>


> <TS_CASRN>
76-90-4

> <CASRN_ChemName_Relationship>
primary

> <TS_Description>
single chemical compound

> <ChemNote>
ammonium; parent [25990-43-6]

> <STRUCTURE_Shown>
tested chemical

> <STRUCTURE_Formula>
C21H26BrNO3

> <STRUCTURE_MW>
420.34

> <STRUCTURE_ChemType>
defined organic

> <STRUCTURE_DefinedOrganicForm>
salt

> <STRUCTURE_IUPAC>
3-{[hydroxy(diphenyl)acetyl]oxy}-1,1-dimethylpiperidinium bromide

> <STRUCTURE_SMILES>
[Br-].O=C(OC1CCC[N+](C)(C)C1)C(O)(c2ccccc2)c3ccccc3

> <STRUCTURE_SMILES_Desalt>
O=C(OC1CCC[N+](C)(C)C1)C(O)(c2ccccc2)c3ccccc3

> <Substance_modify_yyyymmdd>
20080429

$$$$
