7601-55-0
ChemmineR-0915142007XD

 52 56  0  0  1  0  0  0  0  0  2 V2000
    4.5370   -3.7037    0.0000 C   0  0  0  0  0  0  0  0  0  0  0  0
    4.5370   -4.9999    0.0000 C   0  0  0  0  0  0  0  0  0  0  0  0
    3.4105   -3.0401    0.0000 C   0  0  0  0  0  0  0  0  0  0  0  0
    3.4105   -5.6481    0.0000 C   0  0  0  0  0  0  0  0  0  0  0  0
    2.2839   -3.7037    0.0000 C   0  0  0  0  0  0  0  0  0  0  0  0
    2.2839   -4.9999    0.0000 C   0  0  0  0  0  0  0  0  0  0  0  0
    5.6789   -3.0401    0.0000 C   0  0  0  0  0  0  0  0  0  0  0  0
    5.6789   -1.7284    0.0000 N   0  3  0  0  0  0  0  0  0  0  0  0
    3.4105   -1.7284    0.0000 C   0  0  0  0  0  0  0  0  0  0  0  0
    4.5370   -1.0648    0.0000 C   0  0  0  0  0  0  0  0  0  0  0  0
    6.6820   -1.1420    0.0000 C   0  0  0  0  0  0  0  0  0  0  0  0
    5.7561    0.0000    0.0000 C   0  0  0  0  0  0  0  0  0  0  0  0
    6.8055   -3.6728    0.0000 C   0  0  0  0  0  0  0  0  0  0  0  0
    7.9474   -3.0401    0.0000 C   0  0  0  0  0  0  0  0  0  0  0  0
    5.6789   -4.3364    0.0000 H   0  0  0  0  0  0  0  0  0  0  0  0
   10.2159   -1.7284    0.0000 C   0  0  0  0  0  0  0  0  0  0  0  0
   10.2159   -3.0401    0.0000 C   0  0  0  0  0  0  0  0  0  0  0  0
    9.0740   -1.0648    0.0000 C   0  0  0  0  0  0  0  0  0  0  0  0
    9.0740   -3.6728    0.0000 C   0  0  0  0  0  0  0  0  0  0  0  0
    7.9474   -1.7284    0.0000 C   0  0  0  0  0  0  0  0  0  0  0  0
   11.3425   -1.0648    0.0000 O   0  0  0  0  0  0  0  0  0  0  0  0
   11.3425   -3.6728    0.0000 O   0  0  0  0  0  0  0  0  0  0  0  0
   12.4844   -1.7284    0.0000 C   0  0  0  0  0  0  0  0  0  0  0  0
   12.1449   -4.8919    0.0000 C   0  0  0  0  0  0  0  0  0  0  0  0
   13.4566   -4.8919    0.0000 C   0  0  0  0  0  0  0  0  0  0  0  0
   11.5122   -6.0339    0.0000 C   0  0  0  0  0  0  0  0  0  0  0  0
   14.1202   -6.0339    0.0000 C   0  0  0  0  0  0  0  0  0  0  0  0
   12.1449   -7.1604    0.0000 C   0  0  0  0  0  0  0  0  0  0  0  0
   13.4566   -7.1604    0.0000 C   0  0  0  0  0  0  0  0  0  0  0  0
   14.1202   -3.7500    0.0000 O   0  0  0  0  0  0  0  0  0  0  0  0
   15.4319   -3.7500    0.0000 C   0  0  0  0  0  0  0  0  0  0  0  0
   11.5122   -8.3024    0.0000 C   0  0  0  0  0  0  0  0  0  0  0  0
   12.1449   -9.4289    0.0000 N   0  3  0  0  0  0  0  0  0  0  0  0
   14.1202   -8.3024    0.0000 C   0  0  0  0  0  0  0  0  0  0  0  0
   13.4566   -9.4289    0.0000 C   0  0  0  0  0  0  0  0  0  0  0  0
   10.3548   -8.9659    0.0000 C   0  0  0  0  0  0  0  0  0  0  0  0
    9.2437   -8.3024    0.0000 C   0  0  0  0  0  0  0  0  0  0  0  0
   10.8178   -7.1604    0.0000 H   0  0  0  0  0  0  0  0  0  0  0  0
   11.2962  -10.3703    0.0000 C   0  0  0  0  0  0  0  0  0  0  0  0
   12.4381  -10.7406    0.0000 C   0  0  0  0  0  0  0  0  0  0  0  0
    9.2437   -6.9907    0.0000 C   0  0  0  0  0  0  0  0  0  0  0  0
    8.0863   -8.9659    0.0000 C   0  0  0  0  0  0  0  0  0  0  0  0
    8.0863   -6.3580    0.0000 C   0  0  0  0  0  0  0  0  0  0  0  0
    6.9752   -8.3024    0.0000 C   0  0  0  0  0  0  0  0  0  0  0  0
    6.9752   -6.9907    0.0000 C   0  0  0  0  0  0  0  0  0  0  0  0
    6.1265   -5.4629    0.0000 O   0  0  0  0  0  0  0  0  0  0  0  0
    3.4105   -6.9444    0.0000 O   0  0  0  0  0  0  0  0  0  0  0  0
    1.1265   -5.6481    0.0000 O   0  0  0  0  0  0  0  0  0  0  0  0
    4.5370   -7.6234    0.0000 C   0  0  0  0  0  0  0  0  0  0  0  0
    0.0000   -4.9999    0.0000 C   0  0  0  0  0  0  0  0  0  0  0  0
    0.9259   -2.1142    0.0000 I   0  5  0  0  0  0  0  0  0  0  0  0
    7.3765  -10.2622    0.0000 I   0  5  0  0  0  0  0  0  0  0  0  0
  1  2  1  0  0  0  0
  1  3  2  0  0  0  0
  1  7  1  0  0  0  0
  2  4  2  0  0  0  0
  2 46  1  0  0  0  0
  3  5  1  0  0  0  0
  3  9  1  0  0  0  0
  4  6  1  0  0  0  0
  4 47  1  0  0  0  0
  5  6  2  0  0  0  0
  6 48  1  0  0  0  0
  7  8  1  0  0  0  0
  7 13  1  0  0  0  0
  7 15  1  1  0  0  0
  8 10  1  0  0  0  0
  8 11  1  0  0  0  0
  8 12  1  0  0  0  0
  9 10  1  0  0  0  0
 13 14  1  0  0  0  0
 14 19  1  0  0  0  0
 14 20  2  0  0  0  0
 16 17  1  0  0  0  0
 16 18  2  0  0  0  0
 16 21  1  0  0  0  0
 17 19  2  0  0  0  0
 17 22  1  0  0  0  0
 18 20  1  0  0  0  0
 21 23  1  0  0  0  0
 22 24  1  0  0  0  0
 24 25  1  0  0  0  0
 24 26  2  0  0  0  0
 25 27  2  0  0  0  0
 25 30  1  0  0  0  0
 26 28  1  0  0  0  0
 27 29  1  0  0  0  0
 28 29  2  0  0  0  0
 28 32  1  0  0  0  0
 29 34  1  0  0  0  0
 30 31  1  0  0  0  0
 32 33  1  0  0  0  0
 32 36  1  0  0  0  0
 32 38  1  6  0  0  0
 33 35  1  0  0  0  0
 33 39  1  0  0  0  0
 33 40  1  0  0  0  0
 34 35  1  0  0  0  0
 36 37  1  0  0  0  0
 37 41  1  0  0  0  0
 37 42  2  0  0  0  0
 41 43  2  0  0  0  0
 42 44  1  0  0  0  0
 43 45  1  0  0  0  0
 44 45  2  0  0  0  0
 45 46  1  0  0  0  0
 47 49  1  0  0  0  0
 48 50  1  0  0  0  0
M  END
> <ID>
2651

> <Formula>
C40H48I2N2O6

> <FW>
906.6279 (652.8178+126.9050+126.9050)

> <DSSTox_CID>
2944

> <DSSTox_RID>
76799

> <DSSTox_GSID>
22944

> <DSSTox_FileID_Sort>
1483

> <TS_ChemName>
Metocurine iodide

> <TS_ChemName_Synonyms>
Dimethyltubocurarine iodide

> <TS_CASRN>
7601-55-0

> <CASRN_ChemName_Relationship>
primary

> <TS_Description>
single chemical compound

> <ChemNote>
ammonium; stereochem; parent [5152-30-7]

> <STRUCTURE_Shown>
tested chemical

> <STRUCTURE_Formula>
C40H48I2N2O6

> <STRUCTURE_MW>
906.6279

> <STRUCTURE_ChemType>
defined organic

> <STRUCTURE_DefinedOrganicForm>
salt

> <STRUCTURE_IUPAC>
6,6',7',12'-tetramethoxy-2,2,2',2'-tetramethyltubocuraran-2,2'-diium diiodide

> <STRUCTURE_SMILES>
[I-].[I-].COc7ccc1cc7Oc6cc5c(CC[N+](C)(C)[C@H]5Cc4ccc(Oc3c2c(CC[N+](C)(C)[C@@H]2C1)cc(OC)c3OC)cc4)cc6OC

> <STRUCTURE_SMILES_Desalt>
COc7ccc1cc7Oc6cc5c(CC[N+](C)(C)[C@H]5Cc4ccc(Oc3c2c(CC[N+](C)(C)[C@@H]2C1)cc(OC)c3OC)cc4)cc6OC

> <Substance_modify_yyyymmdd>
20080429

$$$$
