76150-91-9
ChemmineR-0915142007XD

 24 26  0  0  0  0  0  0  0  0  1 V2000
    4.6004   -2.6721    0.0000 O    0  0  0  0  0  0  0  0  0  0  0  0
    8.0300   -0.6749    0.0000 C    0  0  0  0  0  0  0  0  0  0  0  0
    8.0300   -1.9972    0.0000 C    0  0  0  0  0  0  0  0  0  0  0  0
    6.9006    0.0000    0.0000 C    0  0  0  0  0  0  0  0  0  0  0  0
    6.9006   -2.6721    0.0000 C    0  0  0  0  0  0  0  0  0  0  0  0
    5.7436   -0.6749    0.0000 C    0  0  0  0  0  0  0  0  0  0  0  0
    5.7436   -1.9972    0.0000 C    0  0  0  0  0  0  0  0  0  0  0  0
    3.4434   -0.6749    0.0000 C    0  0  0  0  0  0  0  0  0  0  0  0
    3.4434   -1.9972    0.0000 C    0  0  0  0  0  0  0  0  0  0  0  0
    2.3002    0.0000    0.0000 C    0  0  0  0  0  0  0  0  0  0  0  0
    2.3002   -2.6721    0.0000 N    0  0  0  0  0  0  0  0  0  0  0  0
    1.1432   -0.6749    0.0000 C    0  0  0  0  0  0  0  0  0  0  0  0
    1.1432   -1.9972    0.0000 C    0  0  0  0  0  0  0  0  0  0  0  0
    4.6004    0.0000    0.0000 Cl   0  0  0  0  0  0  0  0  0  0  0  0
    0.0000    0.0000    0.0000 Cl   0  0  0  0  0  0  0  0  0  0  0  0
    9.1732    0.0000    0.0000 O    0  0  0  0  0  0  0  0  0  0  0  0
   13.7736   -2.6721    0.0000 Cl   0  0  0  0  0  0  0  0  0  0  0  0
    9.1732   -2.6721    0.0000 Cl   0  0  0  0  0  0  0  0  0  0  0  0
   12.6304   -0.6749    0.0000 C    0  0  0  0  0  0  0  0  0  0  0  0
   12.6304   -1.9972    0.0000 C    0  0  0  0  0  0  0  0  0  0  0  0
   11.4734    0.0000    0.0000 N    0  0  0  0  0  0  0  0  0  0  0  0
   11.4734   -2.6721    0.0000 C    0  0  0  0  0  0  0  0  0  0  0  0
   10.3302   -0.6749    0.0000 C    0  0  0  0  0  0  0  0  0  0  0  0
   10.3302   -1.9972    0.0000 C    0  0  0  0  0  0  0  0  0  0  0  0
  1  7  1  0  0  0  0
  1  9  1  0  0  0  0
  2  3  1  0  0  0  0
  2  4  2  0  0  0  0
  2 16  1  0  0  0  0
  3  5  2  0  0  0  0
  4  6  1  0  0  0  0
  5  7  1  0  0  0  0
  6  7  2  0  0  0  0
  8  9  1  0  0  0  0
  8 10  2  0  0  0  0
  8 14  1  0  0  0  0
  9 11  2  0  0  0  0
 10 12  1  0  0  0  0
 11 13  1  0  0  0  0
 12 13  2  0  0  0  0
 12 15  1  0  0  0  0
 16 23  1  0  0  0  0
 17 20  1  0  0  0  0
 18 24  1  0  0  0  0
 19 20  1  0  0  0  0
 19 21  2  0  0  0  0
 20 22  2  0  0  0  0
 21 23  1  0  0  0  0
 22 24  1  0  0  0  0
 23 24  2  0  0  0  0
M  END
> <ID>
172

> <Formula>
C16H8Cl4N2O2

> <FW>
402.0589

> <DSSTox_CID>
175

> <DSSTox_RID>
75417

> <DSSTox_GSID>
20175

> <DSSTox_FileID_Sort>
101

> <TS_ChemName>
1,4-Bis[2-(3,5-dichloropyridyloxy)]benzene

> <TS_ChemName_Synonyms>
1,4-Bis[2-(3,5-dichloropyridyloxy)]benzene (TCPOBOP)

> <TS_CASRN>
76150-91-9

> <CASRN_ChemName_Relationship>
primary

> <TS_Description>
single chemical compound

> <ChemNote>


> <STRUCTURE_Shown>
tested chemical

> <STRUCTURE_Formula>
C16H8Cl4N2O2

> <STRUCTURE_MW>
402.0589

> <STRUCTURE_ChemType>
defined organic

> <STRUCTURE_DefinedOrganicForm>
parent

> <STRUCTURE_IUPAC>
2,2'-[benzene-1,4-diylbis(oxy)]bis(3,5-dichloropyridine)

> <STRUCTURE_SMILES>
Clc3cc(Cl)cnc3Oc1ccc(cc1)Oc2ncc(Cl)cc2Cl

> <STRUCTURE_SMILES_Desalt>
Clc3cc(Cl)cnc3Oc1ccc(cc1)Oc2ncc(Cl)cc2Cl

> <Substance_modify_yyyymmdd>
20080429

$$$$
