7617-74-5
ChemmineR-0915142007XD

 17 16  0  0  0  0  0  0  0  0  1 V2000
    0.0000   -0.6638    0.0000 C   0  0  0  0  0  0  0  0  0  0  0  0
    1.1433    0.0000    0.0000 C   0  0  0  0  0  0  0  0  0  0  0  0
    2.3050   -0.6638    0.0000 C   0  0  0  0  0  0  0  0  0  0  0  0
    3.4482    0.0000    0.0000 C   0  0  0  0  0  0  0  0  0  0  0  0
    4.6099   -0.6638    0.0000 C   0  0  0  0  0  0  0  0  0  0  0  0
    5.7716    0.0000    0.0000 C   0  0  0  0  0  0  0  0  0  0  0  0
    6.9149   -0.6638    0.0000 C   0  0  0  0  0  0  0  0  0  0  0  0
    8.0766    0.0000    0.0000 C   0  0  0  0  0  0  0  0  0  0  0  0
    9.2198   -0.6638    0.0000 C   0  0  0  0  0  0  0  0  0  0  0  0
   10.3631    0.0000    0.0000 C   0  0  0  0  0  0  0  0  0  0  0  0
   11.5248   -0.6638    0.0000 C   0  0  0  0  0  0  0  0  0  0  0  0
   12.6681    0.0000    0.0000 C   0  0  0  0  0  0  0  0  0  0  0  0
   13.8298   -0.6638    0.0000 O   0  0  0  0  0  0  0  0  0  0  0  0
   14.9915    0.0000    0.0000 C   0  0  0  0  0  0  0  0  0  0  0  0
   16.1347   -0.6638    0.0000 C   0  0  0  0  0  0  0  0  0  0  0  0
   17.2780    0.0000    0.0000 C   0  0  0  0  0  0  0  0  0  0  0  0
   18.4397   -0.6638    0.0000 N   0  0  0  0  0  0  0  0  0  0  0  0
  1  2  1  0  0  0  0
  2  3  1  0  0  0  0
  3  4  1  0  0  0  0
  4  5  1  0  0  0  0
  5  6  1  0  0  0  0
  6  7  1  0  0  0  0
  7  8  1  0  0  0  0
  8  9  1  0  0  0  0
  9 10  1  0  0  0  0
 10 11  1  0  0  0  0
 11 12  1  0  0  0  0
 12 13  1  0  0  0  0
 13 14  1  0  0  0  0
 14 15  1  0  0  0  0
 15 16  1  0  0  0  0
 16 17  1  0  0  0  0
M  END
> <ID>
11535

> <Formula>
C15H33NO

> <FW>
243.4286

> <DSSTox_CID>
26241

> <DSSTox_RID>
81468

> <DSSTox_GSID>
46241

> <DSSTox_FileID_Sort>
6149

> <TS_ChemName>
Laurixamine

> <TS_ChemName_Synonyms>


> <TS_CASRN>
7617-74-5

> <CASRN_ChemName_Relationship>
primary

> <TS_Description>
single chemical compound

> <ChemNote>


> <STRUCTURE_Shown>
tested chemical

> <STRUCTURE_Formula>
C15H33NO

> <STRUCTURE_MW>
243.4286

> <STRUCTURE_ChemType>
defined organic

> <STRUCTURE_DefinedOrganicForm>
parent

> <STRUCTURE_IUPAC>
3-(dodecyloxy)propan-1-amine

> <STRUCTURE_SMILES>
NCCCOCCCCCCCCCCCC

> <STRUCTURE_SMILES_Desalt>
NCCCOCCCCCCCCCCCC

> <Substance_modify_yyyymmdd>
20110817

$$$$
