762-75-4
ChemmineR-0915142007XD

  7  6  0  0  0  0  0  0  0  0  1 V2000
    2.3050   -1.8163    0.0000 O   0  0  0  0  0  0  0  0  0  0  0  0
    3.4575   -1.1525    0.0000 C   0  0  0  0  0  0  0  0  0  0  0  0
    4.1213   -2.3050    0.0000 C   0  0  0  0  0  0  0  0  0  0  0  0
    2.7936    0.0000    0.0000 C   0  0  0  0  0  0  0  0  0  0  0  0
    4.6099   -0.4887    0.0000 C   0  0  0  0  0  0  0  0  0  0  0  0
    1.1525   -1.1525    0.0000 C   0  0  0  0  0  0  0  0  0  0  0  0
    0.0000   -1.8163    0.0000 O   0  0  0  0  0  0  0  0  0  0  0  0
  1  2  1  0  0  0  0
  1  6  1  0  0  0  0
  2  3  1  0  0  0  0
  2  4  1  0  0  0  0
  2  5  1  0  0  0  0
  6  7  2  0  0  0  0
M  END
> <ID>
3811

> <Formula>
C5H10O2

> <FW>
102.1317

> <DSSTox_CID>
4690

> <DSSTox_RID>
77500

> <DSSTox_GSID>
24690

> <DSSTox_FileID_Sort>
2183

> <TS_ChemName>
tert-Butyl formate

> <TS_ChemName_Synonyms>


> <TS_CASRN>
762-75-4

> <CASRN_ChemName_Relationship>
primary

> <TS_Description>
single chemical compound

> <ChemNote>


> <STRUCTURE_Shown>
tested chemical

> <STRUCTURE_Formula>
C5H10O2

> <STRUCTURE_MW>
102.1317

> <STRUCTURE_ChemType>
defined organic

> <STRUCTURE_DefinedOrganicForm>
parent

> <STRUCTURE_IUPAC>
tert-butyl formate

> <STRUCTURE_SMILES>
CC(C)(C)OC=O

> <STRUCTURE_SMILES_Desalt>
CC(C)(C)OC=O

> <Substance_modify_yyyymmdd>
20080429

$$$$
