76283-09-5
ChemmineR-0915142007XD

 10 10  0  0  0  0  0  0  0  0  1 V2000
    3.9917   -3.4531    0.0000 F    0  0  0  0  0  0  0  0  0  0  0  0
    3.3274   -2.3040    0.0000 C    0  0  0  0  0  0  0  0  0  0  0  0
    3.9917   -1.1490    0.0000 C    0  0  0  0  0  0  0  0  0  0  0  0
    5.3203   -1.1490    0.0000 C    0  0  0  0  0  0  0  0  0  0  0  0
    5.9845    0.0000    0.0000 Br   0  0  0  0  0  0  0  0  0  0  0  0
    3.3274    0.0000    0.0000 C    0  0  0  0  0  0  0  0  0  0  0  0
    1.9929    0.0000    0.0000 C    0  0  0  0  0  0  0  0  0  0  0  0
    1.3286   -1.1490    0.0000 C    0  0  0  0  0  0  0  0  0  0  0  0
    1.9929   -2.3040    0.0000 C    0  0  0  0  0  0  0  0  0  0  0  0
    0.0000   -1.1490    0.0000 Br   0  0  0  0  0  0  0  0  0  0  0  0
  1  2  1  0  0  0  0
  2  3  2  0  0  0  0
  2  9  1  0  0  0  0
  3  4  1  0  0  0  0
  3  6  1  0  0  0  0
  4  5  1  0  0  0  0
  6  7  2  0  0  0  0
  7  8  1  0  0  0  0
  8  9  2  0  0  0  0
  8 10  1  0  0  0  0
M  END
> <ID>
16220

> <Formula>
C7H5Br2F

> <FW>
267.921

> <DSSTox_CID>
31611

> <DSSTox_RID>
97495

> <DSSTox_GSID>
57822

> <DSSTox_FileID_Sort>
8562

> <TS_ChemName>
4-Bromo-1-(bromomethyl)-2-fluoro-benzene

> <TS_ChemName_Synonyms>


> <TS_CASRN>
76283-09-5

> <CASRN_ChemName_Relationship>
primary

> <TS_Description>
single chemical compound

> <ChemNote>


> <STRUCTURE_Shown>
tested chemical

> <STRUCTURE_Formula>
C7H5Br2F

> <STRUCTURE_MW>
267.921

> <STRUCTURE_ChemType>
defined organic

> <STRUCTURE_DefinedOrganicForm>
parent

> <STRUCTURE_IUPAC>
4-bromo-1-(bromomethyl)-2-fluorobenzene

> <STRUCTURE_SMILES>
BrCc1ccc(Br)cc1F

> <STRUCTURE_SMILES_Desalt>
BrCc1ccc(Br)cc1F

> <Substance_modify_yyyymmdd>
20131018

$$$$
