764-41-0
ChemmineR-0915142007XD

  6  5  0  0  0  0  0  0  0  0  1 V2000
    0.0000   -0.6586    0.0000 Cl   0  0  0  0  0  0  0  0  0  0  0  0
    1.1555    0.0000    0.0000 C    0  0  0  0  0  0  0  0  0  0  0  0
    2.3109   -0.6586    0.0000 C    0  0  0  0  0  0  0  0  0  0  0  0
    3.4664    0.0000    0.0000 C    0  0  0  0  0  0  0  0  0  0  0  0
    4.6219   -0.6586    0.0000 C    0  0  0  0  0  0  0  0  0  0  0  0
    5.7774    0.0000    0.0000 Cl   0  0  0  0  0  0  0  0  0  0  0  0
  1  2  1  0  0  0  0
  2  3  1  0  0  0  0
  3  4  2  3  0  0  0
  4  5  1  0  0  0  0
  5  6  1  0  0  0  0
M  END
> <ID>
13211

> <Formula>
C4H6Cl2

> <FW>
124.9964

> <DSSTox_CID>
28123

> <DSSTox_RID>
78401

> <DSSTox_GSID>
27310

> <DSSTox_FileID_Sort>
3084

> <TS_ChemName>
1,4-Dichloro-2-butene

> <TS_ChemName_Synonyms>
1,4-Dichloro-2-butene (2-Butene, 1,4-dichloro-)

> <TS_CASRN>
764-41-0

> <CASRN_ChemName_Relationship>
primary

> <TS_Description>
mixture of Z,E isomers

> <ChemNote>
mixture of Z [1476-11-5],E [110-57-6] isomers

> <STRUCTURE_Shown>
representative isomer in mixture

> <STRUCTURE_Formula>
C4H6Cl2

> <STRUCTURE_MW>
124.9964

> <STRUCTURE_ChemType>
defined organic

> <STRUCTURE_DefinedOrganicForm>
parent

> <STRUCTURE_IUPAC>
1,4-dichlorobut-2-ene

> <STRUCTURE_SMILES>
ClCC=CCCl

> <STRUCTURE_SMILES_Desalt>
ClCC=CCCl

> <Substance_modify_yyyymmdd>
20080429

$$$$
