764-42-1
ChemmineR-0915142007XD

  6  5  0  0  0  0  0  0  0  0  1 V2000
    1.3286    0.0000    0.0000 C   0  0  0  0  0  0  0  0  0  0  0  0
    2.6573    0.0000    0.0000 C   0  0  0  0  0  0  0  0  0  0  0  0
    3.3276   -1.1551    0.0000 C   0  0  0  0  0  0  0  0  0  0  0  0
    4.6562   -1.1551    0.0000 C   0  0  0  0  0  0  0  0  0  0  0  0
    0.0000    0.0000    0.0000 N   0  0  0  0  0  0  0  0  0  0  0  0
    5.9848   -1.1551    0.0000 N   0  0  0  0  0  0  0  0  0  0  0  0
  1  2  1  0  0  0  0
  1  5  3  0  0  0  0
  2  3  2  0  0  0  0
  3  4  1  0  0  0  0
  4  6  3  0  0  0  0
M  END
> <ID>
4153

> <Formula>
C4H2N2

> <FW>
78.0721

> <DSSTox_CID>
5342

> <DSSTox_RID>
77757

> <DSSTox_GSID>
25342

> <DSSTox_FileID_Sort>
2440

> <TS_ChemName>
Fumaronitrile

> <TS_ChemName_Synonyms>


> <TS_CASRN>
764-42-1

> <CASRN_ChemName_Relationship>
primary

> <TS_Description>
single chemical compound

> <ChemNote>
stereochem

> <STRUCTURE_Shown>
tested chemical

> <STRUCTURE_Formula>
C4H2N2

> <STRUCTURE_MW>
78.0721

> <STRUCTURE_ChemType>
defined organic

> <STRUCTURE_DefinedOrganicForm>
parent

> <STRUCTURE_IUPAC>
(2E)-but-2-enedinitrile

> <STRUCTURE_SMILES>
N#C\C=C\C#N

> <STRUCTURE_SMILES_Desalt>
N#C\C=C\C#N

> <Substance_modify_yyyymmdd>
20080429

$$$$
