764-85-2
ChemmineR-0915142007XD

 11 10  0  0  0  0  0  0  0  0  1 V2000
   10.3774   -2.0028    0.0000 Cl   0  0  0  0  0  0  0  0  0  0  0  0
    9.2670   -1.3283    0.0000 C    0  0  0  0  0  0  0  0  0  0  0  0
    8.0944   -1.9925    0.0000 C    0  0  0  0  0  0  0  0  0  0  0  0
    6.9529   -1.3491    0.0000 C    0  0  0  0  0  0  0  0  0  0  0  0
    5.7906   -2.0236    0.0000 C    0  0  0  0  0  0  0  0  0  0  0  0
    4.6387   -1.3283    0.0000 C    0  0  0  0  0  0  0  0  0  0  0  0
    3.4764   -1.9925    0.0000 C    0  0  0  0  0  0  0  0  0  0  0  0
    2.3453   -1.3491    0.0000 C    0  0  0  0  0  0  0  0  0  0  0  0
    1.1830   -2.0028    0.0000 C    0  0  0  0  0  0  0  0  0  0  0  0
    0.0000   -1.3491    0.0000 C    0  0  0  0  0  0  0  0  0  0  0  0
    9.2670    0.0000    0.0000 O    0  0  0  0  0  0  0  0  0  0  0  0
  1  2  1  0  0  0  0
  2  3  1  0  0  0  0
  2 11  2  0  0  0  0
  3  4  1  0  0  0  0
  4  5  1  0  0  0  0
  5  6  1  0  0  0  0
  6  7  1  0  0  0  0
  7  8  1  0  0  0  0
  8  9  1  0  0  0  0
  9 10  1  0  0  0  0
M  END
> <ID>
9144

> <Formula>
C9H17ClO

> <FW>
176.6837

> <DSSTox_CID>
22215

> <DSSTox_RID>
79961

> <DSSTox_GSID>
42215

> <DSSTox_FileID_Sort>
4643

> <TS_ChemName>
Nonanoyl chloride

> <TS_ChemName_Synonyms>


> <TS_CASRN>
764-85-2

> <CASRN_ChemName_Relationship>
primary

> <TS_Description>
single chemical compound

> <ChemNote>


> <STRUCTURE_Shown>
tested chemical

> <STRUCTURE_Formula>
C9H17ClO

> <STRUCTURE_MW>
176.6837

> <STRUCTURE_ChemType>
defined organic

> <STRUCTURE_DefinedOrganicForm>
parent

> <STRUCTURE_IUPAC>
nonanoyl chloride

> <STRUCTURE_SMILES>
ClC(=O)CCCCCCCC

> <STRUCTURE_SMILES_Desalt>
ClC(=O)CCCCCCCC

> <Substance_modify_yyyymmdd>
20080825

$$$$
