76420-72-9
ChemmineR-0915142007XD

 25 26  0  0  1  0  0  0  0  0  1 V2000
    7.9220   -7.5847    0.0000 O   0  0  0  0  0  0  0  0  0  0  0  0
    5.7888   -6.0076    0.0000 N   0  0  0  0  0  0  0  0  0  0  0  0
    5.7888   -4.6766    0.0000 C   0  0  0  0  0  0  0  0  0  0  0  0
    6.8645   -6.8007    0.0000 C   0  0  0  0  0  0  0  0  0  0  0  0
    6.9284   -2.6619    0.0000 N   0  0  0  0  0  0  0  0  0  0  0  0
    6.9284   -4.0020    0.0000 C   0  0  0  0  0  0  0  0  0  0  0  0
    8.1317   -6.3814    0.0000 C   0  0  0  0  0  0  0  0  0  0  0  0
    5.7888   -0.6746    0.0000 C   0  0  0  0  0  0  0  0  0  0  0  0
    5.7888   -2.0056    0.0000 C   0  0  0  0  0  0  0  0  0  0  0  0
    4.6311   -4.0020    0.0000 O   0  0  0  0  0  0  0  0  0  0  0  0
    4.6311    0.0000    0.0000 O   0  0  0  0  0  0  0  0  0  0  0  0
    4.6311   -2.6619    0.0000 C   0  0  0  0  0  0  0  0  0  0  0  0
    4.6949   -6.8007    0.0000 C   0  0  0  0  0  0  0  0  0  0  0  0
    9.1163   -7.2839    0.0000 O   0  0  0  0  0  0  0  0  0  0  0  0
    6.9284    0.0000    0.0000 O   0  0  0  0  0  0  0  0  0  0  0  0
    3.4733   -2.0056    0.0000 C   0  0  0  0  0  0  0  0  0  0  0  0
    6.4452   -8.0679    0.0000 C   0  0  0  0  0  0  0  0  0  0  0  0
    2.3155   -2.6619    0.0000 C   0  0  0  0  0  0  0  0  0  0  0  0
    5.1142   -8.0679    0.0000 C   0  0  0  0  0  0  0  0  0  0  0  0
    8.0861   -4.6766    0.0000 C   0  0  0  0  0  0  0  0  0  0  0  0
    2.3155   -4.0020    0.0000 C   0  0  0  0  0  0  0  0  0  0  0  0
    1.1578   -2.0056    0.0000 C   0  0  0  0  0  0  0  0  0  0  0  0
    0.0000   -2.6619    0.0000 C   0  0  0  0  0  0  0  0  0  0  0  0
    1.1578   -4.6766    0.0000 C   0  0  0  0  0  0  0  0  0  0  0  0
    0.0000   -4.0020    0.0000 C   0  0  0  0  0  0  0  0  0  0  0  0
  1  7  2  0  0  0  0
  2  3  1  0  0  0  0
  2  4  1  0  0  0  0
  2 13  1  0  0  0  0
  3  6  1  0  0  0  0
  3 10  2  0  0  0  0
  4  7  1  6  0  0  0
  4 17  1  0  0  0  0
  6  5  1  1  0  0  0
  5  9  1  0  0  0  0
  6 20  1  0  0  0  0
  7 14  1  0  0  0  0
  9  8  1  6  0  0  0
  8 11  2  0  0  0  0
  8 15  1  0  0  0  0
  9 12  1  0  0  0  0
 12 16  1  0  0  0  0
 13 19  1  0  0  0  0
 16 18  1  0  0  0  0
 17 19  1  0  0  0  0
 18 21  2  0  0  0  0
 18 22  1  0  0  0  0
 21 24  1  0  0  0  0
 22 23  2  0  0  0  0
 23 25  1  0  0  0  0
 24 25  2  0  0  0  0
M  END
> <ID>
13963

> <Formula>
C18H24N2O5

> <FW>
348.3936

> <DSSTox_CID>
28901

> <DSSTox_RID>
83169

> <DSSTox_GSID>
48975

> <DSSTox_FileID_Sort>
7846

> <TS_ChemName>
Enalapril acid

> <TS_ChemName_Synonyms>


> <TS_CASRN>
76420-72-9

> <CASRN_ChemName_Relationship>
primary

> <TS_Description>
single chemical compound

> <ChemNote>


> <STRUCTURE_Shown>
tested chemical

> <STRUCTURE_Formula>
C18H24N2O5

> <STRUCTURE_MW>
348.3936

> <STRUCTURE_ChemType>
defined organic

> <STRUCTURE_DefinedOrganicForm>
parent

> <STRUCTURE_IUPAC>
N-[(1R)-1-carboxy-3-phenylpropyl]-L-alanyl-L-proline

> <STRUCTURE_SMILES>
OC(=O)[C@@H]2CCCN2C(=O)[C@H](C)N[C@H](CCc1ccccc1)C(=O)O

> <STRUCTURE_SMILES_Desalt>
OC(=O)[C@@H]2CCCN2C(=O)[C@H](C)N[C@H](CCc1ccccc1)C(=O)O

> <Substance_modify_yyyymmdd>
20111204

$$$$
