7642-64-0
ChemmineR-0915142007XD

 33 37  0  0  1  0  0  0  0  0  1 V2000
   14.2347   -2.8056    0.0000 C   0  0  0  0  0  0  0  0  0  0  0  0
   14.7663   -4.0164    0.0000 C   0  0  0  0  0  0  0  0  0  0  0  0
   12.9205   -2.9533    0.0000 C   0  0  0  0  0  0  0  0  0  0  0  0
   13.7770   -4.8876    0.0000 C   0  0  0  0  0  0  0  0  0  0  0  0
   12.6400   -4.2379    0.0000 O   0  0  0  0  0  0  0  0  0  0  0  0
    4.6809   -6.1723    0.0000 H   0  0  0  0  0  0  0  0  0  0  0  0
    6.9402   -5.7884    0.0000 H   0  0  0  0  0  0  0  0  0  0  0  0
    5.8179   -3.8983    0.0000 H   0  0  0  0  0  0  0  0  0  0  0  0
    3.1600   -3.8983    0.0000 H   0  0  0  0  0  0  0  0  0  0  0  0
   12.0345   -1.9492    0.0000 C   0  0  0  0  0  0  0  0  0  0  0  0
   10.7499   -2.2297    0.0000 C   0  0  0  0  0  0  0  0  0  0  0  0
   10.2626    0.0000    0.0000 O   0  0  0  0  0  0  0  0  0  0  0  0
    6.8959   -3.2043    0.0000 C   0  0  0  0  0  0  0  0  0  0  0  0
    6.8959   -4.5333    0.0000 C   0  0  0  0  0  0  0  0  0  0  0  0
    3.4553   -6.5119    0.0000 C   0  0  0  0  0  0  0  0  0  0  0  0
    5.7441   -5.1830    0.0000 C   0  0  0  0  0  0  0  0  0  0  0  0
    4.5923   -4.5333    0.0000 C   0  0  0  0  0  0  0  0  0  0  0  0
    3.4553   -5.1830    0.0000 C   0  0  0  0  0  0  0  0  0  0  0  0
    2.3035   -7.1764    0.0000 C   0  0  0  0  0  0  0  0  0  0  0  0
    5.7441   -2.5250    0.0000 C   0  0  0  0  0  0  0  0  0  0  0  0
    4.5923   -3.2043    0.0000 C   0  0  0  0  0  0  0  0  0  0  0  0
    5.7441   -6.5119    0.0000 C   0  0  0  0  0  0  0  0  0  0  0  0
    8.1510   -4.9319    0.0000 C   0  0  0  0  0  0  0  0  0  0  0  0
    2.3035   -4.5333    0.0000 C   0  0  0  0  0  0  0  0  0  0  0  0
    8.1510   -2.7908    0.0000 C   0  0  0  0  0  0  0  0  0  0  0  0
    4.5923   -7.1764    0.0000 C   0  0  0  0  0  0  0  0  0  0  0  0
    1.1518   -6.5119    0.0000 C   0  0  0  0  0  0  0  0  0  0  0  0
    8.9189   -3.8540    0.0000 C   0  0  0  0  0  0  0  0  0  0  0  0
    0.0000   -7.1764    0.0000 O   0  0  0  0  0  0  0  0  0  0  0  0
    1.1518   -5.1830    0.0000 C   0  0  0  0  0  0  0  0  0  0  0  0
    7.1174   -1.8901    0.0000 C   0  0  0  0  0  0  0  0  0  0  0  0
    8.5497   -1.5209    0.0000 O   0  0  0  0  0  0  0  0  0  0  0  0
    9.8491   -1.2551    0.0000 C   0  0  0  0  0  0  0  0  0  0  0  0
  1  2  1  0  0  0  0
  1  3  2  0  0  0  0
  2  4  2  0  0  0  0
  3  5  1  0  0  0  0
  3 10  1  0  0  0  0
  4  5  1  0  0  0  0
 17  6  1  6  0  0  0
 14  7  1  6  0  0  0
 16  8  1  1  0  0  0
 18  9  1  1  0  0  0
 10 11  1  0  0  0  0
 11 33  1  0  0  0  0
 12 33  2  0  0  0  0
 13 14  1  0  0  0  0
 13 20  1  0  0  0  0
 13 25  1  0  0  0  0
 13 31  1  1  0  0  0
 14 16  1  0  0  0  0
 14 23  1  0  0  0  0
 15 18  1  0  0  0  0
 15 19  2  0  0  0  0
 15 26  1  0  0  0  0
 16 22  1  0  0  0  0
 16 17  1  0  0  0  0
 17 21  1  0  0  0  0
 17 18  1  0  0  0  0
 18 24  1  0  0  0  0
 19 27  1  0  0  0  0
 20 21  1  0  0  0  0
 22 26  1  0  0  0  0
 23 28  1  0  0  0  0
 24 30  1  0  0  0  0
 25 28  1  0  0  0  0
 25 32  1  1  0  0  0
 27 30  1  0  0  0  0
 27 29  2  0  0  0  0
 32 33  1  0  0  0  0
M  END
> <ID>
16221

> <Formula>
C25H32O4

> <FW>
396.5192

> <DSSTox_CID>
31612

> <DSSTox_RID>
97496

> <DSSTox_GSID>
57823

> <DSSTox_FileID_Sort>
8563

> <TS_ChemName>
Nandrolone furylpropionate

> <TS_ChemName_Synonyms>


> <TS_CASRN>
7642-64-0

> <CASRN_ChemName_Relationship>
primary

> <TS_Description>
single chemical compound

> <ChemNote>


> <STRUCTURE_Shown>
tested chemical

> <STRUCTURE_Formula>
C25H32O4

> <STRUCTURE_MW>
396.5192

> <STRUCTURE_ChemType>
defined organic

> <STRUCTURE_DefinedOrganicForm>
parent

> <STRUCTURE_IUPAC>
(17beta)-3-oxoestr-4-en-17-yl 3-(2-furyl)propanoate

> <STRUCTURE_SMILES>
O=C4C=C5CC[C@@H]2[C@H](CC[C@]3(C)[C@@H](OC(=O)CCc1ccco1)CC[C@@H]23)[C@H]5CC4

> <STRUCTURE_SMILES_Desalt>
O=C4C=C5CC[C@@H]2[C@H](CC[C@]3(C)[C@@H](OC(=O)CCc1ccco1)CC[C@@H]23)[C@H]5CC4

> <Substance_modify_yyyymmdd>
20131121

$$$$
