7646-85-7
ChemmineR-0915142007XD

  3  2  0  0  0  0  0  0  0  0  1 V2000
    1.3332    0.0000    0.0000 Zn   0  0  0  0  0  0  0  0  0  0  0  0
    0.0000    0.0000    0.0000 Cl   0  0  0  0  0  0  0  0  0  0  0  0
    2.0078   -1.1425    0.0000 Cl   0  0  0  0  0  0  0  0  0  0  0  0
  1  2  1  0  0  0  0
  1  3  1  0  0  0  0
M  END
> <ID>
6981

> <Formula>
Cl2Zn

> <FW>
136.315

> <DSSTox_CID>
15013

> <DSSTox_RID>
79237

> <DSSTox_GSID>
35013

> <DSSTox_FileID_Sort>
3919

> <TS_ChemName>
Zinc chloride

> <TS_ChemName_Synonyms>
Zinc chloride (ZnCl2)

> <TS_CASRN>
7646-85-7

> <CASRN_ChemName_Relationship>
primary

> <TS_Description>
single chemical compound

> <ChemNote>


> <STRUCTURE_Shown>
tested chemical

> <STRUCTURE_Formula>
Cl2Zn

> <STRUCTURE_MW>
136.315

> <STRUCTURE_ChemType>
inorganic

> <STRUCTURE_DefinedOrganicForm>


> <STRUCTURE_IUPAC>
zinc dichloride

> <STRUCTURE_SMILES>
Cl[Zn]Cl

> <STRUCTURE_SMILES_Desalt>
Cl[Zn]Cl

> <Substance_modify_yyyymmdd>
20080429

$$$$
