7646-78-8
ChemmineR-0915142007XD

  5  4  0  0  0  0  0  0  0  0  1 V2000
      1.33     -1.33      0.00 Sn   0  0  0  0  0  0  0  0  0  0  0  0
      0.00     -1.33      0.00 Cl   0  0  0  0  0  0  0  0  0  0  0  0
      1.33     -2.66      0.00 Cl   0  0  0  0  0  0  0  0  0  0  0  0
      1.33      0.00      0.00 Cl   0  0  0  0  0  0  0  0  0  0  0  0
      2.66     -1.33      0.00 Cl   0  0  0  0  0  0  0  0  0  0  0  0
  1  2  1  0  0  0  0
  1  3  1  0  0  0  0
  1  4  1  0  0  0  0
  1  5  1  0  0  0  0
M  END
> <ID>
6126

> <Formula>
Cl4Sn

> <FW>
260.522

> <DSSTox_CID>
9679

> <DSSTox_RID>
78806

> <DSSTox_GSID>
29679

> <DSSTox_FileID_Sort>
3488

> <TS_ChemName>
Tetrachlorostannane

> <TS_ChemName_Synonyms>


> <TS_CASRN>
7646-78-8

> <CASRN_ChemName_Relationship>
primary

> <TS_Description>
single chemical compound

> <ChemNote>


> <STRUCTURE_Shown>
tested chemical

> <STRUCTURE_Formula>
Cl4Sn

> <STRUCTURE_MW>
260.522

> <STRUCTURE_ChemType>
inorganic

> <STRUCTURE_DefinedOrganicForm>


> <STRUCTURE_IUPAC>
tetrachlorostannane

> <STRUCTURE_SMILES>
Cl[Sn](Cl)(Cl)Cl

> <STRUCTURE_SMILES_Desalt>
Cl[Sn](Cl)(Cl)Cl

> <Substance_modify_yyyymmdd>
20080429

$$$$
