765-70-8
ChemmineR-0915142007XD

  8  8  0  0  0  0  0  0  0  0  1 V2000
    1.2556   -2.1270    0.0000 C   0  0  0  0  0  0  0  0  0  0  0  0
    2.3331   -1.3540    0.0000 C   0  0  0  0  0  0  0  0  0  0  0  0
    3.4294   -2.1270    0.0000 C   0  0  0  0  0  0  0  0  0  0  0  0
    2.9937   -3.3825    0.0000 C   0  0  0  0  0  0  0  0  0  0  0  0
    1.6913   -3.3825    0.0000 C   0  0  0  0  0  0  0  0  0  0  0  0
    0.0000   -1.6913    0.0000 O   0  0  0  0  0  0  0  0  0  0  0  0
    2.3331    0.0000    0.0000 O   0  0  0  0  0  0  0  0  0  0  0  0
    4.6850   -1.6913    0.0000 C   0  0  0  0  0  0  0  0  0  0  0  0
  1  2  1  0  0  0  0
  1  5  1  0  0  0  0
  1  6  2  0  0  0  0
  2  3  1  0  0  0  0
  2  7  2  0  0  0  0
  3  4  1  0  0  0  0
  3  8  1  0  0  0  0
  4  5  1  0  0  0  0
M  END
> <ID>
12830

> <Formula>
C6H8O2

> <FW>
112.1265

> <DSSTox_CID>
27709

> <DSSTox_RID>
82519

> <DSSTox_GSID>
47716

> <DSSTox_FileID_Sort>
7200

> <TS_ChemName>
3-Methyl-1,2-cyclopentanedione

> <TS_ChemName_Synonyms>


> <TS_CASRN>
765-70-8

> <CASRN_ChemName_Relationship>
primary

> <TS_Description>
single chemical compound

> <ChemNote>


> <STRUCTURE_Shown>
tested chemical

> <STRUCTURE_Formula>
C6H8O2

> <STRUCTURE_MW>
112.1265

> <STRUCTURE_ChemType>
defined organic

> <STRUCTURE_DefinedOrganicForm>
parent

> <STRUCTURE_IUPAC>
3-methylcyclopentane-1,2-dione

> <STRUCTURE_SMILES>
O=C1C(=O)CCC1C

> <STRUCTURE_SMILES_Desalt>
O=C1C(=O)CCC1C

> <Substance_modify_yyyymmdd>
20101216

$$$$
