765-15-1
ChemmineR-0915142007XD

 15 14  0  0  0  0  0  0  0  0  1 V2000
   13.7673   -1.3173    0.0000 S   0  0  0  0  0  0  0  0  0  0  0  0
   14.9079   -0.6426    0.0000 C   0  0  0  0  0  0  0  0  0  0  0  0
   16.0645    0.0000    0.0000 N   0  0  0  0  0  0  0  0  0  0  0  0
   12.6267   -0.6426    0.0000 C   0  0  0  0  0  0  0  0  0  0  0  0
   11.4701   -1.3173    0.0000 C   0  0  0  0  0  0  0  0  0  0  0  0
   10.3134   -0.6426    0.0000 C   0  0  0  0  0  0  0  0  0  0  0  0
    1.1566   -0.6426    0.0000 C   0  0  0  0  0  0  0  0  0  0  0  0
    2.2972   -1.3173    0.0000 C   0  0  0  0  0  0  0  0  0  0  0  0
    3.4378   -0.6426    0.0000 C   0  0  0  0  0  0  0  0  0  0  0  0
    4.5944   -1.3173    0.0000 C   0  0  0  0  0  0  0  0  0  0  0  0
    5.7350   -0.6426    0.0000 C   0  0  0  0  0  0  0  0  0  0  0  0
    6.8917   -1.3173    0.0000 C   0  0  0  0  0  0  0  0  0  0  0  0
    8.0322   -0.6426    0.0000 C   0  0  0  0  0  0  0  0  0  0  0  0
    9.1728   -1.3173    0.0000 C   0  0  0  0  0  0  0  0  0  0  0  0
    0.0000   -1.3173    0.0000 C   0  0  0  0  0  0  0  0  0  0  0  0
  1  2  1  0  0  0  0
  1  4  1  0  0  0  0
  2  3  3  0  0  0  0
  4  5  1  0  0  0  0
  5  6  1  0  0  0  0
  6 14  1  0  0  0  0
  7  8  1  0  0  0  0
  7 15  1  0  0  0  0
  8  9  1  0  0  0  0
  9 10  1  0  0  0  0
 10 11  1  0  0  0  0
 11 12  1  0  0  0  0
 12 13  1  0  0  0  0
 13 14  1  0  0  0  0
M  END
> <ID>
9021

> <Formula>
C13H25NS

> <FW>
227.4093

> <DSSTox_CID>
22089

> <DSSTox_RID>
79922

> <DSSTox_GSID>
42089

> <DSSTox_FileID_Sort>
4604

> <TS_ChemName>
Lauryl thiocyanate

> <TS_ChemName_Synonyms>


> <TS_CASRN>
765-15-1

> <CASRN_ChemName_Relationship>
primary

> <TS_Description>
single chemical compound

> <ChemNote>


> <STRUCTURE_Shown>
tested chemical

> <STRUCTURE_Formula>
C13H25NS

> <STRUCTURE_MW>
227.4093

> <STRUCTURE_ChemType>
defined organic

> <STRUCTURE_DefinedOrganicForm>
parent

> <STRUCTURE_IUPAC>
dodecyl thiocyanate

> <STRUCTURE_SMILES>
N#CSCCCCCCCCCCCC

> <STRUCTURE_SMILES_Desalt>
N#CSCCCCCCCCCCCC

> <Substance_modify_yyyymmdd>
20080825

$$$$
