76578-14-8
ChemmineR-0915142007XD

 26 28  0  0  0  0  0  0  0  0  1 V2000
    4.6209    0.0000    0.0000 N    0  0  0  0  0  0  0  0  0  0  0  0
    4.6209   -2.6497    0.0000 N    0  0  0  0  0  0  0  0  0  0  0  0
    5.7680   -0.6786    0.0000 C    0  0  0  0  0  0  0  0  0  0  0  0
    3.4576   -2.0035    0.0000 C    0  0  0  0  0  0  0  0  0  0  0  0
   12.6832   -0.6947    0.0000 C    0  0  0  0  0  0  0  0  0  0  0  0
    3.4576   -0.6786    0.0000 C    0  0  0  0  0  0  0  0  0  0  0  0
    2.3266   -2.6497    0.0000 C    0  0  0  0  0  0  0  0  0  0  0  0
   12.6832   -2.0196    0.0000 C    0  0  0  0  0  0  0  0  0  0  0  0
   11.5361   -2.6821    0.0000 O    0  0  0  0  0  0  0  0  0  0  0  0
    6.9313    0.0000    0.0000 O    0  0  0  0  0  0  0  0  0  0  0  0
   11.5522   -0.0323    0.0000 O    0  0  0  0  0  0  0  0  0  0  0  0
    5.7680   -2.0035    0.0000 C    0  0  0  0  0  0  0  0  0  0  0  0
    2.3266    0.0000    0.0000 C    0  0  0  0  0  0  0  0  0  0  0  0
    1.1633   -2.0035    0.0000 C    0  0  0  0  0  0  0  0  0  0  0  0
   10.3728   -2.0035    0.0000 C    0  0  0  0  0  0  0  0  0  0  0  0
    8.0623   -0.6786    0.0000 C    0  0  0  0  0  0  0  0  0  0  0  0
   13.8626   -0.0323    0.0000 O    0  0  0  0  0  0  0  0  0  0  0  0
    1.1633   -0.6786    0.0000 C    0  0  0  0  0  0  0  0  0  0  0  0
    0.0000   -2.6821    0.0000 Cl   0  0  0  0  0  0  0  0  0  0  0  0
    9.2095   -2.6497    0.0000 C    0  0  0  0  0  0  0  0  0  0  0  0
   10.3728   -0.6786    0.0000 C    0  0  0  0  0  0  0  0  0  0  0  0
    8.0623   -2.0035    0.0000 C    0  0  0  0  0  0  0  0  0  0  0  0
    9.2095    0.0000    0.0000 C    0  0  0  0  0  0  0  0  0  0  0  0
   13.8303   -2.6821    0.0000 C    0  0  0  0  0  0  0  0  0  0  0  0
   15.0259   -0.7271    0.0000 C    0  0  0  0  0  0  0  0  0  0  0  0
   16.1569   -0.0646    0.0000 C    0  0  0  0  0  0  0  0  0  0  0  0
  1  3  1  0  0  0  0
  1  6  2  0  0  0  0
  2  4  2  0  0  0  0
  2 12  1  0  0  0  0
  3 10  1  0  0  0  0
  3 12  2  0  0  0  0
  4  6  1  0  0  0  0
  4  7  1  0  0  0  0
  5  8  1  0  0  0  0
  5 11  2  0  0  0  0
  5 17  1  0  0  0  0
  6 13  1  0  0  0  0
  7 14  2  0  0  0  0
  8  9  1  0  0  0  0
  8 24  1  0  0  0  0
  9 15  1  0  0  0  0
 10 16  1  0  0  0  0
 13 18  2  0  0  0  0
 14 18  1  0  0  0  0
 14 19  1  0  0  0  0
 15 21  1  0  0  0  0
 15 20  2  0  0  0  0
 16 22  2  0  0  0  0
 16 23  1  0  0  0  0
 17 25  1  0  0  0  0
 20 22  1  0  0  0  0
 21 23  2  0  0  0  0
 25 26  1  0  0  0  0
M  END
> <ID>
3409

> <Formula>
C19H17ClN2O4

> <FW>
372.8023

> <DSSTox_CID>
3889

> <DSSTox_RID>
77219

> <DSSTox_GSID>
23889

> <DSSTox_FileID_Sort>
1902

> <TS_ChemName>
Quizalofop-ethyl

> <TS_ChemName_Synonyms>
Quizalofop-ethyl (Assure)

> <TS_CASRN>
76578-14-8

> <CASRN_ChemName_Relationship>
primary

> <TS_Description>
single chemical compound

> <ChemNote>


> <STRUCTURE_Shown>
tested chemical

> <STRUCTURE_Formula>
C19H17ClN2O4

> <STRUCTURE_MW>
372.8023

> <STRUCTURE_ChemType>
defined organic

> <STRUCTURE_DefinedOrganicForm>
parent

> <STRUCTURE_IUPAC>
ethyl 2-{4-[(6-chloroquinoxalin-2-yl)oxy]phenoxy}propanoate

> <STRUCTURE_SMILES>
O=C(OCC)C(C)Oc1ccc(cc1)Oc2cnc3cc(Cl)ccc3n2

> <STRUCTURE_SMILES_Desalt>
O=C(OCC)C(C)Oc1ccc(cc1)Oc2cnc3cc(Cl)ccc3n2

> <Substance_modify_yyyymmdd>
20080429

$$$$
