7659-86-1
ChemmineR-0915142007XD

 13 12  0  0  0  0  0  0  0  0  1 V2000
    5.7400   -1.3265    0.0000 C   0  0  0  0  0  0  0  0  0  0  0  0
    5.7400    0.0000    0.0000 O   0  0  0  0  0  0  0  0  0  0  0  0
    4.5904   -2.0018    0.0000 O   0  0  0  0  0  0  0  0  0  0  0  0
    6.8896   -2.0018    0.0000 C   0  0  0  0  0  0  0  0  0  0  0  0
    8.0393   -1.3265    0.0000 S   0  0  0  0  0  0  0  0  0  0  0  0
    3.4488   -1.3265    0.0000 C   0  0  0  0  0  0  0  0  0  0  0  0
    2.2992   -2.0018    0.0000 C   0  0  0  0  0  0  0  0  0  0  0  0
    2.2992   -3.3283    0.0000 C   0  0  0  0  0  0  0  0  0  0  0  0
    1.1496   -3.9794    0.0000 C   0  0  0  0  0  0  0  0  0  0  0  0
    1.1496   -5.3059    0.0000 C   0  0  0  0  0  0  0  0  0  0  0  0
    0.0000   -5.9812    0.0000 C   0  0  0  0  0  0  0  0  0  0  0  0
    1.1496   -1.3265    0.0000 C   0  0  0  0  0  0  0  0  0  0  0  0
    0.0000   -2.0018    0.0000 C   0  0  0  0  0  0  0  0  0  0  0  0
  1  2  2  0  0  0  0
  1  3  1  0  0  0  0
  1  4  1  0  0  0  0
  3  6  1  0  0  0  0
  4  5  1  0  0  0  0
  6  7  1  0  0  0  0
  7  8  1  0  0  0  0
  7 12  1  0  0  0  0
  8  9  1  0  0  0  0
  9 10  1  0  0  0  0
 10 11  1  0  0  0  0
 12 13  1  0  0  0  0
M  END
> <ID>
5328

> <Formula>
C10H20O2S

> <FW>
204.3296

> <DSSTox_CID>
7656

> <DSSTox_RID>
78544

> <DSSTox_GSID>
27656

> <DSSTox_FileID_Sort>
3227

> <TS_ChemName>
2-Ethylhexyl sulfanylacetate

> <TS_ChemName_Synonyms>
2-Ethylhexyl sulfanylacetate (Acetic acid, mercapto-, 2-ethylhexyl ester) (2-Ethylhexyl thioglycolate)

> <TS_CASRN>
7659-86-1

> <CASRN_ChemName_Relationship>
primary

> <TS_Description>
single chemical compound

> <ChemNote>


> <STRUCTURE_Shown>
tested chemical

> <STRUCTURE_Formula>
C10H20O2S

> <STRUCTURE_MW>
204.3296

> <STRUCTURE_ChemType>
defined organic

> <STRUCTURE_DefinedOrganicForm>
parent

> <STRUCTURE_IUPAC>
2-ethylhexyl sulfanylacetate

> <STRUCTURE_SMILES>
CCC(CCCC)COC(=O)CS

> <STRUCTURE_SMILES_Desalt>
CCC(CCCC)COC(=O)CS

> <Substance_modify_yyyymmdd>
20080429

$$$$
