765910-73-4
ChemmineR-0915142007XD

 19 18  0  0  0  0  0  0  0  0  2 V2000
    6.7912   -6.2012    0.0000 C   0  0  0  0  0  0  0  0  0  0  0  0
   10.3434   -3.6726    0.0000 C   0  0  0  0  0  0  0  0  0  0  0  0
   12.0412   -1.3245    0.0000 C   0  0  0  0  0  0  0  0  0  0  0  0
    6.6588   -4.8767    0.0000 C   0  0  0  0  0  0  0  0  0  0  0  0
    7.7304   -4.0940    0.0000 C   0  0  0  0  0  0  0  0  0  0  0  0
    7.5860   -2.7695    0.0000 C   0  0  0  0  0  0  0  0  0  0  0  0
    9.9340   -0.2529    0.0000 C   0  0  0  0  0  0  0  0  0  0  0  0
    8.6697   -0.6623    0.0000 C   0  0  0  0  0  0  0  0  0  0  0  0
    9.9340   -2.4082    0.0000 C   0  0  0  0  0  0  0  0  0  0  0  0
   10.7167   -1.3245    0.0000 N   0  3  0  0  0  0  0  0  0  0  0  0
    8.6697   -1.9988    0.0000 N   0  0  0  0  0  0  0  0  0  0  0  0
    1.3245   -1.3245    0.0000 C   0  0  0  0  0  0  0  0  0  0  0  0
    0.0000   -1.3245    0.0000 F   0  0  0  0  0  0  0  0  0  0  0  0
    1.3245   -2.6611    0.0000 F   0  0  0  0  0  0  0  0  0  0  0  0
    1.3245    0.0000    0.0000 F   0  0  0  0  0  0  0  0  0  0  0  0
    2.6611   -2.6611    0.0000 O   0  5  0  0  0  0  0  0  0  0  0  0
    2.6611    0.0000    0.0000 O   0  0  0  0  0  0  0  0  0  0  0  0
    3.9856   -1.3245    0.0000 O   0  0  0  0  0  0  0  0  0  0  0  0
    2.6611   -1.3245    0.0000 S   0  0  0  0  0  0  0  0  0  0  0  0
  1  4  1  0  0  0  0
  2  9  1  0  0  0  0
  3 10  1  0  0  0  0
  4  5  1  0  0  0  0
  5  6  1  0  0  0  0
  6 11  1  0  0  0  0
  7  8  2  0  0  0  0
  7 10  1  0  0  0  0
  8 11  1  0  0  0  0
  9 10  2  0  0  0  0
  9 11  1  0  0  0  0
 12 13  1  0  0  0  0
 12 14  1  0  0  0  0
 12 15  1  0  0  0  0
 12 19  1  0  0  0  0
 16 19  1  0  0  0  0
 17 19  2  0  0  0  0
 18 19  2  0  0  0  0
M  END
> <ID>
14220

> <Formula>
C10H17F3N2O3S

> <FW>
302.3138 (153.2441+149.0697)

> <DSSTox_CID>
29315

> <DSSTox_RID>
83431

> <DSSTox_GSID>
49356

> <DSSTox_FileID_Sort>
8106

> <TS_ChemName>
1-Butyl-2,3-dimethylimidazolium trifluoromethanesulfonate

> <TS_ChemName_Synonyms>


> <TS_CASRN>
765910-73-4

> <CASRN_ChemName_Relationship>
primary

> <TS_Description>
single chemical compound

> <ChemNote>


> <STRUCTURE_Shown>
tested chemical

> <STRUCTURE_Formula>
C10H17F3N2O3S

> <STRUCTURE_MW>
302.3138

> <STRUCTURE_ChemType>
defined organic

> <STRUCTURE_DefinedOrganicForm>
complex

> <STRUCTURE_IUPAC>
1-butyl-2,3-dimethyl-1H-imidazol-3-ium trifluoromethanesulfonate

> <STRUCTURE_SMILES>
CCCCn1cc[n+](C)c1C.FC(F)(F)S([O-])(=O)=O

> <STRUCTURE_SMILES_Desalt>
CCCCn1cc[n+](C)c1C

> <Substance_modify_yyyymmdd>
20111204

$$$$
