7664-93-9
ChemmineR-0915142007XD

  5  4  0  0  0  0  0  0  0  0  1 V2000
      1.33     -1.33      0.00 S   0  0  0  0  0  0  0  0  0  0  0  0
      2.66     -1.33      0.00 O   0  0  0  0  0  0  0  0  0  0  0  0
      1.33      0.00      0.00 O   0  0  0  0  0  0  0  0  0  0  0  0
      1.33     -2.66      0.00 O   0  0  0  0  0  0  0  0  0  0  0  0
      0.00     -1.33      0.00 O   0  0  0  0  0  0  0  0  0  0  0  0
  1  2  2  0  0  0  0
  1  3  2  0  0  0  0
  1  4  1  0  0  0  0
  1  5  1  0  0  0  0
M  END
> <ID>
6127

> <Formula>
H2O4S

> <FW>
98.0785

> <DSSTox_CID>
9683

> <DSSTox_RID>
78807

> <DSSTox_GSID>
29683

> <DSSTox_FileID_Sort>
3489

> <TS_ChemName>
Sulfuric acid

> <TS_ChemName_Synonyms>


> <TS_CASRN>
7664-93-9

> <CASRN_ChemName_Relationship>
primary

> <TS_Description>
single chemical compound

> <ChemNote>


> <STRUCTURE_Shown>
tested chemical

> <STRUCTURE_Formula>
H2O4S

> <STRUCTURE_MW>
98.0785

> <STRUCTURE_ChemType>
inorganic

> <STRUCTURE_DefinedOrganicForm>


> <STRUCTURE_IUPAC>
sulfuric acid

> <STRUCTURE_SMILES>
O=S(=O)(O)O

> <STRUCTURE_SMILES_Desalt>
O=S(=O)(O)O

> <Substance_modify_yyyymmdd>
20080429

$$$$
