7664-38-2
ChemmineR-0915142007XD

  5  4  0  0  0  0  0  0  0  0  1 V2000
      1.33     -1.33      0.00 P   0  0  0  0  0  0  0  0  0  0  0  0
      1.33      0.00      0.00 O   0  0  0  0  0  0  0  0  0  0  0  0
      2.66     -1.33      0.00 O   0  0  0  0  0  0  0  0  0  0  0  0
      0.00     -1.33      0.00 O   0  0  0  0  0  0  0  0  0  0  0  0
      1.33     -2.66      0.00 O   0  0  0  0  0  0  0  0  0  0  0  0
  1  2  2  0  0  0  0
  1  3  1  0  0  0  0
  1  4  1  0  0  0  0
  1  5  1  0  0  0  0
M  END
> <ID>
3590

> <Formula>
H3O4P

> <FW>
97.9952

> <DSSTox_CID>
4263

> <DSSTox_RID>
77346

> <DSSTox_GSID>
24263

> <DSSTox_FileID_Sort>
2029

> <TS_ChemName>
Phosphoric acid

> <TS_ChemName_Synonyms>
Phosphoric acid Divosan X-Tend formulation

> <TS_CASRN>
7664-38-2

> <CASRN_ChemName_Relationship>
primary

> <TS_Description>
single chemical compound

> <ChemNote>


> <STRUCTURE_Shown>
tested chemical

> <STRUCTURE_Formula>
H3O4P

> <STRUCTURE_MW>
97.9952

> <STRUCTURE_ChemType>
inorganic

> <STRUCTURE_DefinedOrganicForm>


> <STRUCTURE_IUPAC>
phosphoric acid

> <STRUCTURE_SMILES>
O=P(O)(O)O

> <STRUCTURE_SMILES_Desalt>
O=P(O)(O)O

> <Substance_modify_yyyymmdd>
20080429

$$$$
