76674-21-0
ChemmineR-0915142007XD

 22 24  0  0  0  0  0  0  0  0  1 V2000
    3.4448   -3.3130    0.0000 C   0  0  0  0  0  0  0  0  0  0  0  0
    3.4448   -4.6399    0.0000 C   0  0  0  0  0  0  0  0  0  0  0  0
    0.0000   -0.5536    0.0000 N   0  0  0  0  0  0  0  0  0  0  0  0
    1.4500   -2.1530    0.0000 N   0  0  0  0  0  0  0  0  0  0  0  0
    2.1178   -0.9930    0.0000 N   0  0  0  0  0  0  0  0  0  0  0  0
    2.1178   -3.3130    0.0000 C   0  0  0  0  0  0  0  0  0  0  0  0
    1.2215    0.0000    0.0000 C   0  0  0  0  0  0  0  0  0  0  0  0
    0.1494   -1.8718    0.0000 C   0  0  0  0  0  0  0  0  0  0  0  0
    4.7893   -3.3130    0.0000 C   0  0  0  0  0  0  0  0  0  0  0  0
    2.2936   -5.3078    0.0000 C   0  0  0  0  0  0  0  0  0  0  0  0
    3.4448   -1.9772    0.0000 O   0  0  0  0  0  0  0  0  0  0  0  0
    5.4572   -4.4642    0.0000 C   0  0  0  0  0  0  0  0  0  0  0  0
    5.4572   -2.1530    0.0000 C   0  0  0  0  0  0  0  0  0  0  0  0
    7.4520   -3.3130    0.0000 C   0  0  0  0  0  0  0  0  0  0  0  0
    1.2391   -4.6839    0.0000 F   0  0  0  0  0  0  0  0  0  0  0  0
    6.7841   -4.4642    0.0000 C   0  0  0  0  0  0  0  0  0  0  0  0
    6.7841   -2.1530    0.0000 C   0  0  0  0  0  0  0  0  0  0  0  0
    8.7877   -3.3130    0.0000 F   0  0  0  0  0  0  0  0  0  0  0  0
    4.6048   -5.3078    0.0000 C   0  0  0  0  0  0  0  0  0  0  0  0
    2.2936   -6.6523    0.0000 C   0  0  0  0  0  0  0  0  0  0  0  0
    4.6048   -6.6523    0.0000 C   0  0  0  0  0  0  0  0  0  0  0  0
    3.4448   -7.3114    0.0000 C   0  0  0  0  0  0  0  0  0  0  0  0
  1  2  1  0  0  0  0
  1  6  1  0  0  0  0
  1  9  1  0  0  0  0
  1 11  1  0  0  0  0
  2 10  2  0  0  0  0
  2 19  1  0  0  0  0
  3  8  2  0  0  0  0
  3  7  1  0  0  0  0
  4  6  1  0  0  0  0
  4  5  1  0  0  0  0
  4  8  1  0  0  0  0
  5  7  2  0  0  0  0
  9 12  1  0  0  0  0
  9 13  2  0  0  0  0
 10 15  1  0  0  0  0
 10 20  1  0  0  0  0
 12 16  2  0  0  0  0
 13 17  1  0  0  0  0
 14 17  2  0  0  0  0
 14 18  1  0  0  0  0
 14 16  1  0  0  0  0
 19 21  2  0  0  0  0
 20 22  2  0  0  0  0
 21 22  1  0  0  0  0
M  END
> <ID>
7923

> <Formula>
C16H13F2N3O

> <FW>
301.2907

> <DSSTox_CID>
20727

> <DSSTox_RID>
79574

> <DSSTox_GSID>
40727

> <DSSTox_FileID_Sort>
4256

> <TS_ChemName>
Flutriafol

> <TS_ChemName_Synonyms>


> <TS_CASRN>
76674-21-0

> <CASRN_ChemName_Relationship>
primary

> <TS_Description>
single chemical compound

> <ChemNote>


> <STRUCTURE_Shown>
tested chemical

> <STRUCTURE_Formula>
C16H13F2N3O

> <STRUCTURE_MW>
301.2907

> <STRUCTURE_ChemType>
defined organic

> <STRUCTURE_DefinedOrganicForm>
parent

> <STRUCTURE_IUPAC>
1-(2-fluorophenyl)-1-(4-fluorophenyl)-2-(1H-1,2,4-triazol-1-yl)ethanol

> <STRUCTURE_SMILES>
OC(Cn1cncn1)(c2ccccc2F)c3ccc(F)cc3

> <STRUCTURE_SMILES_Desalt>
OC(Cn1cncn1)(c2ccccc2F)c3ccc(F)cc3

> <Substance_modify_yyyymmdd>
20080429

$$$$
