76738-96-0
ChemmineR-0915142007XD

 34 37  0  0  1  0  0  0  0  0  1 V2000
    4.6186   -5.1456    0.0000 C   0  0  0  0  0  0  0  0  0  0  0  0
    3.4951   -5.7975    0.0000 C   0  0  0  0  0  0  0  0  0  0  0  0
    5.7836   -5.7975    0.0000 C   0  0  0  0  0  0  0  0  0  0  0  0
    6.9348   -5.1179    0.0000 C   0  0  0  0  0  0  0  0  0  0  0  0
    6.9348   -3.8003    0.0000 C   0  0  0  0  0  0  0  0  0  0  0  0
    4.6186   -3.8141    0.0000 C   0  0  0  0  0  0  0  0  0  0  0  0
    5.7836   -7.1013    0.0000 C   0  0  0  0  0  0  0  0  0  0  0  0
    3.4951   -7.1290    0.0000 C   0  0  0  0  0  0  0  0  0  0  0  0
    5.7836   -3.1484    0.0000 C   0  0  0  0  0  0  0  0  0  0  0  0
    4.6186   -7.7809    0.0000 C   0  0  0  0  0  0  0  0  0  0  0  0
    3.4951   -4.4799    0.0000 C   0  0  0  0  0  0  0  0  0  0  0  0
    2.3440   -5.1456    0.0000 C   0  0  0  0  0  0  0  0  0  0  0  0
    6.9626   -2.4827    0.0000 C   0  0  0  0  0  0  0  0  0  0  0  0
    2.3440   -7.8086    0.0000 C   0  0  0  0  0  0  0  0  0  0  0  0
    1.1650   -5.8114    0.0000 C   0  0  0  0  0  0  0  0  0  0  0  0
    1.1650   -7.1013    0.0000 C   0  0  0  0  0  0  0  0  0  0  0  0
    5.7836   -4.4105    0.0000 H   0  0  0  0  0  0  0  0  0  0  0  0
    4.6186   -6.5049    0.0000 H   0  0  0  0  0  0  0  0  0  0  0  0
    6.9348   -6.5049    0.0000 H   0  0  0  0  0  0  0  0  0  0  0  0
    0.0000   -7.7670    0.0000 O   0  0  0  0  0  0  0  0  0  0  0  0
    3.4674   -3.1484    0.0000 O   0  0  0  0  0  0  0  0  0  0  0  0
    8.1970   -5.5062    0.0000 C   0  0  0  0  0  0  0  0  0  0  0  0
    8.9598   -4.4522    0.0000 C   0  0  0  0  0  0  0  0  0  0  0  0
    8.1970   -3.3842    0.0000 C   0  0  0  0  0  0  0  0  0  0  0  0
    9.3620   -2.7184    0.0000 O   0  0  0  0  0  0  0  0  0  0  0  0
    8.1970   -2.0250    0.0000 C   0  0  0  0  0  0  0  0  0  0  0  0
    9.3620   -1.3592    0.0000 O   0  0  0  0  0  0  0  0  0  0  0  0
    7.0180   -1.3592    0.0000 C   0  0  0  0  0  0  0  0  0  0  0  0
    7.0180    0.0000    0.0000 C   0  0  0  0  0  0  0  0  0  0  0  0
   10.5132   -3.3565    0.0000 C   0  0  0  0  0  0  0  0  0  0  0  0
   10.5132   -4.6879    0.0000 O   0  0  0  0  0  0  0  0  0  0  0  0
   11.6644   -2.7184    0.0000 C   0  0  0  0  0  0  0  0  0  0  0  0
   12.7601   -3.3426    0.0000 C   0  0  0  0  0  0  0  0  0  0  0  0
   13.8696   -2.7046    0.0000 C   0  0  0  0  0  0  0  0  0  0  0  0
  1  6  1  0  0  0  0
  1  2  1  0  0  0  0
  1 18  1  6  0  0  0
  1  3  1  0  0  0  0
  2  8  1  0  0  0  0
  2 11  1  1  0  0  0
  2 12  1  0  0  0  0
  3  4  1  0  0  0  0
  3  7  1  0  0  0  0
  3 17  1  1  0  0  0
  4 19  1  6  0  0  0
  4 22  1  0  0  0  0
  4  5  1  0  0  0  0
  5  9  1  0  0  0  0
  5 13  1  1  0  0  0
  5 24  1  0  0  0  0
  6  9  1  0  0  0  0
  6 21  1  1  0  0  0
  7 10  1  0  0  0  0
  8 14  2  0  0  0  0
  8 10  1  0  0  0  0
 12 15  1  0  0  0  0
 14 16  1  0  0  0  0
 15 16  1  0  0  0  0
 16 20  2  0  0  0  0
 22 23  1  0  0  0  0
 23 24  1  0  0  0  0
 24 25  1  6  0  0  0
 24 26  1  0  0  0  0
 25 30  1  0  0  0  0
 26 27  2  0  0  0  0
 26 28  1  0  0  0  0
 28 29  1  0  0  0  0
 30 31  2  0  0  0  0
 30 32  1  0  0  0  0
 32 33  1  0  0  0  0
 33 34  1  0  0  0  0
M  END
> <ID>
16223

> <Formula>
C26H38O5

> <FW>
430.5769

> <DSSTox_CID>
31614

> <DSSTox_RID>
97498

> <DSSTox_GSID>
57825

> <DSSTox_FileID_Sort>
8565

> <TS_ChemName>
Resocortol butyrate

> <TS_ChemName_Synonyms>


> <TS_CASRN>
76738-96-0

> <CASRN_ChemName_Relationship>
primary

> <TS_Description>
single chemical compound

> <ChemNote>


> <STRUCTURE_Shown>
tested chemical

> <STRUCTURE_Formula>
C26H38O5

> <STRUCTURE_MW>
430.5769

> <STRUCTURE_ChemType>
defined organic

> <STRUCTURE_DefinedOrganicForm>
parent

> <STRUCTURE_IUPAC>
(8S,9S,10R,11S,13S,14S,17R)-11-hydroxy-10,13-dimethyl-3-oxo-17-propionyl-2,3,6,7,8,9,10,11,12,13,14,15,16,17-tetradecahydro-1H-cyclopenta[a]phenanthren-17-yl butyrate (non-preferred name)

> <STRUCTURE_SMILES>
CCC(=O)[C@@]4(OC(=O)CCC)CC[C@@H]2[C@]4(C)C[C@H](O)[C@@H]1[C@@]3(C)CCC(=O)C=C3CC[C@H]12

> <STRUCTURE_SMILES_Desalt>
CCC(=O)[C@@]4(OC(=O)CCC)CC[C@@H]2[C@]4(C)C[C@H](O)[C@@H]1[C@@]3(C)CCC(=O)C=C3CC[C@H]12

> <Substance_modify_yyyymmdd>
20131018

$$$$
