768-94-5
ChemmineR-0915142007XD

 11 13  0  0  0  0  0  0  0  0  1 V2000
    0.0000   -3.1065    0.0000 C   0  0  0  0  0  0  0  0  0  0  0  0
    1.1942   -2.4991    0.0000 C   0  0  0  0  0  0  0  0  0  0  0  0
    1.1942   -1.2844    0.0000 C   0  0  0  0  0  0  0  0  0  0  0  0
    2.3883   -3.1065    0.0000 C   0  0  0  0  0  0  0  0  0  0  0  0
    0.7305   -1.8220    0.0000 C   0  0  0  0  0  0  0  0  0  0  0  0
    0.7305   -0.6073    0.0000 C   0  0  0  0  0  0  0  0  0  0  0  0
    1.9246   -2.4294    0.0000 C   0  0  0  0  0  0  0  0  0  0  0  0
    1.9246    0.0000    0.0000 C   0  0  0  0  0  0  0  0  0  0  0  0
    3.1188   -1.8220    0.0000 C   0  0  0  0  0  0  0  0  0  0  0  0
    3.1188   -0.6073    0.0000 C   0  0  0  0  0  0  0  0  0  0  0  0
    4.1037   -2.4622    0.0000 N   0  0  0  0  0  0  0  0  0  0  0  0
  1  2  1  0  0  0  0
  1  5  1  0  0  0  0
  2  3  1  0  0  0  0
  2  4  1  0  0  0  0
  3  8  1  0  0  0  0
  4  9  1  0  0  0  0
  5  6  1  0  0  0  0
  5  7  1  0  0  0  0
  6  8  1  0  0  0  0
  7  9  1  0  0  0  0
  8 10  1  0  0  0  0
  9 10  1  0  0  0  0
  9 11  1  0  0  0  0
M  END
> <ID>
1958

> <Formula>
C10H17N

> <FW>
151.2487

> <DSSTox_CID>
2117

> <DSSTox_RID>
76493

> <DSSTox_GSID>
22117

> <DSSTox_FileID_Sort>
1177

> <TS_ChemName>
Amantadine

> <TS_ChemName_Synonyms>
Amantadine (1-adamantanamine) (Tricyclo[3.3.1.13,7]decan-1-amine)

> <TS_CASRN>
768-94-5

> <CASRN_ChemName_Relationship>
primary

> <TS_Description>
single chemical compound

> <ChemNote>


> <STRUCTURE_Shown>
tested chemical

> <STRUCTURE_Formula>
C10H17N

> <STRUCTURE_MW>
151.2487

> <STRUCTURE_ChemType>
defined organic

> <STRUCTURE_DefinedOrganicForm>
parent

> <STRUCTURE_IUPAC>
tricyclo[3.3.1.1~3,7~]decan-1-amine

> <STRUCTURE_SMILES>
NC13CC2CC(CC(C1)C2)C3

> <STRUCTURE_SMILES_Desalt>
NC13CC2CC(CC(C1)C2)C3

> <Substance_modify_yyyymmdd>
20080429

$$$$
