7681-93-8
ChemmineR-0915142007XD

 50 53  0  0  1  0  0  0  0  0  1 V2000
    2.2978   -5.3213    0.0000 C   0  0  0  0  0  0  0  0  0  0  0  0
    2.2978   -7.9819    0.0000 O   0  0  0  0  0  0  0  0  0  0  0  0
    1.1576   -5.9778    0.0000 C   0  0  0  0  0  0  0  0  0  0  0  0
    1.1576   -7.3254    0.0000 C   0  0  0  0  0  0  0  0  0  0  0  0
    4.6129   -3.9910    0.0000 C   0  0  0  0  0  0  0  0  0  0  0  0
    3.4554   -3.3172    0.0000 C   0  0  0  0  0  0  0  0  0  0  0  0
    2.2978   -3.9910    0.0000 C   0  0  0  0  0  0  0  0  0  0  0  0
    6.9108   -3.9910    0.0000 C   0  0  0  0  0  0  0  0  0  0  0  0
    5.7532   -3.3172    0.0000 C   0  0  0  0  0  0  0  0  0  0  0  0
    8.0510   -3.3344    0.0000 C   0  0  0  0  0  0  0  0  0  0  0  0
    9.2259   -3.9910    0.0000 O   0  0  0  0  0  0  0  0  0  0  0  0
   10.3661   -3.3344    0.0000 C   0  0  0  0  0  0  0  0  0  0  0  0
   11.5237   -3.9910    0.0000 C   0  0  0  0  0  0  0  0  0  0  0  0
   10.3661   -5.9951    0.0000 C   0  0  0  0  0  0  0  0  0  0  0  0
   11.5237   -5.3213    0.0000 C   0  0  0  0  0  0  0  0  0  0  0  0
   10.3661   -7.3081    0.0000 C   0  0  0  0  0  0  0  0  0  0  0  0
    9.2259   -7.9819    0.0000 C   0  0  0  0  0  0  0  0  0  0  0  0
    6.9108   -9.3123    0.0000 C   0  0  0  0  0  0  0  0  0  0  0  0
    9.2259   -9.3123    0.0000 C   0  0  0  0  0  0  0  0  0  0  0  0
    8.0510   -9.9688    0.0000 C   0  0  0  0  0  0  0  0  0  0  0  0
    5.7705   -9.9688    0.0000 C   0  0  0  0  0  0  0  0  0  0  0  0
    4.6129   -9.3123    0.0000 C   0  0  0  0  0  0  0  0  0  0  0  0
    3.4727   -9.9688    0.0000 C   0  0  0  0  0  0  0  0  0  0  0  0
    2.2978   -9.3123    0.0000 C   0  0  0  0  0  0  0  0  0  0  0  0
    0.0000   -7.9819    0.0000 O   0  0  0  0  0  0  0  0  0  0  0  0
    1.1576   -9.9861    0.0000 C   0  0  0  0  0  0  0  0  0  0  0  0
   12.6640   -5.9951    0.0000 O   0  0  0  0  0  0  0  0  0  0  0  0
   10.3661   -2.0041    0.0000 C   0  0  0  0  0  0  0  0  0  0  0  0
    9.2259   -1.3303    0.0000 C   0  0  0  0  0  0  0  0  0  0  0  0
    8.0510   -2.0041    0.0000 C   0  0  0  0  0  0  0  0  0  0  0  0
   11.5237   -1.3303    0.0000 C   0  0  0  0  0  0  0  0  0  0  0  0
   12.6640   -2.0041    0.0000 O   0  0  0  0  0  0  0  0  0  0  0  0
   11.5237    0.0000    0.0000 O   0  0  0  0  0  0  0  0  0  0  0  0
    8.0510   -4.6648    0.0000 O   0  0  0  0  0  0  0  0  0  0  0  0
    9.2259    0.0000    0.0000 O   0  0  0  0  0  0  0  0  0  0  0  0
    5.7532   -1.9868    0.0000 O   0  0  0  0  0  0  0  0  0  0  0  0
    2.2978   -2.6606    0.0000 O   0  0  0  0  0  0  0  0  0  0  0  0
    3.4554   -1.9868    0.0000 H   0  0  0  0  0  0  0  0  0  0  0  0
    1.1576   -3.3172    0.0000 H   0  0  0  0  0  0  0  0  0  0  0  0
   10.3661   -4.6648    0.0000 H   0  0  0  0  0  0  0  0  0  0  0  0
   13.8215   -5.3213    0.0000 C   0  0  0  0  0  0  0  0  0  0  0  0
   14.9791   -5.9951    0.0000 O   0  0  0  0  0  0  0  0  0  0  0  0
   13.8215   -3.9910    0.0000 C   0  0  0  0  0  0  0  0  0  0  0  0
   16.1366   -5.3213    0.0000 C   0  0  0  0  0  0  0  0  0  0  0  0
   14.9791   -3.3344    0.0000 C   0  0  0  0  0  0  0  0  0  0  0  0
   16.1366   -3.9910    0.0000 C   0  0  0  0  0  0  0  0  0  0  0  0
   12.6640   -3.3344    0.0000 O   0  0  0  0  0  0  0  0  0  0  0  0
   14.9791   -2.0041    0.0000 N   0  0  0  0  0  0  0  0  0  0  0  0
   17.2769   -3.3344    0.0000 O   0  0  0  0  0  0  0  0  0  0  0  0
   17.2769   -5.9951    0.0000 C   0  0  0  0  0  0  0  0  0  0  0  0
  1  3  2  0  0  0  0
  1  7  1  0  0  0  0
  2  4  1  0  0  0  0
  2 24  1  0  0  0  0
  3  4  1  0  0  0  0
  4 25  2  0  0  0  0
  5  6  1  0  0  0  0
  5  9  1  0  0  0  0
  6 37  1  0  0  0  0
  6  7  1  0  0  0  0
  6 38  1  1  0  0  0
  7 37  1  0  0  0  0
  7 39  1  6  0  0  0
  8  9  1  0  0  0  0
  8 10  1  0  0  0  0
  9 36  1  6  0  0  0
 10 11  1  0  0  0  0
 10 30  1  0  0  0  0
 10 34  1  1  0  0  0
 11 12  1  0  0  0  0
 12 13  1  0  0  0  0
 12 28  1  0  0  0  0
 12 40  1  1  0  0  0
 13 15  1  0  0  0  0
 14 15  1  0  0  0  0
 14 16  2  0  0  0  0
 15 27  1  1  0  0  0
 16 17  1  0  0  0  0
 17 19  2  0  0  0  0
 18 20  2  0  0  0  0
 18 21  1  0  0  0  0
 19 20  1  0  0  0  0
 21 22  2  0  0  0  0
 22 23  1  0  0  0  0
 23 24  1  0  0  0  0
 24 26  1  1  0  0  0
 41 27  1  1  0  0  0
 28 29  1  0  0  0  0
 28 31  1  1  0  0  0
 29 30  1  0  0  0  0
 29 35  1  6  0  0  0
 31 32  1  0  0  0  0
 31 33  2  0  0  0  0
 41 42  1  0  0  0  0
 41 43  1  0  0  0  0
 42 44  1  0  0  0  0
 43 45  1  0  0  0  0
 43 47  1  1  0  0  0
 44 46  1  0  0  0  0
 44 50  1  1  0  0  0
 45 46  1  0  0  0  0
 45 48  1  1  0  0  0
 46 49  1  6  0  0  0
M  END
> <ID>
1119

> <Formula>
C33H47NO13

> <FW>
665.7252

> <DSSTox_CID>
1163

> <DSSTox_RID>
75985

> <DSSTox_GSID>
21163

> <DSSTox_FileID_Sort>
669

> <TS_ChemName>
Natamycin

> <TS_ChemName_Synonyms>
Pimaricin (Natamycin)

> <TS_CASRN>
7681-93-8

> <CASRN_ChemName_Relationship>
primary

> <TS_Description>
single chemical compound

> <ChemNote>
stereochem

> <STRUCTURE_Shown>
tested chemical

> <STRUCTURE_Formula>
C33H47NO13

> <STRUCTURE_MW>
665.7252

> <STRUCTURE_ChemType>
defined organic

> <STRUCTURE_DefinedOrganicForm>
parent

> <STRUCTURE_IUPAC>
(1R,3S,5R,7R,8E,12R,14E,16E,18E,20E,22R,24S,25R,26S)-22-[(3-amino-3,6-dideoxy-beta-D-mannopyranosyl)oxy]-1,3,26-trihydroxy-12-methyl-10-oxo-6,11,28-trioxatricyclo[22.3.1.0~5,7~]octacosa-8,14,16,18,20-pentaene-25-carboxylic acid

> <STRUCTURE_SMILES>
O=C(O)[C@@H]3[C@@H](O)C[C@@]2(O)C[C@@H](O)C[C@H]4O[C@@H]4C=CC(=O)O[C@H](C)CC=CC=CC=CC=C[C@H](O[C@@H]1O[C@H](C)[C@@H](O)[C@H](N)[C@@H]1O)C[C@@H]3O2

> <STRUCTURE_SMILES_Desalt>
O=C(O)[C@@H]3[C@@H](O)C[C@@]2(O)C[C@@H](O)C[C@H]4O[C@@H]4C=CC(=O)O[C@H](C)CC=CC=CC=CC=C[C@H](O[C@@H]1O[C@H](C)[C@@H](O)[C@H](N)[C@@H]1O)C[C@@H]3O2

> <Substance_modify_yyyymmdd>
20080429

$$$$
