7681-76-7
ChemmineR-0915142007XD

 14 14  0  0  0  0  0  0  0  0  2 V2000
    2.2887   -2.0823    0.0000 C   0  0  0  0  0  0  0  0  0  0  0  0
    3.3658   -1.3104    0.0000 N   0  0  0  0  0  0  0  0  0  0  0  0
    1.0142   -1.6335    0.0000 N   0  3  0  0  0  0  0  0  0  0  0  0
    2.6926   -3.3479    0.0000 C   0  0  0  0  0  0  0  0  0  0  0  0
    4.0210   -3.3479    0.0000 N   0  0  0  0  0  0  0  0  0  0  0  0
    4.4429   -2.0823    0.0000 C   0  0  0  0  0  0  0  0  0  0  0  0
    0.7539   -0.3321    0.0000 O   0  5  0  0  0  0  0  0  0  0  0  0
    0.0000   -2.4952    0.0000 O   0  0  0  0  0  0  0  0  0  0  0  0
    5.7084   -1.6335    0.0000 C   0  0  0  0  0  0  0  0  0  0  0  0
    3.3658    0.0000    0.0000 C   0  0  0  0  0  0  0  0  0  0  0  0
    6.7137   -2.4952    0.0000 O   0  0  0  0  0  0  0  0  0  0  0  0
    7.9613   -2.0644    0.0000 C   0  0  0  0  0  0  0  0  0  0  0  0
    8.9755   -2.9350    0.0000 N   0  0  0  0  0  0  0  0  0  0  0  0
    8.2215   -0.7539    0.0000 O   0  0  0  0  0  0  0  0  0  0  0  0
  1  2  1  0  0  0  0
  1  3  1  0  0  0  0
  1  4  2  0  0  0  0
  2  6  1  0  0  0  0
  2 10  1  0  0  0  0
  3  7  1  0  0  0  0
  3  8  2  0  0  0  0
  4  5  1  0  0  0  0
  5  6  2  0  0  0  0
  6  9  1  0  0  0  0
  9 11  1  0  0  0  0
 11 12  1  0  0  0  0
 12 13  1  0  0  0  0
 12 14  2  0  0  0  0
M  END
> <ID>
10925

> <Formula>
C6H8N4O4

> <FW>
200.1521

> <DSSTox_CID>
25400

> <DSSTox_RID>
80854

> <DSSTox_GSID>
45400

> <DSSTox_FileID_Sort>
5535

> <TS_ChemName>
Ronidazole

> <TS_ChemName_Synonyms>


> <TS_CASRN>
7681-76-7

> <CASRN_ChemName_Relationship>
primary

> <TS_Description>
single chemical compound

> <ChemNote>


> <STRUCTURE_Shown>
tested chemical

> <STRUCTURE_Formula>
C6H8N4O4

> <STRUCTURE_MW>
200.1521

> <STRUCTURE_ChemType>
defined organic

> <STRUCTURE_DefinedOrganicForm>
parent

> <STRUCTURE_IUPAC>
(1-methyl-5-nitro-1H-imidazol-2-yl)methyl carbamate

> <STRUCTURE_SMILES>
Cn1c(cnc1COC(N)=O)[N+]([O-])=O

> <STRUCTURE_SMILES_Desalt>
Cn1c(cnc1COC(N)=O)[N+]([O-])=O

> <Substance_modify_yyyymmdd>
20110628

$$$$
