7681-67-6
ChemmineR-0915142007XD

 25 26  0  0  0  0  0  0  0  0  1 V2000
   10.6383   -6.9149    0.0000 C    0  0  0  0  0  0  0  0  0  0  0  0
    9.9681   -5.7660    0.0000 C    0  0  0  0  0  0  0  0  0  0  0  0
    8.6490   -5.7660    0.0000 C    0  0  0  0  0  0  0  0  0  0  0  0
    7.9788   -6.9149    0.0000 O    0  0  0  0  0  0  0  0  0  0  0  0
    7.9788   -4.6170    0.0000 C    0  0  0  0  0  0  0  0  0  0  0  0
    6.6490   -4.6170    0.0000 C    0  0  0  0  0  0  0  0  0  0  0  0
    5.9894   -3.4575    0.0000 C    0  0  0  0  0  0  0  0  0  0  0  0
    6.6490   -2.3085    0.0000 C    0  0  0  0  0  0  0  0  0  0  0  0
    5.9894   -1.1702    0.0000 S    0  0  0  0  0  0  0  0  0  0  0  0
    4.6596   -1.1702    0.0000 C    0  0  0  0  0  0  0  0  0  0  0  0
    3.9894   -2.3085    0.0000 C    0  0  0  0  0  0  0  0  0  0  0  0
    2.6596   -2.3085    0.0000 C    0  0  0  0  0  0  0  0  0  0  0  0
    1.9894   -1.1702    0.0000 C    0  0  0  0  0  0  0  0  0  0  0  0
    2.6596    0.0000    0.0000 C    0  0  0  0  0  0  0  0  0  0  0  0
    3.9894    0.0000    0.0000 C    0  0  0  0  0  0  0  0  0  0  0  0
    4.6596   -3.4575    0.0000 N    0  0  0  0  0  0  0  0  0  0  0  0
    3.9894   -4.6170    0.0000 C    0  0  0  0  0  0  0  0  0  0  0  0
    2.6596   -4.6170    0.0000 C    0  0  0  0  0  0  0  0  0  0  0  0
    1.9894   -5.7660    0.0000 C    0  0  0  0  0  0  0  0  0  0  0  0
    0.6596   -5.7660    0.0000 N    0  0  0  0  0  0  0  0  0  0  0  0
    0.0000   -6.9149    0.0000 C    0  0  0  0  0  0  0  0  0  0  0  0
    0.0000   -4.6170    0.0000 C    0  0  0  0  0  0  0  0  0  0  0  0
    7.9788   -2.3085    0.0000 C    0  0  0  0  0  0  0  0  0  0  0  0
    8.6490   -3.4575    0.0000 C    0  0  0  0  0  0  0  0  0  0  0  0
    5.6277   -7.1277    0.0000 Cl   0  0  0  0  0  0  0  0  0  0  0  0
  1  2  1  0  0  0  0
  2  3  1  0  0  0  0
  3  4  2  0  0  0  0
  3  5  1  0  0  0  0
  5  6  2  0  0  0  0
  5 24  1  0  0  0  0
  6  7  1  0  0  0  0
  7  8  2  0  0  0  0
  7 16  1  0  0  0  0
  8  9  1  0  0  0  0
  8 23  1  0  0  0  0
  9 10  1  0  0  0  0
 10 11  2  0  0  0  0
 10 15  1  0  0  0  0
 11 12  1  0  0  0  0
 11 16  1  0  0  0  0
 12 13  2  0  0  0  0
 13 14  1  0  0  0  0
 14 15  2  0  0  0  0
 16 17  1  0  0  0  0
 17 18  1  0  0  0  0
 18 19  1  0  0  0  0
 19 20  1  0  0  0  0
 20 21  1  0  0  0  0
 20 22  1  0  0  0  0
 23 24  2  0  0  0  0
M  END
> <ID>
10804

> <Formula>
C20H25ClN2OS

> <FW>
376.9433 (340.4824+36.4609)

> <DSSTox_CID>
25187

> <DSSTox_RID>
80734

> <DSSTox_GSID>
45187

> <DSSTox_FileID_Sort>
5415

> <TS_ChemName>
Propionylpromazine hydrochloride

> <TS_ChemName_Synonyms>


> <TS_CASRN>
7681-67-6

> <CASRN_ChemName_Relationship>
primary

> <TS_Description>
single chemical compound

> <ChemNote>
parent [3568-24-9]

> <STRUCTURE_Shown>
tested chemical

> <STRUCTURE_Formula>
C20H25ClN2OS

> <STRUCTURE_MW>
376.9433

> <STRUCTURE_ChemType>
defined organic

> <STRUCTURE_DefinedOrganicForm>
complex

> <STRUCTURE_IUPAC>
1-{10-[3-(dimethylamino)propyl]-10H-phenothiazin-2-yl}propan-1-one hydrochloride (1:1)

> <STRUCTURE_SMILES>
Cl.CCC(=O)c1cc2N(CCCN(C)C)c3ccccc3Sc2cc1

> <STRUCTURE_SMILES_Desalt>
CCC(=O)c1cc2N(CCCN(C)C)c3ccccc3Sc2cc1

> <Substance_modify_yyyymmdd>
20100107

$$$$
