7681-14-3
ChemmineR-0915142007XD

 36 39  0  0  1  0  0  0  0  0  1 V2000
    7.0565   -3.6642    0.0000 C   0  0  0  0  0  0  0  0  0  0  0  0
    3.5784   -5.6252    0.0000 C   0  0  0  0  0  0  0  0  0  0  0  0
    8.2732   -3.2635    0.0000 C   0  0  0  0  0  0  0  0  0  0  0  0
    5.9114   -5.6252    0.0000 C   0  0  0  0  0  0  0  0  0  0  0  0
    7.0565   -4.9238    0.0000 C   0  0  0  0  0  0  0  0  0  0  0  0
    4.7377   -4.9954    0.0000 C   0  0  0  0  0  0  0  0  0  0  0  0
    3.5784   -6.9706    0.0000 C   0  0  0  0  0  0  0  0  0  0  0  0
    5.9114   -3.0058    0.0000 C   0  0  0  0  0  0  0  0  0  0  0  0
    4.7377   -3.7072    0.0000 C   0  0  0  0  0  0  0  0  0  0  0  0
    2.3617   -4.9954    0.0000 C   0  0  0  0  0  0  0  0  0  0  0  0
    8.2732   -1.8894    0.0000 C   0  0  0  0  0  0  0  0  0  0  0  0
    2.3617   -7.6720    0.0000 C   0  0  0  0  0  0  0  0  0  0  0  0
    9.1033   -4.3083    0.0000 C   0  0  0  0  0  0  0  0  0  0  0  0
    8.2732   -5.3103    0.0000 C   0  0  0  0  0  0  0  0  0  0  0  0
    5.9114   -6.9706    0.0000 C   0  0  0  0  0  0  0  0  0  0  0  0
    1.2023   -5.6252    0.0000 C   0  0  0  0  0  0  0  0  0  0  0  0
    1.2023   -6.9706    0.0000 C   0  0  0  0  0  0  0  0  0  0  0  0
   11.8515   -1.3168    0.0000 C   0  0  0  0  0  0  0  0  0  0  0  0
    4.7377   -7.6720    0.0000 C   0  0  0  0  0  0  0  0  0  0  0  0
    9.5041   -1.2596    0.0000 C   0  0  0  0  0  0  0  0  0  0  0  0
    7.1281   -1.2023    0.0000 O   0  0  0  0  0  0  0  0  0  0  0  0
   10.6349   -1.9609    0.0000 O   0  0  0  0  0  0  0  0  0  0  0  0
   11.8515    0.0000    0.0000 O   0  0  0  0  0  0  0  0  0  0  0  0
    0.0000   -7.6720    0.0000 O   0  0  0  0  0  0  0  0  0  0  0  0
    9.4469   -3.2635    0.0000 O   0  0  0  0  0  0  0  0  0  0  0  0
   13.0109   -1.9609    0.0000 C   0  0  0  0  0  0  0  0  0  0  0  0
   13.0109   -3.2635    0.0000 C   0  0  0  0  0  0  0  0  0  0  0  0
    7.0565   -2.3188    0.0000 C   0  0  0  0  0  0  0  0  0  0  0  0
    3.5497   -3.0058    0.0000 O   0  0  0  0  0  0  0  0  0  0  0  0
    3.5784   -4.3083    0.0000 C   0  0  0  0  0  0  0  0  0  0  0  0
   11.6941   -3.2635    0.0000 C   0  0  0  0  0  0  0  0  0  0  0  0
   14.3134   -3.2635    0.0000 C   0  0  0  0  0  0  0  0  0  0  0  0
   13.0109   -4.5660    0.0000 C   0  0  0  0  0  0  0  0  0  0  0  0
    5.9114   -4.2797    0.0000 H   0  0  0  0  0  0  0  0  0  0  0  0
    4.7377   -6.2979    0.0000 H   0  0  0  0  0  0  0  0  0  0  0  0
    7.0565   -6.2406    0.0000 H   0  0  0  0  0  0  0  0  0  0  0  0
  1  3  1  0  0  0  0
  1  5  1  0  0  0  0
  1  8  1  0  0  0  0
  1 28  1  1  0  0  0
  2  6  1  0  0  0  0
  2  7  1  0  0  0  0
  2 10  1  0  0  0  0
  2 30  1  1  0  0  0
  3 11  1  1  0  0  0
  3 13  1  0  0  0  0
  3 25  1  0  0  0  0
  4  5  1  0  0  0  0
  4 15  1  0  0  0  0
  4  6  1  0  0  0  0
  4 34  1  1  0  0  0
  5 14  1  0  0  0  0
  5 36  1  6  0  0  0
  6  9  1  0  0  0  0
  6 35  1  6  0  0  0
  7 12  2  0  0  0  0
  7 19  1  0  0  0  0
  8  9  1  0  0  0  0
  9 29  1  1  0  0  0
 10 16  2  0  0  0  0
 11 20  1  0  0  0  0
 11 21  2  0  0  0  0
 12 17  1  0  0  0  0
 13 14  1  0  0  0  0
 15 19  1  0  0  0  0
 16 17  1  0  0  0  0
 17 24  2  0  0  0  0
 18 22  1  0  0  0  0
 18 23  2  0  0  0  0
 18 26  1  0  0  0  0
 20 22  1  0  0  0  0
 26 27  1  0  0  0  0
 27 31  1  0  0  0  0
 27 32  1  0  0  0  0
 27 33  1  0  0  0  0
M  END
> <ID>
3139

> <Formula>
C27H38O6

> <FW>
458.587

> <DSSTox_CID>
3505

> <DSSTox_RID>
97549

> <DSSTox_GSID>
23505

> <DSSTox_FileID_Sort>
8324

> <TS_ChemName>
Prednisolone tebutate

> <TS_ChemName_Synonyms>


> <TS_CASRN>
7681-14-3

> <CASRN_ChemName_Relationship>
primary

> <TS_Description>
single chemical compound

> <ChemNote>
stereochem; tautomers

> <STRUCTURE_Shown>
tested chemical

> <STRUCTURE_Formula>
C27H38O6

> <STRUCTURE_MW>
458.587

> <STRUCTURE_ChemType>
defined organic

> <STRUCTURE_DefinedOrganicForm>
parent

> <STRUCTURE_IUPAC>
(11beta)-11,17-dihydroxy-3,20-dioxopregna-1,4-dien-21-yl 3,3-dimethylbutanoate

> <STRUCTURE_SMILES>
CC(C)(C)CC(=O)OCC(=O)[C@@]4(O)CC[C@@H]3[C@]4(C)C[C@H](O)[C@H]2[C@H]3CCC1=CC(=O)C=C[C@@]12C

> <STRUCTURE_SMILES_Desalt>
CC(C)(C)CC(=O)OCC(=O)[C@@]4(O)CC[C@@H]3[C@]4(C)C[C@H](O)[C@H]2[C@H]3CCC1=CC(=O)C=C[C@@]12C

> <Substance_modify_yyyymmdd>
20080429

$$$$
