7681-38-1
ChemmineR-0915142007XD

  6  4  0  0  0  0  0  0  0  0  2 V2000
      0.00     -1.33      0.00 Na   0  3  0  0  0  0  0  0  0  0  0  0
      3.99     -1.33      0.00 S    0  0  0  0  0  0  0  0  0  0  0  0
      5.32     -1.33      0.00 O    0  0  0  0  0  0  0  0  0  0  0  0
      3.99     -2.66      0.00 O    0  0  0  0  0  0  0  0  0  0  0  0
      3.99      0.00      0.00 O    0  0  0  0  0  0  0  0  0  0  0  0
      2.66     -1.33      0.00 O    0  5  0  0  0  0  0  0  0  0  0  0
  2  3  2  0  0  0  0
  2  4  2  0  0  0  0
  2  5  1  0  0  0  0
  2  6  1  0  0  0  0
M  END
> <ID>
6653

> <Formula>
HNaO4S

> <FW>
120.0603 (22.9892+97.0711)

> <DSSTox_CID>
13983

> <DSSTox_RID>
79105

> <DSSTox_GSID>
33983

> <DSSTox_FileID_Sort>
3787

> <TS_ChemName>
Sodium hydrogen sulfate

> <TS_ChemName_Synonyms>
Sodium hydrogen sulfate (Sodium bisulfate)

> <TS_CASRN>
7681-38-1

> <CASRN_ChemName_Relationship>
primary

> <TS_Description>
single chemical compound

> <ChemNote>


> <STRUCTURE_Shown>
tested chemical

> <STRUCTURE_Formula>
HNaO4S

> <STRUCTURE_MW>
120.0603

> <STRUCTURE_ChemType>
inorganic

> <STRUCTURE_DefinedOrganicForm>


> <STRUCTURE_IUPAC>
sodium hydrogen sulfate

> <STRUCTURE_SMILES>
[Na+].[O-]S(=O)(=O)O

> <STRUCTURE_SMILES_Desalt>
O=S(=O)(O)O

> <Substance_modify_yyyymmdd>
20080429

$$$$
