76824-35-6
ChemmineR-0915142007XD

 20 20  0  0  0  0  0  0  0  0  1 V2000
    5.2854   -2.0196    0.0000 C   0  0  0  0  0  0  0  0  0  0  0  0
    3.9390   -2.0196    0.0000 S   0  0  0  0  0  0  0  0  0  0  0  0
    3.5236   -0.7591    0.0000 C   0  0  0  0  0  0  0  0  0  0  0  0
    2.2488   -0.3581    0.0000 N   0  0  0  0  0  0  0  0  0  0  0  0
    1.2748   -1.2605    0.0000 C   0  0  0  0  0  0  0  0  0  0  0  0
    0.0000   -0.8451    0.0000 N   0  0  0  0  0  0  0  0  0  0  0  0
    1.5469   -2.5639    0.0000 N   0  0  0  0  0  0  0  0  0  0  0  0
    4.5978    0.0000    0.0000 N   0  0  0  0  0  0  0  0  0  0  0  0
    5.6864   -0.7591    0.0000 C   0  0  0  0  0  0  0  0  0  0  0  0
    6.9469   -0.3438    0.0000 C   0  0  0  0  0  0  0  0  0  0  0  0
    7.9352   -1.2461    0.0000 S   0  0  0  0  0  0  0  0  0  0  0  0
    9.1957   -0.8308    0.0000 C   0  0  0  0  0  0  0  0  0  0  0  0
   10.1983   -1.7188    0.0000 C   0  0  0  0  0  0  0  0  0  0  0  0
   11.4588   -1.2891    0.0000 C   0  0  0  0  0  0  0  0  0  0  0  0
   11.7309    0.0000    0.0000 N   0  0  0  0  0  0  0  0  0  0  0  0
   12.4614   -2.1772    0.0000 N   0  0  0  0  0  0  0  0  0  0  0  0
   13.3065   -3.1941    0.0000 S   0  0  0  0  0  0  0  0  0  0  0  0
   14.3235   -2.3634    0.0000 N   0  0  0  0  0  0  0  0  0  0  0  0
   12.2609   -4.0392    0.0000 O   0  0  0  0  0  0  0  0  0  0  0  0
   14.1373   -4.2254    0.0000 O   0  0  0  0  0  0  0  0  0  0  0  0
  1  2  1  0  0  0  0
  1  9  2  0  0  0  0
  2  3  1  0  0  0  0
  3  4  1  0  0  0  0
  3  8  2  0  0  0  0
  4  5  2  0  0  0  0
  5  6  1  0  0  0  0
  5  7  1  0  0  0  0
  8  9  1  0  0  0  0
  9 10  1  0  0  0  0
 10 11  1  0  0  0  0
 11 12  1  0  0  0  0
 12 13  1  0  0  0  0
 13 14  1  0  0  0  0
 14 15  1  0  0  0  0
 14 16  2  0  0  0  0
 16 17  1  0  0  0  0
 17 18  1  0  0  0  0
 17 19  2  0  0  0  0
 17 20  2  0  0  0  0
M  END
> <ID>
2732

> <Formula>
C8H15N7O2S3

> <FW>
337.4454

> <DSSTox_CID>
3039

> <DSSTox_RID>
76846

> <DSSTox_GSID>
23039

> <DSSTox_FileID_Sort>
1530

> <TS_ChemName>
Famotidine

> <TS_ChemName_Synonyms>


> <TS_CASRN>
76824-35-6

> <CASRN_ChemName_Relationship>
primary

> <TS_Description>
single chemical compound

> <ChemNote>
tautomers

> <STRUCTURE_Shown>
tested chemical

> <STRUCTURE_Formula>
C8H15N7O2S3

> <STRUCTURE_MW>
337.4454

> <STRUCTURE_ChemType>
defined organic

> <STRUCTURE_DefinedOrganicForm>
parent

> <STRUCTURE_IUPAC>
3-[({2-[(diaminomethylidene)amino]-1,3-thiazol-4-yl}methyl)sulfanyl]-N'-sulfamoylpropanimidamide

> <STRUCTURE_SMILES>
N/C(N)=N/c1nc(CSCCC(\N)=N/S(N)(=O)=O)cs1

> <STRUCTURE_SMILES_Desalt>
N/C(N)=N/c1nc(CSCCC(\N)=N/S(N)(=O)=O)cs1

> <Substance_modify_yyyymmdd>
20080429

$$$$
