76894-77-4
ChemmineR-0915142007XD

 21 23  0  0  0  0  0  0  0  0  1 V2000
    4.6264   -3.3957    0.0000 C   0  0  0  0  0  0  0  0  0  0  0  0
    5.9561   -3.3957    0.0000 C   0  0  0  0  0  0  0  0  0  0  0  0
    4.2088   -2.1099    0.0000 C   0  0  0  0  0  0  0  0  0  0  0  0
    3.9561   -4.5385    0.0000 C   0  0  0  0  0  0  0  0  0  0  0  0
    6.3737   -2.1099    0.0000 N   0  0  0  0  0  0  0  0  0  0  0  0
    6.6155   -4.5385    0.0000 C   0  0  0  0  0  0  0  0  0  0  0  0
    5.2858   -1.3297    0.0000 C   0  0  0  0  0  0  0  0  0  0  0  0
    2.9671   -1.7143    0.0000 C   0  0  0  0  0  0  0  0  0  0  0  0
    4.6264   -5.7034    0.0000 C   0  0  0  0  0  0  0  0  0  0  0  0
    7.5496   -1.4616    0.0000 C   0  0  0  0  0  0  0  0  0  0  0  0
    5.9561   -5.7034    0.0000 C   0  0  0  0  0  0  0  0  0  0  0  0
    5.2858    0.0000    0.0000 C   0  0  0  0  0  0  0  0  0  0  0  0
    1.9671   -2.6154    0.0000 N   0  0  0  0  0  0  0  0  0  0  0  0
    8.6814   -2.1099    0.0000 C   0  0  0  0  0  0  0  0  0  0  0  0
    2.0989   -3.9231    0.0000 C   0  0  0  0  0  0  0  0  0  0  0  0
    0.6593   -2.3187    0.0000 C   0  0  0  0  0  0  0  0  0  0  0  0
    9.8573   -1.4616    0.0000 C   0  0  0  0  0  0  0  0  0  0  0  0
    0.8791   -4.4506    0.0000 C   0  0  0  0  0  0  0  0  0  0  0  0
    0.0000   -3.4726    0.0000 N   0  0  0  0  0  0  0  0  0  0  0  0
   10.9892   -2.1099    0.0000 O   0  0  0  0  0  0  0  0  0  0  0  0
    9.8573   -0.1319    0.0000 O   0  0  0  0  0  0  0  0  0  0  0  0
  1  2  2  0  0  0  0
  1  3  1  0  0  0  0
  1  4  1  0  0  0  0
  2  5  1  0  0  0  0
  2  6  1  0  0  0  0
  3  7  2  0  0  0  0
  3  8  1  0  0  0  0
  4  9  2  0  0  0  0
  5 10  1  0  0  0  0
  5  7  1  0  0  0  0
  6 11  2  0  0  0  0
  7 12  1  0  0  0  0
  8 13  1  0  0  0  0
  9 11  1  0  0  0  0
 10 14  1  0  0  0  0
 13 15  1  0  0  0  0
 13 16  1  0  0  0  0
 14 17  1  0  0  0  0
 15 18  2  0  0  0  0
 16 19  2  0  0  0  0
 17 20  1  0  0  0  0
 17 21  2  0  0  0  0
 18 19  1  0  0  0  0
M  END
> <ID>
11574

> <Formula>
C16H17N3O2

> <FW>
283.3251

> <DSSTox_CID>
26281

> <DSSTox_RID>
81507

> <DSSTox_GSID>
46281

> <DSSTox_FileID_Sort>
6188

> <TS_ChemName>
Dazmegrel

> <TS_ChemName_Synonyms>


> <TS_CASRN>
76894-77-4

> <CASRN_ChemName_Relationship>
primary

> <TS_Description>
single chemical compound

> <ChemNote>


> <STRUCTURE_Shown>
tested chemical

> <STRUCTURE_Formula>
C16H17N3O2

> <STRUCTURE_MW>
283.3251

> <STRUCTURE_ChemType>
defined organic

> <STRUCTURE_DefinedOrganicForm>
parent

> <STRUCTURE_IUPAC>
3-[3-(1H-imidazol-1-ylmethyl)-2-methyl-1H-indol-1-yl]propanoic acid

> <STRUCTURE_SMILES>
O=C(O)CCn3c1ccccc1c(Cn2ccnc2)c3C

> <STRUCTURE_SMILES_Desalt>
O=C(O)CCn3c1ccccc1c(Cn2ccnc2)c3C

> <Substance_modify_yyyymmdd>
20110815

$$$$
