769-92-6
ChemmineR-0915142007XD

 11 11  0  0  0  0  0  0  0  0  1 V2000
    0.0000   -1.3304    0.0000 N   0  0  0  0  0  0  0  0  0  0  0  0
    1.3304   -1.3304    0.0000 C   0  0  0  0  0  0  0  0  0  0  0  0
    1.9890   -0.1796    0.0000 C   0  0  0  0  0  0  0  0  0  0  0  0
    1.9890   -2.4812    0.0000 C   0  0  0  0  0  0  0  0  0  0  0  0
    3.3194   -0.1796    0.0000 C   0  0  0  0  0  0  0  0  0  0  0  0
    3.3194   -2.4812    0.0000 C   0  0  0  0  0  0  0  0  0  0  0  0
    3.9913   -1.3304    0.0000 C   0  0  0  0  0  0  0  0  0  0  0  0
    5.3217   -1.3304    0.0000 C   0  0  0  0  0  0  0  0  0  0  0  0
    5.3217   -2.6609    0.0000 C   0  0  0  0  0  0  0  0  0  0  0  0
    5.3217    0.0000    0.0000 C   0  0  0  0  0  0  0  0  0  0  0  0
    6.6521   -1.3304    0.0000 C   0  0  0  0  0  0  0  0  0  0  0  0
  1  2  1  0  0  0  0
  2  3  2  0  0  0  0
  2  4  1  0  0  0  0
  3  5  1  0  0  0  0
  4  6  2  0  0  0  0
  5  7  2  0  0  0  0
  6  7  1  0  0  0  0
  7  8  1  0  0  0  0
  8  9  1  0  0  0  0
  8 10  1  0  0  0  0
  8 11  1  0  0  0  0
M  END
> <ID>
13242

> <Formula>
C10H15N

> <FW>
149.2328

> <DSSTox_CID>
28155

> <DSSTox_RID>
82717

> <DSSTox_GSID>
48181

> <DSSTox_FileID_Sort>
7394

> <TS_ChemName>
4-tert-Butylaniline

> <TS_ChemName_Synonyms>


> <TS_CASRN>
769-92-6

> <CASRN_ChemName_Relationship>
primary

> <TS_Description>
single chemical compound

> <ChemNote>


> <STRUCTURE_Shown>
tested chemical

> <STRUCTURE_Formula>
C10H15N

> <STRUCTURE_MW>
149.2328

> <STRUCTURE_ChemType>
defined organic

> <STRUCTURE_DefinedOrganicForm>
parent

> <STRUCTURE_IUPAC>
4-tert-butylaniline

> <STRUCTURE_SMILES>
CC(C)(C)c1ccc(N)cc1

> <STRUCTURE_SMILES_Desalt>
CC(C)(C)c1ccc(N)cc1

> <Substance_modify_yyyymmdd>
20110617

$$$$
