7696-12-0
ChemmineR-0915142007XD

 24 26  0  0  1  0  0  0  0  0  1 V2000
    8.1406   -2.3509    0.0000 N   0  0  0  0  0  0  0  0  0  0  0  0
    3.0262   -1.3380    0.0000 C   0  0  0  0  0  0  0  0  0  0  0  0
    2.3259   -2.4885    0.0000 C   0  0  0  0  0  0  0  0  0  0  0  0
    9.2161   -3.1262    0.0000 C   0  0  0  0  0  0  0  0  0  0  0  0
    8.5408   -1.0629    0.0000 C   0  0  0  0  0  0  0  0  0  0  0  0
    3.6639   -2.5135    0.0000 C   0  0  0  0  0  0  0  0  0  0  0  0
   10.2915   -2.3509    0.0000 C   0  0  0  0  0  0  0  0  0  0  0  0
    9.8788   -1.0629    0.0000 C   0  0  0  0  0  0  0  0  0  0  0  0
    7.0152   -3.0762    0.0000 C   0  0  0  0  0  0  0  0  0  0  0  0
    4.7018   -3.0762    0.0000 C   0  0  0  0  0  0  0  0  0  0  0  0
    1.1629   -3.1262    0.0000 C   0  0  0  0  0  0  0  0  0  0  0  0
    5.8773   -2.4134    0.0000 O   0  0  0  0  0  0  0  0  0  0  0  0
    9.2161   -4.4392    0.0000 O   0  0  0  0  0  0  0  0  0  0  0  0
    7.7780    0.0000    0.0000 O   0  0  0  0  0  0  0  0  0  0  0  0
    1.1629   -4.4642    0.0000 C   0  0  0  0  0  0  0  0  0  0  0  0
    4.7018   -4.4142    0.0000 O   0  0  0  0  0  0  0  0  0  0  0  0
    2.3634   -0.1626    0.0000 C   0  0  0  0  0  0  0  0  0  0  0  0
    3.6889   -0.1751    0.0000 C   0  0  0  0  0  0  0  0  0  0  0  0
   10.7917   -0.0625    0.0000 C   0  0  0  0  0  0  0  0  0  0  0  0
   11.6170   -2.6260    0.0000 C   0  0  0  0  0  0  0  0  0  0  0  0
    2.2884   -5.1520    0.0000 C   0  0  0  0  0  0  0  0  0  0  0  0
    0.0000   -5.1145    0.0000 C   0  0  0  0  0  0  0  0  0  0  0  0
   12.5048   -1.6256    0.0000 C   0  0  0  0  0  0  0  0  0  0  0  0
   12.0922   -0.3501    0.0000 C   0  0  0  0  0  0  0  0  0  0  0  0
  1  4  1  0  0  0  0
  1  5  1  0  0  0  0
  1  9  1  0  0  0  0
  2  6  1  0  0  0  0
  2 17  1  0  0  0  0
  2 18  1  0  0  0  0
  2  3  1  0  0  0  0
  3  6  1  0  0  0  0
  3 11  1  1  0  0  0
  4  7  1  0  0  0  0
  4 13  2  0  0  0  0
  5  8  1  0  0  0  0
  5 14  2  0  0  0  0
  6 10  1  6  0  0  0
  7 20  1  0  0  0  0
  7  8  2  0  0  0  0
  8 19  1  0  0  0  0
  9 12  1  0  0  0  0
 10 12  1  0  0  0  0
 10 16  2  0  0  0  0
 11 15  2  0  0  0  0
 15 21  1  0  0  0  0
 15 22  1  0  0  0  0
 19 24  1  0  0  0  0
 20 23  1  0  0  0  0
 23 24  1  0  0  0  0
M  END
> <ID>
6564

> <Formula>
C19H25NO4

> <FW>
331.4061

> <DSSTox_CID>
12649

> <DSSTox_RID>
79025

> <DSSTox_GSID>
32649

> <DSSTox_FileID_Sort>
3707

> <TS_ChemName>
Tetramethrin

> <TS_ChemName_Synonyms>
Tetramethrin (Cyclohexene-1,2-dicarboximido)methyl 2,2-dimethyl-)

> <TS_CASRN>
7696-12-0

> <CASRN_ChemName_Relationship>
primary

> <TS_Description>
mixture or formulation

> <ChemNote>
mixture of four stereoisomers: [1R,trans]; [1R,cis], [1S,trans]; and [1S,cis]; approx ratio 4:1:4:1; structure shown 1R,trans [1166-46-7]; stereochem

> <STRUCTURE_Shown>
representative isomer in mixture

> <STRUCTURE_Formula>
C19H25NO4

> <STRUCTURE_MW>
331.4061

> <STRUCTURE_ChemType>
defined organic

> <STRUCTURE_DefinedOrganicForm>
parent

> <STRUCTURE_IUPAC>
(1,3-dioxo-1,3,4,5,6,7-hexahydro-2H-isoindol-2-yl)methyl (1R,3R)-2,2-dimethyl-3-(2-methylprop-1-en-1-yl)cyclopropanecarboxylate

> <STRUCTURE_SMILES>
C\C(C)=C/[C@@H]3[C@@H](C(=O)OCN2C(=O)C=1CCCCC=1C2=O)C3(C)C

> <STRUCTURE_SMILES_Desalt>
C\C(C)=C/[C@@H]3[C@@H](C(=O)OCN2C(=O)C=1CCCCC=1C2=O)C3(C)C

> <Substance_modify_yyyymmdd>
20080429

$$$$
