77-04-3
ChemmineR-0915142007XD

 12 12  0  0  0  0  0  0  0  0  1 V2000
    2.2988   -1.9769    0.0000 C   0  0  0  0  0  0  0  0  0  0  0  0
    2.2988   -0.6529    0.0000 C   0  0  0  0  0  0  0  0  0  0  0  0
    1.1494   -2.6344    0.0000 C   0  0  0  0  0  0  0  0  0  0  0  0
    1.1494    0.0000    0.0000 N   0  0  0  0  0  0  0  0  0  0  0  0
    0.0000   -1.9769    0.0000 C   0  0  0  0  0  0  0  0  0  0  0  0
    0.0000   -0.6529    0.0000 C   0  0  0  0  0  0  0  0  0  0  0  0
    3.4941    0.0000    0.0000 O   0  0  0  0  0  0  0  0  0  0  0  0
    1.1494   -3.9585    0.0000 O   0  0  0  0  0  0  0  0  0  0  0  0
    2.2988   -3.3056    0.0000 C   0  0  0  0  0  0  0  0  0  0  0  0
    3.4482   -1.2781    0.0000 C   0  0  0  0  0  0  0  0  0  0  0  0
    4.5975   -1.9631    0.0000 C   0  0  0  0  0  0  0  0  0  0  0  0
    3.4482   -3.9585    0.0000 C   0  0  0  0  0  0  0  0  0  0  0  0
  1  2  1  0  0  0  0
  1  3  1  0  0  0  0
  1  9  1  0  0  0  0
  1 10  1  0  0  0  0
  2  4  1  0  0  0  0
  2  7  2  0  0  0  0
  3  5  1  0  0  0  0
  3  8  2  0  0  0  0
  4  6  1  0  0  0  0
  5  6  2  0  0  0  0
  9 12  1  0  0  0  0
 10 11  1  0  0  0  0
M  END
> <ID>
10847

> <Formula>
C9H13NO2

> <FW>
167.205

> <DSSTox_CID>
25262

> <DSSTox_RID>
80777

> <DSSTox_GSID>
45262

> <DSSTox_FileID_Sort>
5458

> <TS_ChemName>
Pyrithyldione

> <TS_ChemName_Synonyms>


> <TS_CASRN>
77-04-3

> <CASRN_ChemName_Relationship>
primary

> <TS_Description>
single chemical compound

> <ChemNote>


> <STRUCTURE_Shown>
tested chemical

> <STRUCTURE_Formula>
C9H13NO2

> <STRUCTURE_MW>
167.205

> <STRUCTURE_ChemType>
defined organic

> <STRUCTURE_DefinedOrganicForm>
parent

> <STRUCTURE_IUPAC>
3,3-diethylpyridine-2,4(1H,3H)-dione

> <STRUCTURE_SMILES>
CCC1(CC)C(=O)C=CNC1=O

> <STRUCTURE_SMILES_Desalt>
CCC1(CC)C(=O)C=CNC1=O

> <Substance_modify_yyyymmdd>
20100107

$$$$
