77-19-0
ChemmineR-0915142007XD

 22 23  0  0  0  0  0  0  0  0  1 V2000
    7.3132   -3.9297    0.0000 C   0  0  0  0  0  0  0  0  0  0  0  0
    5.9905   -3.9297    0.0000 C   0  0  0  0  0  0  0  0  0  0  0  0
    5.3195   -2.7796    0.0000 O   0  0  0  0  0  0  0  0  0  0  0  0
    5.3195   -5.0799    0.0000 O   0  0  0  0  0  0  0  0  0  0  0  0
    3.9873   -5.0799    0.0000 C   0  0  0  0  0  0  0  0  0  0  0  0
    3.3259   -6.2397    0.0000 C   0  0  0  0  0  0  0  0  0  0  0  0
    1.9936   -6.2397    0.0000 N   0  0  0  0  0  0  0  0  0  0  0  0
    1.3323   -5.0799    0.0000 C   0  0  0  0  0  0  0  0  0  0  0  0
    0.0000   -5.0799    0.0000 C   0  0  0  0  0  0  0  0  0  0  0  0
    1.3323   -7.3898    0.0000 C   0  0  0  0  0  0  0  0  0  0  0  0
    1.9936   -8.5400    0.0000 C   0  0  0  0  0  0  0  0  0  0  0  0
    7.0831   -2.6262    0.0000 C   0  0  0  0  0  0  0  0  0  0  0  0
    5.8371   -2.1662    0.0000 C   0  0  0  0  0  0  0  0  0  0  0  0
    5.6071   -0.8530    0.0000 C   0  0  0  0  0  0  0  0  0  0  0  0
    6.6231    0.0000    0.0000 C   0  0  0  0  0  0  0  0  0  0  0  0
    7.8691   -0.4601    0.0000 C   0  0  0  0  0  0  0  0  0  0  0  0
    8.0991   -1.7636    0.0000 C   0  0  0  0  0  0  0  0  0  0  0  0
    8.5688   -3.4793    0.0000 C   0  0  0  0  0  0  0  0  0  0  0  0
    9.5847   -4.3323    0.0000 C   0  0  0  0  0  0  0  0  0  0  0  0
    9.3547   -5.6454    0.0000 C   0  0  0  0  0  0  0  0  0  0  0  0
    8.0991   -6.0959    0.0000 C   0  0  0  0  0  0  0  0  0  0  0  0
    7.0831   -5.2429    0.0000 C   0  0  0  0  0  0  0  0  0  0  0  0
  1  2  1  0  0  0  0
  1 12  1  0  0  0  0
  1 18  1  0  0  0  0
  1 22  1  0  0  0  0
  2  3  2  0  0  0  0
  2  4  1  0  0  0  0
  4  5  1  0  0  0  0
  5  6  1  0  0  0  0
  6  7  1  0  0  0  0
  7  8  1  0  0  0  0
  7 10  1  0  0  0  0
  8  9  1  0  0  0  0
 10 11  1  0  0  0  0
 12 13  1  0  0  0  0
 12 17  1  0  0  0  0
 13 14  1  0  0  0  0
 14 15  1  0  0  0  0
 15 16  1  0  0  0  0
 16 17  1  0  0  0  0
 18 19  1  0  0  0  0
 19 20  1  0  0  0  0
 20 21  1  0  0  0  0
 21 22  1  0  0  0  0
M  END
> <ID>
2635

> <Formula>
C19H35NO2

> <FW>
309.4867

> <DSSTox_CID>
2926

> <DSSTox_RID>
76790

> <DSSTox_GSID>
22926

> <DSSTox_FileID_Sort>
1474

> <TS_ChemName>
Dicyclomine

> <TS_ChemName_Synonyms>


> <TS_CASRN>
77-19-0

> <CASRN_ChemName_Relationship>
primary

> <TS_Description>
single chemical compound

> <ChemNote>


> <STRUCTURE_Shown>
tested chemical

> <STRUCTURE_Formula>
C19H35NO2

> <STRUCTURE_MW>
309.4867

> <STRUCTURE_ChemType>
defined organic

> <STRUCTURE_DefinedOrganicForm>
parent

> <STRUCTURE_IUPAC>
2-(diethylamino)ethyl 1,1'-bi(cyclohexyl)-1-carboxylate

> <STRUCTURE_SMILES>
CCN(CC)CCOC(=O)C1(CCCCC1)C2CCCCC2

> <STRUCTURE_SMILES_Desalt>
CCN(CC)CCOC(=O)C1(CCCCC1)C2CCCCC2

> <Substance_modify_yyyymmdd>
20080429

$$$$
