77-49-6
ChemmineR-0915142007XD

  9  8  0  0  0  0  0  0  0  0  2 V2000
    1.3311   -0.6556    0.0000 C   0  0  0  0  0  0  0  0  0  0  0  0
    1.3311   -1.9867    0.0000 C   0  0  0  0  0  0  0  0  0  0  0  0
    2.6582   -1.9867    0.0000 C   0  0  0  0  0  0  0  0  0  0  0  0
    0.1748    0.0000    0.0000 O   0  0  0  0  0  0  0  0  0  0  0  0
    3.3336   -3.1389    0.0000 O   0  0  0  0  0  0  0  0  0  0  0  0
    0.0000   -1.9867    0.0000 C   0  0  0  0  0  0  0  0  0  0  0  0
    1.3311   -3.3177    0.0000 N   0  3  0  0  0  0  0  0  0  0  0  0
    2.4833   -3.9733    0.0000 O   0  5  0  0  0  0  0  0  0  0  0  0
    0.1748   -3.9733    0.0000 O   0  0  0  0  0  0  0  0  0  0  0  0
  1  2  1  0  0  0  0
  1  4  1  0  0  0  0
  2  3  1  0  0  0  0
  2  6  1  0  0  0  0
  2  7  1  0  0  0  0
  3  5  1  0  0  0  0
  7  8  1  0  0  0  0
  7  9  2  0  0  0  0
M  END
> <ID>
8403

> <Formula>
C4H9NO4

> <FW>
135.1186

> <DSSTox_CID>
21437

> <DSSTox_RID>
79733

> <DSSTox_GSID>
41437

> <DSSTox_FileID_Sort>
4415

> <TS_ChemName>
2-Methyl-2-nitro-1,3-propanediol

> <TS_ChemName_Synonyms>


> <TS_CASRN>
77-49-6

> <CASRN_ChemName_Relationship>
primary

> <TS_Description>
single chemical compound

> <ChemNote>


> <STRUCTURE_Shown>
tested chemical

> <STRUCTURE_Formula>
C4H9NO4

> <STRUCTURE_MW>
135.1186

> <STRUCTURE_ChemType>
defined organic

> <STRUCTURE_DefinedOrganicForm>
parent

> <STRUCTURE_IUPAC>
2-methyl-2-nitropropane-1,3-diol

> <STRUCTURE_SMILES>
[O-][N+](=O)C(C)(CO)CO

> <STRUCTURE_SMILES_Desalt>
[O-][N+](=O)C(C)(CO)CO

> <Substance_modify_yyyymmdd>
20080825

$$$$
