77-48-5
ChemmineR-0915142007XD

 11 11  0  0  0  0  0  0  0  0  1 V2000
    2.3427   -1.3293    0.0000 N    0  0  0  0  0  0  0  0  0  0  0  0
    3.4127   -2.1164    0.0000 C    0  0  0  0  0  0  0  0  0  0  0  0
    1.2680   -2.1164    0.0000 C    0  0  0  0  0  0  0  0  0  0  0  0
    3.0120   -3.3844    0.0000 N    0  0  0  0  0  0  0  0  0  0  0  0
    4.6807   -1.7158    0.0000 O    0  0  0  0  0  0  0  0  0  0  0  0
    0.0000   -1.7158    0.0000 O    0  0  0  0  0  0  0  0  0  0  0  0
    1.6686   -3.3844    0.0000 C    0  0  0  0  0  0  0  0  0  0  0  0
    3.7851   -4.4591    0.0000 Br   0  0  0  0  0  0  0  0  0  0  0  0
    2.3427    0.0000    0.0000 Br   0  0  0  0  0  0  0  0  0  0  0  0
    0.4667   -3.9265    0.0000 C    0  0  0  0  0  0  0  0  0  0  0  0
    1.5414   -4.7137    0.0000 C    0  0  0  0  0  0  0  0  0  0  0  0
  1  2  1  0  0  0  0
  1  3  1  0  0  0  0
  1  9  1  0  0  0  0
  2  4  1  0  0  0  0
  2  5  2  0  0  0  0
  3  6  2  0  0  0  0
  3  7  1  0  0  0  0
  4  7  1  0  0  0  0
  4  8  1  0  0  0  0
  7 10  1  0  0  0  0
  7 11  1  0  0  0  0
M  END
> <ID>
7032

> <Formula>
C5H6Br2N2O2

> <FW>
285.9213

> <DSSTox_CID>
15341

> <DSSTox_RID>
79257

> <DSSTox_GSID>
35341

> <DSSTox_FileID_Sort>
3939

> <TS_ChemName>
1,3-Dibromo-5,5-dimethylhydantoin

> <TS_ChemName_Synonyms>


> <TS_CASRN>
77-48-5

> <CASRN_ChemName_Relationship>
primary

> <TS_Description>
single chemical compound

> <ChemNote>


> <STRUCTURE_Shown>
tested chemical

> <STRUCTURE_Formula>
C5H6Br2N2O2

> <STRUCTURE_MW>
285.9213

> <STRUCTURE_ChemType>
defined organic

> <STRUCTURE_DefinedOrganicForm>
parent

> <STRUCTURE_IUPAC>
1,3-dibromo-5,5-dimethylimidazolidine-2,4-dione

> <STRUCTURE_SMILES>
O=C1N(Br)C(=O)N(Br)C1(C)C

> <STRUCTURE_SMILES_Desalt>
O=C1N(Br)C(=O)N(Br)C1(C)C

> <Substance_modify_yyyymmdd>
20080429

$$$$
