77-47-4
ChemmineR-0915142007XD

 11 11  0  0  0  0  0  0  0  0  1 V2000
    3.4265   -0.1676    0.0000 Cl   0  0  0  0  0  0  0  0  0  0  0  0
    3.2868   -1.4898    0.0000 C    0  0  0  0  0  0  0  0  0  0  0  0
    3.4265   -2.8119    0.0000 C    0  0  0  0  0  0  0  0  0  0  0  0
    2.2114   -3.3566    0.0000 C    0  0  0  0  0  0  0  0  0  0  0  0
    1.3222   -2.3650    0.0000 C    0  0  0  0  0  0  0  0  0  0  0  0
    1.9879   -1.2151    0.0000 C    0  0  0  0  0  0  0  0  0  0  0  0
    1.4479    0.0000    0.0000 Cl   0  0  0  0  0  0  0  0  0  0  0  0
    0.0000   -2.5047    0.0000 Cl   0  0  0  0  0  0  0  0  0  0  0  0
    1.9367   -4.6555    0.0000 Cl   0  0  0  0  0  0  0  0  0  0  0  0
    4.5810   -3.4777    0.0000 Cl   0  0  0  0  0  0  0  0  0  0  0  0
    4.6183   -1.4898    0.0000 Cl   0  0  0  0  0  0  0  0  0  0  0  0
  1  2  1  0  0  0  0
  2  3  1  0  0  0  0
  2  6  1  0  0  0  0
  2 11  1  0  0  0  0
  3  4  2  0  0  0  0
  3 10  1  0  0  0  0
  4  5  1  0  0  0  0
  4  9  1  0  0  0  0
  5  6  2  0  0  0  0
  5  8  1  0  0  0  0
  6  7  1  0  0  0  0
M  END
> <ID>
659

> <Formula>
C5Cl6

> <FW>
272.7715

> <DSSTox_CID>
688

> <DSSTox_RID>
75736

> <DSSTox_GSID>
20688

> <DSSTox_FileID_Sort>
420

> <TS_ChemName>
Hexachlorocyclopentadiene

> <TS_ChemName_Synonyms>
Hexachlorocyclopentadiene (HCCPD) 1,3-Cyclopentadiene, 1,2,3,4,5,5-hexachloro-

> <TS_CASRN>
77-47-4

> <CASRN_ChemName_Relationship>
primary

> <TS_Description>
single chemical compound

> <ChemNote>


> <STRUCTURE_Shown>
tested chemical

> <STRUCTURE_Formula>
C5Cl6

> <STRUCTURE_MW>
272.7715

> <STRUCTURE_ChemType>
defined organic

> <STRUCTURE_DefinedOrganicForm>
parent

> <STRUCTURE_IUPAC>
1,2,3,4,5,5-hexachlorocyclopenta-1,3-diene

> <STRUCTURE_SMILES>
ClC=1C(Cl)=C(Cl)C(Cl)(Cl)C=1Cl

> <STRUCTURE_SMILES_Desalt>
ClC=1C(Cl)=C(Cl)C(Cl)(Cl)C=1Cl

> <Substance_modify_yyyymmdd>
20080429

$$$$
