77-53-2
ChemmineR-0915142007XD

 17 19  0  0  1  0  0  0  0  0  1 V2000
    2.0024   -1.6844    0.0000 C   0  0  0  0  0  0  0  0  0  0  0  0
    2.0024   -3.0095    0.0000 C   0  0  0  0  0  0  0  0  0  0  0  0
    3.2745   -1.2898    0.0000 C   0  0  0  0  0  0  0  0  0  0  0  0
    2.3616   -0.3769    0.0000 C   0  0  0  0  0  0  0  0  0  0  0  0
    0.7892   -1.2898    0.0000 C   0  0  0  0  0  0  0  0  0  0  0  0
    3.2745   -3.4041    0.0000 C   0  0  0  0  0  0  0  0  0  0  0  0
    0.7892   -3.4041    0.0000 C   0  0  0  0  0  0  0  0  0  0  0  0
    4.0460   -2.3499    0.0000 C   0  0  0  0  0  0  0  0  0  0  0  0
    3.6691   -0.0471    0.0000 C   0  0  0  0  0  0  0  0  0  0  0  0
    0.0000   -2.3499    0.0000 C   0  0  0  0  0  0  0  0  0  0  0  0
    0.3946    0.0000    0.0000 C   0  0  0  0  0  0  0  0  0  0  0  0
    2.9624   -4.6938    0.0000 C   0  0  0  0  0  0  0  0  0  0  0  0
    4.2345   -4.3464    0.0000 C   0  0  0  0  0  0  0  0  0  0  0  0
    4.5819   -0.9953    0.0000 C   0  0  0  0  0  0  0  0  0  0  0  0
    5.8894   -1.3369    0.0000 C   0  0  0  0  0  0  0  0  0  0  0  0
    5.5419   -0.0471    0.0000 O   0  0  0  0  0  0  0  0  0  0  0  0
    1.9199   -4.2816    0.0000 H   0  0  0  0  0  0  0  0  0  0  0  0
  1  2  1  0  0  0  0
  1  3  1  6  0  0  0
  1  4  1  0  0  0  0
  1  5  1  0  0  0  0
  2  6  1  0  0  0  0
  2  7  1  0  0  0  0
  2 17  1  1  0  0  0
  8  3  1  6  0  0  0
  4  9  1  0  0  0  0
  5 10  1  0  0  0  0
  5 11  1  1  0  0  0
  6 12  1  0  0  0  0
  6 13  1  0  0  0  0
  6  8  1  0  0  0  0
  7 10  1  0  0  0  0
  8 14  1  0  0  0  0
  9 14  1  0  0  0  0
 14 15  1  6  0  0  0
 14 16  1  1  0  0  0
M  END
> <ID>
8240

> <Formula>
C15H26O

> <FW>
222.3663

> <DSSTox_CID>
21269

> <DSSTox_RID>
79672

> <DSSTox_GSID>
41269

> <DSSTox_FileID_Sort>
4354

> <TS_ChemName>
1H-3a,7-Methanoazulen-6-ol, octahydro-3,6,8,8-tetramethyl-, (3R,3aS,6R,7R,8aS)-

> <TS_ChemName_Synonyms>


> <TS_CASRN>
77-53-2

> <CASRN_ChemName_Relationship>
primary

> <TS_Description>
single chemical compound

> <ChemNote>
stereochem

> <STRUCTURE_Shown>
tested chemical

> <STRUCTURE_Formula>
C15H26O

> <STRUCTURE_MW>
222.3663

> <STRUCTURE_ChemType>
defined organic

> <STRUCTURE_DefinedOrganicForm>
parent

> <STRUCTURE_IUPAC>
(8alpha)-cedran-8-ol

> <STRUCTURE_SMILES>
C[C@@H]3CC[C@@H]1[C@]23C[C@H](C1(C)C)[C@](C)(O)CC2

> <STRUCTURE_SMILES_Desalt>
C[C@@H]3CC[C@@H]1[C@]23C[C@H](C1(C)C)[C@](C)(O)CC2

> <Substance_modify_yyyymmdd>
20080825

$$$$
