77-58-7
ChemmineR-0915142007XD

 37 36  0  0  0  0  0  0  0  0  1 V2000
    0.0000    0.0000    0.0000 C    0  0  0  0  0  0  0  0  0  0  0  0
    1.2857   -0.3372    0.0000 C    0  0  0  0  0  0  0  0  0  0  0  0
    1.6230   -1.6230    0.0000 C    0  0  0  0  0  0  0  0  0  0  0  0
    2.9087   -1.9602    0.0000 C    0  0  0  0  0  0  0  0  0  0  0  0
    3.2670   -3.2459    0.0000 C    0  0  0  0  0  0  0  0  0  0  0  0
    4.5527   -3.5832    0.0000 C    0  0  0  0  0  0  0  0  0  0  0  0
    4.8900   -4.8689    0.0000 C    0  0  0  0  0  0  0  0  0  0  0  0
    6.1757   -5.2272    0.0000 C    0  0  0  0  0  0  0  0  0  0  0  0
    6.5129   -6.5129    0.0000 C    0  0  0  0  0  0  0  0  0  0  0  0
    7.7987   -6.8502    0.0000 C    0  0  0  0  0  0  0  0  0  0  0  0
    8.1359   -8.1359    0.0000 C    0  0  0  0  0  0  0  0  0  0  0  0
    9.4216   -8.4731    0.0000 C    0  0  0  0  0  0  0  0  0  0  0  0
   10.3701   -7.5457    0.0000 O    0  0  0  0  0  0  0  0  0  0  0  0
    9.7800   -9.7589    0.0000 O    0  0  0  0  0  0  0  0  0  0  0  0
    9.7800  -11.0868    0.0000 Sn   0  0  0  0  0  0  0  0  0  0  0  0
    9.7800  -12.4146    0.0000 C    0  0  0  0  0  0  0  0  0  0  0  0
   10.9181  -13.0891    0.0000 C    0  0  0  0  0  0  0  0  0  0  0  0
   12.0774  -12.4146    0.0000 C    0  0  0  0  0  0  0  0  0  0  0  0
   13.2367  -13.0891    0.0000 C    0  0  0  0  0  0  0  0  0  0  0  0
    8.4521  -11.0868    0.0000 C    0  0  0  0  0  0  0  0  0  0  0  0
    7.7776  -12.2460    0.0000 C    0  0  0  0  0  0  0  0  0  0  0  0
    6.4497  -12.2460    0.0000 C    0  0  0  0  0  0  0  0  0  0  0  0
    5.7752  -11.0868    0.0000 C    0  0  0  0  0  0  0  0  0  0  0  0
   11.1078  -11.0868    0.0000 O    0  0  0  0  0  0  0  0  0  0  0  0
   11.7612   -9.9486    0.0000 C    0  0  0  0  0  0  0  0  0  0  0  0
   13.0891   -9.9486    0.0000 O    0  0  0  0  0  0  0  0  0  0  0  0
   11.1078   -8.7893    0.0000 C    0  0  0  0  0  0  0  0  0  0  0  0
   11.7612   -7.6300    0.0000 C    0  0  0  0  0  0  0  0  0  0  0  0
   13.0891   -7.6300    0.0000 C    0  0  0  0  0  0  0  0  0  0  0  0
   13.7636   -6.4919    0.0000 C    0  0  0  0  0  0  0  0  0  0  0  0
   15.0915   -6.4919    0.0000 C    0  0  0  0  0  0  0  0  0  0  0  0
   15.7660   -5.3326    0.0000 C    0  0  0  0  0  0  0  0  0  0  0  0
   17.0938   -5.3326    0.0000 C    0  0  0  0  0  0  0  0  0  0  0  0
   17.7472   -4.1733    0.0000 C    0  0  0  0  0  0  0  0  0  0  0  0
   19.0751   -4.1733    0.0000 C    0  0  0  0  0  0  0  0  0  0  0  0
   19.7496   -3.0352    0.0000 C    0  0  0  0  0  0  0  0  0  0  0  0
   21.0775   -3.0352    0.0000 C    0  0  0  0  0  0  0  0  0  0  0  0
  1  2  1  0  0  0  0
  2  3  1  0  0  0  0
  3  4  1  0  0  0  0
  4  5  1  0  0  0  0
  5  6  1  0  0  0  0
  6  7  1  0  0  0  0
  7  8  1  0  0  0  0
  8  9  1  0  0  0  0
  9 10  1  0  0  0  0
 10 11  1  0  0  0  0
 11 12  1  0  0  0  0
 12 13  2  0  0  0  0
 12 14  1  0  0  0  0
 14 15  1  0  0  0  0
 15 16  1  0  0  0  0
 15 20  1  0  0  0  0
 15 24  1  0  0  0  0
 16 17  1  0  0  0  0
 17 18  1  0  0  0  0
 18 19  1  0  0  0  0
 20 21  1  0  0  0  0
 21 22  1  0  0  0  0
 22 23  1  0  0  0  0
 24 25  1  0  0  0  0
 25 26  2  0  0  0  0
 25 27  1  0  0  0  0
 27 28  1  0  0  0  0
 28 29  1  0  0  0  0
 29 30  1  0  0  0  0
 30 31  1  0  0  0  0
 31 32  1  0  0  0  0
 32 33  1  0  0  0  0
 33 34  1  0  0  0  0
 34 35  1  0  0  0  0
 35 36  1  0  0  0  0
 36 37  1  0  0  0  0
M  END
> <ID>
3939

> <Formula>
C32H64O4Sn

> <FW>
631.5582

> <DSSTox_CID>
4961

> <DSSTox_RID>
77599

> <DSSTox_GSID>
24961

> <DSSTox_FileID_Sort>
2282

> <TS_ChemName>
Dibutyltin dilaurate

> <TS_ChemName_Synonyms>
Dibutyltin dilaurate (Stannane, dibutylbis[(1-oxododecyl)oxy]-)

> <TS_CASRN>
77-58-7

> <CASRN_ChemName_Relationship>
primary

> <TS_Description>
single chemical compound

> <ChemNote>


> <STRUCTURE_Shown>
tested chemical

> <STRUCTURE_Formula>
C32H64O4Sn

> <STRUCTURE_MW>
631.5582

> <STRUCTURE_ChemType>
organometallic

> <STRUCTURE_DefinedOrganicForm>


> <STRUCTURE_IUPAC>
dibutyl[bis(dodecanoyloxy)]stannane

> <STRUCTURE_SMILES>
O=C(O[Sn](CCCC)(OC(=O)CCCCCCCCCCC)CCCC)CCCCCCCCCCC

> <STRUCTURE_SMILES_Desalt>
O=C(O[Sn](CCCC)(OC(=O)CCCCCCCCCCC)CCCC)CCCCCCCCCCC

> <Substance_modify_yyyymmdd>
20080429

$$$$
