77-79-2
ChemmineR-0915142007XD

  7  7  0  0  0  0  0  0  0  0  1 V2000
    1.1893   -3.1857    0.0000 O   0  0  0  0  0  0  0  0  0  0  0  0
    1.3310   -1.8647    0.0000 S   0  0  0  0  0  0  0  0  0  0  0  0
    0.0000   -1.8647    0.0000 O   0  0  0  0  0  0  0  0  0  0  0  0
    1.1893   -0.5403    0.0000 C   0  0  0  0  0  0  0  0  0  0  0  0
    2.4049    0.0000    0.0000 C   0  0  0  0  0  0  0  0  0  0  0  0
    3.2944   -0.9883    0.0000 C   0  0  0  0  0  0  0  0  0  0  0  0
    2.6290   -2.1414    0.0000 C   0  0  0  0  0  0  0  0  0  0  0  0
  1  2  2  0  0  0  0
  2  3  2  0  0  0  0
  2  4  1  0  0  0  0
  2  7  1  0  0  0  0
  4  5  1  0  0  0  0
  5  6  2  0  0  0  0
  6  7  1  0  0  0  0
M  END
> <ID>
1244

> <Formula>
C4H6O2S

> <FW>
118.1542

> <DSSTox_CID>
1294

> <DSSTox_RID>
76065

> <DSSTox_GSID>
21294

> <DSSTox_FileID_Sort>
749

> <TS_ChemName>
3-Sulfolene

> <TS_ChemName_Synonyms>
Butadiene sulfone (3-Sulfolene) (Thiophene, 2,5-dihydro-, 1,1-dioxide)

> <TS_CASRN>
77-79-2

> <CASRN_ChemName_Relationship>
primary

> <TS_Description>
single chemical compound

> <ChemNote>


> <STRUCTURE_Shown>
tested chemical

> <STRUCTURE_Formula>
C4H6O2S

> <STRUCTURE_MW>
118.1542

> <STRUCTURE_ChemType>
defined organic

> <STRUCTURE_DefinedOrganicForm>
parent

> <STRUCTURE_IUPAC>
2,5-dihydrothiophene 1,1-dioxide

> <STRUCTURE_SMILES>
O=S1(=O)CC=CC1

> <STRUCTURE_SMILES_Desalt>
O=S1(=O)CC=CC1

> <Substance_modify_yyyymmdd>
20080429

$$$$
