77-76-9
ChemmineR-0915142007XD

  7  6  0  0  0  0  0  0  0  0  1 V2000
    2.0042    0.0000    0.0000 C   0  0  0  0  0  0  0  0  0  0  0  0
    2.0042   -1.3306    0.0000 C   0  0  0  0  0  0  0  0  0  0  0  0
    3.3347   -1.3306    0.0000 C   0  0  0  0  0  0  0  0  0  0  0  0
    0.6736   -1.3306    0.0000 O   0  0  0  0  0  0  0  0  0  0  0  0
    0.0000   -0.1934    0.0000 C   0  0  0  0  0  0  0  0  0  0  0  0
    2.0042   -2.6611    0.0000 O   0  0  0  0  0  0  0  0  0  0  0  0
    0.8504   -3.3347    0.0000 C   0  0  0  0  0  0  0  0  0  0  0  0
  1  2  1  0  0  0  0
  2  3  1  0  0  0  0
  2  4  1  0  0  0  0
  2  6  1  0  0  0  0
  4  5  1  0  0  0  0
  6  7  1  0  0  0  0
M  END
> <ID>
4685

> <Formula>
C5H12O2

> <FW>
104.1476

> <DSSTox_CID>
6441

> <DSSTox_RID>
78113

> <DSSTox_GSID>
26441

> <DSSTox_FileID_Sort>
2796

> <TS_ChemName>
2,2-Dimethoxypropane

> <TS_ChemName_Synonyms>


> <TS_CASRN>
77-76-9

> <CASRN_ChemName_Relationship>
primary

> <TS_Description>
single chemical compound

> <ChemNote>


> <STRUCTURE_Shown>
tested chemical

> <STRUCTURE_Formula>
C5H12O2

> <STRUCTURE_MW>
104.1476

> <STRUCTURE_ChemType>
defined organic

> <STRUCTURE_DefinedOrganicForm>
parent

> <STRUCTURE_IUPAC>
2,2-dimethoxypropane

> <STRUCTURE_SMILES>
CC(C)(OC)OC

> <STRUCTURE_SMILES_Desalt>
CC(C)(OC)OC

> <Substance_modify_yyyymmdd>
20080429

$$$$
