77-78-1
ChemmineR-0915142007XD

  7  6  0  0  0  0  0  0  0  0  1 V2000
    0.9516   -0.9516    0.0000 S   0  0  0  0  0  0  0  0  0  0  0  0
    0.0254    0.0000    0.0000 O   0  0  0  0  0  0  0  0  0  0  0  0
    1.8905    0.0000    0.0000 O   0  0  0  0  0  0  0  0  0  0  0  0
    1.8778   -1.8778    0.0000 O   0  0  0  0  0  0  0  0  0  0  0  0
    0.0000   -1.8778    0.0000 O   0  0  0  0  0  0  0  0  0  0  0  0
    0.3426   -3.1720    0.0000 C   0  0  0  0  0  0  0  0  0  0  0  0
    3.1720   -1.5352    0.0000 C   0  0  0  0  0  0  0  0  0  0  0  0
  1  2  2  0  0  0  0
  1  3  2  0  0  0  0
  1  4  1  0  0  0  0
  1  5  1  0  0  0  0
  4  7  1  0  0  0  0
  5  6  1  0  0  0  0
M  END
> <ID>
3483

> <Formula>
C2H6O4S

> <FW>
126.1316

> <DSSTox_CID>
4055

> <DSSTox_RID>
77271

> <DSSTox_GSID>
24055

> <DSSTox_FileID_Sort>
1954

> <TS_ChemName>
Dimethyl sulfate

> <TS_ChemName_Synonyms>
Dimethyl sulfate (Sulfuric acid, dimethyl ester)

> <TS_CASRN>
77-78-1

> <CASRN_ChemName_Relationship>
primary

> <TS_Description>
single chemical compound

> <ChemNote>


> <STRUCTURE_Shown>
tested chemical

> <STRUCTURE_Formula>
C2H6O4S

> <STRUCTURE_MW>
126.1316

> <STRUCTURE_ChemType>
defined organic

> <STRUCTURE_DefinedOrganicForm>
parent

> <STRUCTURE_IUPAC>
dimethyl sulfate

> <STRUCTURE_SMILES>
O=S(=O)(OC)OC

> <STRUCTURE_SMILES_Desalt>
O=S(=O)(OC)OC

> <Substance_modify_yyyymmdd>
20080429

$$$$
