77-86-1
ChemmineR-0915142007XD

  8  7  0  0  0  0  0  0  0  0  1 V2000
    3.3237   -1.9950    0.0000 N   0  0  0  0  0  0  0  0  0  0  0  0
    1.9950   -1.9950    0.0000 C   0  0  0  0  0  0  0  0  0  0  0  0
    1.9950   -3.3237    0.0000 C   0  0  0  0  0  0  0  0  0  0  0  0
    3.1481   -3.9900    0.0000 O   0  0  0  0  0  0  0  0  0  0  0  0
    0.6663   -1.9950    0.0000 C   0  0  0  0  0  0  0  0  0  0  0  0
    0.0000   -3.1481    0.0000 O   0  0  0  0  0  0  0  0  0  0  0  0
    1.9950   -0.6663    0.0000 C   0  0  0  0  0  0  0  0  0  0  0  0
    3.1481    0.0000    0.0000 O   0  0  0  0  0  0  0  0  0  0  0  0
  1  2  1  0  0  0  0
  2  3  1  0  0  0  0
  2  5  1  0  0  0  0
  2  7  1  0  0  0  0
  3  4  1  0  0  0  0
  5  6  1  0  0  0  0
  7  8  1  0  0  0  0
M  END
> <ID>
3326

> <Formula>
C4H11NO3

> <FW>
121.135

> <DSSTox_CID>
3723

> <DSSTox_RID>
77165

> <DSSTox_GSID>
23723

> <DSSTox_FileID_Sort>
1848

> <TS_ChemName>
Tromethamine

> <TS_ChemName_Synonyms>
Tromethamine (1,3-Propanediol, 2-amino-2-(hydroxymethyl)-) (Tris(hydroxymethyl)aminomethane)

> <TS_CASRN>
77-86-1

> <CASRN_ChemName_Relationship>
primary

> <TS_Description>
single chemical compound

> <ChemNote>


> <STRUCTURE_Shown>
tested chemical

> <STRUCTURE_Formula>
C4H11NO3

> <STRUCTURE_MW>
121.135

> <STRUCTURE_ChemType>
defined organic

> <STRUCTURE_DefinedOrganicForm>
parent

> <STRUCTURE_IUPAC>
2-amino-2-(hydroxymethyl)propane-1,3-diol

> <STRUCTURE_SMILES>
OCC(N)(CO)CO

> <STRUCTURE_SMILES_Desalt>
OCC(N)(CO)CO

> <Substance_modify_yyyymmdd>
20080429

$$$$
