77-85-0
ChemmineR-0915142007XD

  8  7  0  0  0  0  0  0  0  0  1 V2000
    0.6579   -2.0017    0.0000 C   0  0  0  0  0  0  0  0  0  0  0  0
    1.9857   -2.0017    0.0000 C   0  0  0  0  0  0  0  0  0  0  0  0
    1.9857   -0.6699    0.0000 C   0  0  0  0  0  0  0  0  0  0  0  0
    0.0000   -3.1540    0.0000 O   0  0  0  0  0  0  0  0  0  0  0  0
    3.1381    0.0000    0.0000 O   0  0  0  0  0  0  0  0  0  0  0  0
    3.3135   -2.0017    0.0000 C   0  0  0  0  0  0  0  0  0  0  0  0
    3.9874   -3.1540    0.0000 O   0  0  0  0  0  0  0  0  0  0  0  0
    1.9857   -3.3295    0.0000 C   0  0  0  0  0  0  0  0  0  0  0  0
  1  2  1  0  0  0  0
  1  4  1  0  0  0  0
  2  3  1  0  0  0  0
  2  6  1  0  0  0  0
  2  8  1  0  0  0  0
  3  5  1  0  0  0  0
  6  7  1  0  0  0  0
M  END
> <ID>
4686

> <Formula>
C5H12O3

> <FW>
120.147

> <DSSTox_CID>
6444

> <DSSTox_RID>
78114

> <DSSTox_GSID>
26444

> <DSSTox_FileID_Sort>
2797

> <TS_ChemName>
2-(Hydroxymethyl)-2-methyl-1,3-propanediol

> <TS_ChemName_Synonyms>


> <TS_CASRN>
77-85-0

> <CASRN_ChemName_Relationship>
primary

> <TS_Description>
single chemical compound

> <ChemNote>


> <STRUCTURE_Shown>
tested chemical

> <STRUCTURE_Formula>
C5H12O3

> <STRUCTURE_MW>
120.147

> <STRUCTURE_ChemType>
defined organic

> <STRUCTURE_DefinedOrganicForm>
parent

> <STRUCTURE_IUPAC>
2-(hydroxymethyl)-2-methylpropane-1,3-diol

> <STRUCTURE_SMILES>
CC(CO)(CO)CO

> <STRUCTURE_SMILES_Desalt>
CC(CO)(CO)CO

> <Substance_modify_yyyymmdd>
20080429

$$$$
