77-90-7
ChemmineR-0915142007XD

 28 27  0  0  0  0  0  0  0  0  1 V2000
    7.3143   -3.4746    0.0000 C   0  0  0  0  0  0  0  0  0  0  0  0
    8.6428   -3.4746    0.0000 C   0  0  0  0  0  0  0  0  0  0  0  0
    5.9711   -3.4746    0.0000 C   0  0  0  0  0  0  0  0  0  0  0  0
    7.3143   -4.8032    0.0000 C   0  0  0  0  0  0  0  0  0  0  0  0
    6.1609   -5.4601    0.0000 O   0  0  0  0  0  0  0  0  0  0  0  0
    5.3141   -2.3359    0.0000 C   0  0  0  0  0  0  0  0  0  0  0  0
    3.9856   -2.3359    0.0000 O   0  0  0  0  0  0  0  0  0  0  0  0
    5.9711   -1.1679    0.0000 O   0  0  0  0  0  0  0  0  0  0  0  0
    9.2998   -2.3213    0.0000 C   0  0  0  0  0  0  0  0  0  0  0  0
    8.6282   -1.1679    0.0000 O   0  0  0  0  0  0  0  0  0  0  0  0
   10.6283   -2.3213    0.0000 O   0  0  0  0  0  0  0  0  0  0  0  0
    7.3143   -2.1461    0.0000 O   0  0  0  0  0  0  0  0  0  0  0  0
    8.4676   -5.4601    0.0000 O   0  0  0  0  0  0  0  0  0  0  0  0
    3.3140   -1.1825    0.0000 C   0  0  0  0  0  0  0  0  0  0  0  0
    1.9855   -1.1825    0.0000 C   0  0  0  0  0  0  0  0  0  0  0  0
    1.3285   -0.0292    0.0000 C   0  0  0  0  0  0  0  0  0  0  0  0
    0.0000   -0.0292    0.0000 C   0  0  0  0  0  0  0  0  0  0  0  0
   11.2853   -3.4746    0.0000 C   0  0  0  0  0  0  0  0  0  0  0  0
   12.6138   -3.4746    0.0000 C   0  0  0  0  0  0  0  0  0  0  0  0
   13.2708   -4.6280    0.0000 C   0  0  0  0  0  0  0  0  0  0  0  0
   14.5993   -4.6280    0.0000 C   0  0  0  0  0  0  0  0  0  0  0  0
    5.0222   -4.8032    0.0000 C   0  0  0  0  0  0  0  0  0  0  0  0
    3.8688   -5.4601    0.0000 C   0  0  0  0  0  0  0  0  0  0  0  0
    2.7155   -4.8032    0.0000 C   0  0  0  0  0  0  0  0  0  0  0  0
    1.5621   -5.4601    0.0000 C   0  0  0  0  0  0  0  0  0  0  0  0
    7.3143   -0.7154    0.0000 C   0  0  0  0  0  0  0  0  0  0  0  0
    6.3507    0.0000    0.0000 C   0  0  0  0  0  0  0  0  0  0  0  0
    8.5114    0.0000    0.0000 O   0  0  0  0  0  0  0  0  0  0  0  0
  1  4  1  0  0  0  0
  1  3  1  0  0  0  0
  1 12  1  0  0  0  0
  1  2  1  0  0  0  0
  2  9  1  0  0  0  0
  3  6  1  0  0  0  0
  4  5  1  0  0  0  0
  4 13  2  0  0  0  0
  5 22  1  0  0  0  0
  6  7  1  0  0  0  0
  6  8  2  0  0  0  0
  7 14  1  0  0  0  0
  9 10  2  0  0  0  0
  9 11  1  0  0  0  0
 11 18  1  0  0  0  0
 12 26  1  0  0  0  0
 14 15  1  0  0  0  0
 15 16  1  0  0  0  0
 16 17  1  0  0  0  0
 18 19  1  0  0  0  0
 19 20  1  0  0  0  0
 20 21  1  0  0  0  0
 22 23  1  0  0  0  0
 23 24  1  0  0  0  0
 24 25  1  0  0  0  0
 26 27  1  0  0  0  0
 26 28  2  0  0  0  0
M  END
> <ID>
4687

> <Formula>
C20H34O8

> <FW>
402.4792

> <DSSTox_CID>
6446

> <DSSTox_RID>
78115

> <DSSTox_GSID>
26446

> <DSSTox_FileID_Sort>
2798

> <TS_ChemName>
Acetyl tributyl citrate

> <TS_ChemName_Synonyms>
Acetyl tributyl citrate (1,2,3-Propanetricarboxylic acid, 2-(acetyloxy)-, tributyl ester)

> <TS_CASRN>
77-90-7

> <CASRN_ChemName_Relationship>
primary

> <TS_Description>
single chemical compound

> <ChemNote>


> <STRUCTURE_Shown>
tested chemical

> <STRUCTURE_Formula>
C20H34O8

> <STRUCTURE_MW>
402.4792

> <STRUCTURE_ChemType>
defined organic

> <STRUCTURE_DefinedOrganicForm>
parent

> <STRUCTURE_IUPAC>
tributyl 2-(acetyloxy)propane-1,2,3-tricarboxylate

> <STRUCTURE_SMILES>
CCCCOC(=O)CC(CC(=O)OCCCC)(OC(C)=O)C(=O)OCCCC

> <STRUCTURE_SMILES_Desalt>
CCCCOC(=O)CC(CC(=O)OCCCC)(OC(C)=O)C(=O)OCCCC

> <Substance_modify_yyyymmdd>
20110727

$$$$
