77-93-0
ChemmineR-0915142007XD

 19 18  0  0  0  0  0  0  0  0  1 V2000
    5.3159   -2.3071    0.0000 C   0  0  0  0  0  0  0  0  0  0  0  0
    6.6448   -2.3071    0.0000 C   0  0  0  0  0  0  0  0  0  0  0  0
    3.9869   -2.3071    0.0000 C   0  0  0  0  0  0  0  0  0  0  0  0
    5.3159   -3.6360    0.0000 C   0  0  0  0  0  0  0  0  0  0  0  0
    4.1676   -4.3058    0.0000 O   0  0  0  0  0  0  0  0  0  0  0  0
    3.3171   -1.1589    0.0000 C   0  0  0  0  0  0  0  0  0  0  0  0
    1.9881   -1.1589    0.0000 O   0  0  0  0  0  0  0  0  0  0  0  0
    3.9869    0.0000    0.0000 O   0  0  0  0  0  0  0  0  0  0  0  0
    7.3040   -1.1589    0.0000 C   0  0  0  0  0  0  0  0  0  0  0  0
    6.6448    0.0000    0.0000 O   0  0  0  0  0  0  0  0  0  0  0  0
    8.6329   -1.1589    0.0000 O   0  0  0  0  0  0  0  0  0  0  0  0
    5.3159   -0.9781    0.0000 O   0  0  0  0  0  0  0  0  0  0  0  0
    6.4641   -4.3058    0.0000 O   0  0  0  0  0  0  0  0  0  0  0  0
    9.3027   -2.3071    0.0000 C   0  0  0  0  0  0  0  0  0  0  0  0
   10.6317   -2.3071    0.0000 C   0  0  0  0  0  0  0  0  0  0  0  0
    4.1676   -5.6348    0.0000 C   0  0  0  0  0  0  0  0  0  0  0  0
    3.0088   -6.2940    0.0000 C   0  0  0  0  0  0  0  0  0  0  0  0
    1.3290    0.0000    0.0000 C   0  0  0  0  0  0  0  0  0  0  0  0
    0.0000    0.0000    0.0000 C   0  0  0  0  0  0  0  0  0  0  0  0
  1  4  1  0  0  0  0
  1  3  1  0  0  0  0
  1 12  1  0  0  0  0
  1  2  1  0  0  0  0
  2  9  1  0  0  0  0
  3  6  1  0  0  0  0
  4  5  1  0  0  0  0
  4 13  2  0  0  0  0
  5 16  1  0  0  0  0
  6  7  1  0  0  0  0
  6  8  2  0  0  0  0
  7 18  1  0  0  0  0
  9 10  2  0  0  0  0
  9 11  1  0  0  0  0
 11 14  1  0  0  0  0
 14 15  1  0  0  0  0
 16 17  1  0  0  0  0
 18 19  1  0  0  0  0
M  END
> <ID>
7897

> <Formula>
C12H20O7

> <FW>
276.283

> <DSSTox_CID>
20701

> <DSSTox_RID>
79552

> <DSSTox_GSID>
40701

> <DSSTox_FileID_Sort>
4234

> <TS_ChemName>
Triethyl citrate

> <TS_ChemName_Synonyms>
Triethyl citrate (1,2,3-Propanetricarboxylic acid, 2-hydroxy-, triethyl ester)

> <TS_CASRN>
77-93-0

> <CASRN_ChemName_Relationship>
primary

> <TS_Description>
single chemical compound

> <ChemNote>


> <STRUCTURE_Shown>
tested chemical

> <STRUCTURE_Formula>
C12H20O7

> <STRUCTURE_MW>
276.283

> <STRUCTURE_ChemType>
defined organic

> <STRUCTURE_DefinedOrganicForm>
parent

> <STRUCTURE_IUPAC>
triethyl 2-hydroxypropane-1,2,3-tricarboxylate

> <STRUCTURE_SMILES>
OC(CC(=O)OCC)(CC(=O)OCC)C(=O)OCC

> <STRUCTURE_SMILES_Desalt>
OC(CC(=O)OCC)(CC(=O)OCC)C(=O)OCC

> <Substance_modify_yyyymmdd>
20080429

$$$$
