770-35-4
ChemmineR-0915142007XD

 11 11  0  0  0  0  0  0  0  0  1 V2000
    4.6587   -1.1514    0.0000 C   0  0  0  0  0  0  0  0  0  0  0  0
    5.9831   -1.1514    0.0000 C   0  0  0  0  0  0  0  0  0  0  0  0
    6.6552    0.0000    0.0000 C   0  0  0  0  0  0  0  0  0  0  0  0
    6.6552   -2.3027    0.0000 O   0  0  0  0  0  0  0  0  0  0  0  0
    3.9998   -2.3027    0.0000 O   0  0  0  0  0  0  0  0  0  0  0  0
    2.6554   -2.3027    0.0000 C   0  0  0  0  0  0  0  0  0  0  0  0
    1.9966   -3.4541    0.0000 C   0  0  0  0  0  0  0  0  0  0  0  0
    1.9966   -1.1514    0.0000 C   0  0  0  0  0  0  0  0  0  0  0  0
    0.6722   -3.4541    0.0000 C   0  0  0  0  0  0  0  0  0  0  0  0
    0.6722   -1.1514    0.0000 C   0  0  0  0  0  0  0  0  0  0  0  0
    0.0000   -2.3027    0.0000 C   0  0  0  0  0  0  0  0  0  0  0  0
  1  2  1  0  0  0  0
  1  5  1  0  0  0  0
  2  3  1  0  0  0  0
  2  4  1  0  0  0  0
  5  6  1  0  0  0  0
  6  7  2  0  0  0  0
  6  8  1  0  0  0  0
  7  9  1  0  0  0  0
  8 10  2  0  0  0  0
  9 11  2  0  0  0  0
 10 11  1  0  0  0  0
M  END
> <ID>
5070

> <Formula>
C9H12O2

> <FW>
152.1904

> <DSSTox_CID>
7312

> <DSSTox_RID>
78402

> <DSSTox_GSID>
27312

> <DSSTox_FileID_Sort>
3085

> <TS_ChemName>
1-Phenoxy-2-propanol

> <TS_ChemName_Synonyms>
2-Propanol, 1-phenoxy-

> <TS_CASRN>
770-35-4

> <CASRN_ChemName_Relationship>
primary

> <TS_Description>
single chemical compound

> <ChemNote>


> <STRUCTURE_Shown>
tested chemical

> <STRUCTURE_Formula>
C9H12O2

> <STRUCTURE_MW>
152.1904

> <STRUCTURE_ChemType>
defined organic

> <STRUCTURE_DefinedOrganicForm>
parent

> <STRUCTURE_IUPAC>
1-phenoxypropan-2-ol

> <STRUCTURE_SMILES>
CC(O)COc1ccccc1

> <STRUCTURE_SMILES_Desalt>
CC(O)COc1ccccc1

> <Substance_modify_yyyymmdd>
20080429

$$$$
