7706-67-4
ChemmineR-0915142007XD

 16 16  0  0  0  0  0  0  0  0  1 V2000
    5.9931   -1.1485    0.0000 C   0  0  0  0  0  0  0  0  0  0  0  0
    4.6546   -1.1485    0.0000 C   0  0  0  0  0  0  0  0  0  0  0  0
    6.6408   -2.2884    0.0000 C   0  0  0  0  0  0  0  0  0  0  0  0
    3.9810   -2.2884    0.0000 C   0  0  0  0  0  0  0  0  0  0  0  0
    7.9706   -2.2884    0.0000 C   0  0  0  0  0  0  0  0  0  0  0  0
    2.6425   -2.2884    0.0000 C   0  0  0  0  0  0  0  0  0  0  0  0
    3.9810    0.0000    0.0000 C   0  0  0  0  0  0  0  0  0  0  0  0
    8.6356   -1.1485    0.0000 O   0  0  0  0  0  0  0  0  0  0  0  0
    1.9948   -1.1485    0.0000 C   0  0  0  0  0  0  0  0  0  0  0  0
    2.6425    0.0000    0.0000 C   0  0  0  0  0  0  0  0  0  0  0  0
    4.6719   -3.4715    0.0000 O   0  0  0  0  0  0  0  0  0  0  0  0
    8.6356   -3.4542    0.0000 O   0  0  0  0  0  0  0  0  0  0  0  0
    6.6408    0.0000    0.0000 C   0  0  0  0  0  0  0  0  0  0  0  0
    0.6649   -1.1485    0.0000 O   0  0  0  0  0  0  0  0  0  0  0  0
    6.0104   -3.4715    0.0000 C   0  0  0  0  0  0  0  0  0  0  0  0
    0.0000   -2.2884    0.0000 C   0  0  0  0  0  0  0  0  0  0  0  0
  1  2  1  0  0  0  0
  1  3  2  0  0  0  0
  1 13  1  0  0  0  0
  2  4  1  0  0  0  0
  2  7  2  0  0  0  0
  3  5  1  0  0  0  0
  4  6  2  0  0  0  0
  4 11  1  0  0  0  0
  5  8  2  0  0  0  0
  5 12  1  0  0  0  0
  6  9  1  0  0  0  0
  7 10  1  0  0  0  0
  9 10  2  0  0  0  0
  9 14  1  0  0  0  0
 11 15  1  0  0  0  0
 14 16  1  0  0  0  0
M  END
> <ID>
16224

> <Formula>
C12H14O4

> <FW>
222.2372

> <DSSTox_CID>
31615

> <DSSTox_RID>
97499

> <DSSTox_GSID>
57826

> <DSSTox_FileID_Sort>
8566

> <TS_ChemName>
Dimecrotic acid

> <TS_ChemName_Synonyms>


> <TS_CASRN>
7706-67-4

> <CASRN_ChemName_Relationship>
primary

> <TS_Description>
single chemical compound

> <ChemNote>


> <STRUCTURE_Shown>
tested chemical

> <STRUCTURE_Formula>
C12H14O4

> <STRUCTURE_MW>
222.2372

> <STRUCTURE_ChemType>
defined organic

> <STRUCTURE_DefinedOrganicForm>
parent

> <STRUCTURE_IUPAC>
(2E)-3-(2,4-dimethoxyphenyl)but-2-enoic acid

> <STRUCTURE_SMILES>
COc1cc(ccc1C(/C)=C/C(=O)O)OC

> <STRUCTURE_SMILES_Desalt>
COc1cc(ccc1C(/C)=C/C(=O)O)OC

> <Substance_modify_yyyymmdd>
20131018

$$$$
