77086-22-7
ChemmineR-0915142007XD

 25 27  0  0  1  0  0  0  0  0  1 V2000
    3.5076   -2.7597    0.0000 C   0  0  0  0  0  0  0  0  0  0  0  0
    3.5076   -1.3540    0.0000 N   0  0  0  0  0  0  0  0  0  0  0  0
    4.2556    0.0000    0.0000 C   0  0  0  0  0  0  0  0  0  0  0  0
    4.6811   -2.1020    0.0000 C   0  0  0  0  0  0  0  0  0  0  0  0
    2.3341   -2.1020    0.0000 C   0  0  0  0  0  0  0  0  0  0  0  0
    4.6811   -0.7480    0.0000 C   0  0  0  0  0  0  0  0  0  0  0  0
    2.3341   -0.7480    0.0000 C   0  0  0  0  0  0  0  0  0  0  0  0
    2.7597    0.0000    0.0000 C   0  0  0  0  0  0  0  0  0  0  0  0
    3.5076   -4.1266    0.0000 C   0  0  0  0  0  0  0  0  0  0  0  0
    5.8418   -2.7597    0.0000 C   0  0  0  0  0  0  0  0  0  0  0  0
    1.1735   -2.7597    0.0000 C   0  0  0  0  0  0  0  0  0  0  0  0
    5.8418   -0.0645    0.0000 C   0  0  0  0  0  0  0  0  0  0  0  0
    1.1735   -0.0645    0.0000 C   0  0  0  0  0  0  0  0  0  0  0  0
    7.0153   -2.1020    0.0000 C   0  0  0  0  0  0  0  0  0  0  0  0
    7.0153   -0.7480    0.0000 C   0  0  0  0  0  0  0  0  0  0  0  0
    0.0000   -2.1020    0.0000 C   0  0  0  0  0  0  0  0  0  0  0  0
    0.0000   -0.7480    0.0000 C   0  0  0  0  0  0  0  0  0  0  0  0
   11.5288   -3.3271    0.0000 C   0  0  0  0  0  0  0  0  0  0  0  0
    8.8078   -3.3271    0.0000 C   0  0  0  0  0  0  0  0  0  0  0  0
    9.4655   -2.1665    0.0000 C   0  0  0  0  0  0  0  0  0  0  0  0
   10.8711   -2.1665    0.0000 C   0  0  0  0  0  0  0  0  0  0  0  0
   10.8711   -4.5006    0.0000 O   0  0  0  0  0  0  0  0  0  0  0  0
    9.4655   -4.5006    0.0000 O   0  0  0  0  0  0  0  0  0  0  0  0
   12.8957   -3.3529    0.0000 O   0  0  0  0  0  0  0  0  0  0  0  0
    7.4408   -3.3529    0.0000 O   0  0  0  0  0  0  0  0  0  0  0  0
  1  2  1  1  0  0  0
  1  4  1  0  0  0  0
  1  5  1  0  0  0  0
  1  9  1  0  0  0  0
  3  2  1  1  0  0  0
  3  6  1  0  0  0  0
  3  8  1  0  0  0  0
  4  6  2  0  0  0  0
  4 10  1  0  0  0  0
  5  7  2  0  0  0  0
  5 11  1  0  0  0  0
  6 12  1  0  0  0  0
  7  8  1  0  0  0  0
  7 13  1  0  0  0  0
 10 14  2  0  0  0  0
 11 16  2  0  0  0  0
 12 15  2  0  0  0  0
 13 17  2  0  0  0  0
 14 15  1  0  0  0  0
 16 17  1  0  0  0  0
 18 21  1  0  0  0  0
 18 22  2  0  0  0  0
 18 24  1  0  0  0  0
 19 20  1  0  0  0  0
 19 23  2  0  0  0  0
 19 25  1  0  0  0  0
 20 21  2  0  0  0  0
M  END
> <ID>
11194

> <Formula>
C20H19NO4

> <FW>
337.3692 (221.2970+116.0722)

> <DSSTox_CID>
25785

> <DSSTox_RID>
81126

> <DSSTox_GSID>
45785

> <DSSTox_FileID_Sort>
5807

> <TS_ChemName>
Dizocilpine maleate

> <TS_ChemName_Synonyms>


> <TS_CASRN>
77086-22-7

> <CASRN_ChemName_Relationship>
primary

> <TS_Description>
single chemical compound

> <ChemNote>
stereochem; parent [77086-21-6]

> <STRUCTURE_Shown>
tested chemical

> <STRUCTURE_Formula>
C20H19NO4

> <STRUCTURE_MW>
337.3692

> <STRUCTURE_ChemType>
defined organic

> <STRUCTURE_DefinedOrganicForm>
complex

> <STRUCTURE_IUPAC>
(5S,10R)-5-methyl-10,11-dihydro-5H-5,10-epiminodibenzo[a,d][7]annulene (2Z)-but-2-enedioate (1:1)

> <STRUCTURE_SMILES>
O=C(O)/C=C\C(=O)O.C[C@@]42N[C@H](Cc1ccccc12)c3ccccc34

> <STRUCTURE_SMILES_Desalt>
C[C@@]42N[C@H](Cc1ccccc12)c3ccccc34

> <Substance_modify_yyyymmdd>
20110902

$$$$
