77181-69-2
ChemmineR-0915142007XD

 24 25  0  0  1  0  0  0  0  0  1 V2000
    4.1267   -8.9906    0.0000 O    0  0  0  0  0  0  0  0  0  0  0  0
    3.8570   -7.6780    0.0000 C    0  0  0  0  0  0  0  0  0  0  0  0
    4.8460   -6.7879    0.0000 C    0  0  0  0  0  0  0  0  0  0  0  0
    5.3764   -8.0107    0.0000 H    0  0  0  0  0  0  0  0  0  0  0  0
    3.9469   -5.7990    0.0000 O    0  0  0  0  0  0  0  0  0  0  0  0
    4.6122   -4.6571    0.0000 C    0  0  0  0  0  0  0  0  0  0  0  0
    4.8999   -3.3535    0.0000 H    0  0  0  0  0  0  0  0  0  0  0  0
    5.9248   -4.9269    0.0000 C    0  0  0  0  0  0  0  0  0  0  0  0
    6.1945   -3.6322    0.0000 H    0  0  0  0  0  0  0  0  0  0  0  0
    7.2375   -4.8010    0.0000 O    0  0  0  0  0  0  0  0  0  0  0  0
    6.0687   -6.2485    0.0000 C    0  0  0  0  0  0  0  0  0  0  0  0
    7.3813   -6.1136    0.0000 H    0  0  0  0  0  0  0  0  0  0  0  0
    6.5991   -7.4622    0.0000 O    0  0  0  0  0  0  0  0  0  0  0  0
    3.4524   -3.9829    0.0000 N    0  0  0  0  0  0  0  0  0  0  0  0
    3.4704   -2.6612    0.0000 C    0  0  0  0  0  0  0  0  0  0  0  0
    2.3106   -1.9869    0.0000 C    0  0  0  0  0  0  0  0  0  0  0  0
    2.3106   -0.6563    0.0000 C    0  0  0  0  0  0  0  0  0  0  0  0
    1.1598    0.0000    0.0000 C    0  0  0  0  0  0  0  0  0  0  0  0
    0.0000   -0.6563    0.0000 Br   0  0  0  0  0  0  0  0  0  0  0  0
    1.1598   -2.6612    0.0000 C    0  0  0  0  0  0  0  0  0  0  0  0
    0.0000   -1.9869    0.0000 O    0  0  0  0  0  0  0  0  0  0  0  0
    1.1598   -3.9829    0.0000 N    0  0  0  0  0  0  0  0  0  0  0  0
    2.3106   -4.6571    0.0000 C    0  0  0  0  0  0  0  0  0  0  0  0
    2.3106   -5.9698    0.0000 O    0  0  0  0  0  0  0  0  0  0  0  0
  1  2  1  0  0  0  0
  2  3  1  0  0  0  0
  3  4  1  6  0  0  0
  3  5  1  0  0  0  0
  3 11  1  0  0  0  0
  5  6  1  0  0  0  0
  6  7  1  0  0  0  0
  6  8  1  0  0  0  0
  6 14  1  6  0  0  0
  8  9  1  0  0  0  0
  8 10  1  1  0  0  0
  8 11  1  0  0  0  0
 11 12  1  0  0  0  0
 11 13  1  6  0  0  0
 14 15  1  0  0  0  0
 14 23  1  0  0  0  0
 15 16  2  0  0  0  0
 16 17  1  0  0  0  0
 16 20  1  0  0  0  0
 17 18  2  0  0  0  0
 18 19  1  0  0  0  0
 20 21  2  0  0  0  0
 20 22  1  0  0  0  0
 22 23  1  0  0  0  0
 23 24  2  0  0  0  0
M  END
> <ID>
16225

> <Formula>
C11H13BrN2O6

> <FW>
349.1347

> <DSSTox_CID>
31616

> <DSSTox_RID>
97500

> <DSSTox_GSID>
57827

> <DSSTox_FileID_Sort>
8567

> <TS_ChemName>
Bravavir

> <TS_ChemName_Synonyms>


> <TS_CASRN>
77181-69-2

> <CASRN_ChemName_Relationship>
primary

> <TS_Description>
single chemical compound

> <ChemNote>


> <STRUCTURE_Shown>
tested chemical

> <STRUCTURE_Formula>
C11H13BrN2O6

> <STRUCTURE_MW>
349.1347

> <STRUCTURE_ChemType>
defined organic

> <STRUCTURE_DefinedOrganicForm>
parent

> <STRUCTURE_IUPAC>
1-(alpha-D-arabinofuranosyl)-5-[(Z)-2-bromovinyl]pyrimidine-2,4(1H,3H)-dione

> <STRUCTURE_SMILES>
Br\C=C/C1=CN(C(=O)NC1=O)[C@H]2O[C@H](CO)[C@@H](O)[C@@H]2O

> <STRUCTURE_SMILES_Desalt>
Br\C=C/C1=CN(C(=O)NC1=O)[C@H]2O[C@H](CO)[C@@H](O)[C@@H]2O

> <Substance_modify_yyyymmdd>
20131121

$$$$
