7718-54-9
ChemmineR-0915142007XD

  3  2  0  0  0  0  0  0  0  0  1 V2000
    1.1515    0.0000    0.0000 Ni   0  0  0  0  0  0  0  0  0  0  0  0
    0.0000   -0.6656    0.0000 Cl   0  0  0  0  0  0  0  0  0  0  0  0
    2.3030   -0.6656    0.0000 Cl   0  0  0  0  0  0  0  0  0  0  0  0
  1  2  1  0  0  0  0
  1  3  1  0  0  0  0
M  END
> <ID>
7688

> <Formula>
Cl2Ni

> <FW>
129.5994

> <DSSTox_CID>
20316

> <DSSTox_RID>
79476

> <DSSTox_GSID>
40316

> <DSSTox_FileID_Sort>
4158

> <TS_ChemName>
Nickel(II) chloride

> <TS_ChemName_Synonyms>
Nickel(II) chloride (Nickelous chloride)

> <TS_CASRN>
7718-54-9

> <CASRN_ChemName_Relationship>
primary

> <TS_Description>
single chemical compound

> <ChemNote>


> <STRUCTURE_Shown>
tested chemical

> <STRUCTURE_Formula>
Cl2Ni

> <STRUCTURE_MW>
129.5994

> <STRUCTURE_ChemType>
inorganic

> <STRUCTURE_DefinedOrganicForm>


> <STRUCTURE_IUPAC>
nickel(2+) dichloride

> <STRUCTURE_SMILES>
Cl[Ni]Cl

> <STRUCTURE_SMILES_Desalt>
Cl[Ni]Cl

> <Substance_modify_yyyymmdd>
20080429

$$$$
