7720-78-7
ChemmineR-0915142007XD

  6  4  0  0  0  0  0  0  0  0  2 V2000
      1.33     -1.33      0.00 S    0  0  0  0  0  0  0  0  0  0  0  0
      2.66     -1.33      0.00 O    0  0  0  0  0  0  0  0  0  0  0  0
      0.00     -1.33      0.00 O    0  0  0  0  0  0  0  0  0  0  0  0
      1.33     -2.66      0.00 O    0  5  0  0  0  0  0  0  0  0  0  0
      1.33      0.00      0.00 O    0  5  0  0  0  0  0  0  0  0  0  0
      5.32     -1.33      0.00 Fe   0  2  0  0  0  0  0  0  0  0  0  0
  1  2  2  0  0  0  0
  1  3  2  0  0  0  0
  1  4  1  0  0  0  0
  1  5  1  0  0  0  0
M  END
> <ID>
6131

> <Formula>
FeO4S

> <FW>
151.9076 (96.0637+55.8439)

> <DSSTox_CID>
9688

> <DSSTox_RID>
78808

> <DSSTox_GSID>
29688

> <DSSTox_FileID_Sort>
3490

> <TS_ChemName>
Iron(II) sulfate

> <TS_ChemName_Synonyms>
Iron(II) sulfate (Sulfuric acid, iron(2+) salt) (Ferrous sulfate)

> <TS_CASRN>
7720-78-7

> <CASRN_ChemName_Relationship>
primary

> <TS_Description>
single chemical compound

> <ChemNote>


> <STRUCTURE_Shown>
tested chemical

> <STRUCTURE_Formula>
FeO4S

> <STRUCTURE_MW>
151.9076

> <STRUCTURE_ChemType>
inorganic

> <STRUCTURE_DefinedOrganicForm>


> <STRUCTURE_IUPAC>
iron(2+) sulfate

> <STRUCTURE_SMILES>
[Fe+2].[O-]S([O-])(=O)=O

> <STRUCTURE_SMILES_Desalt>
O=S(=O)(O)O

> <Substance_modify_yyyymmdd>
20080429

$$$$
