7722-88-5
ChemmineR-0915142007XD

 13  8  0  0  0  0  0  0  0  0  2 V2000
    7.9880   -2.4523    0.0000 Na   0  3  0  0  0  0  0  0  0  0  0  0
    5.3919    0.0000    0.0000 Na   0  3  0  0  0  0  0  0  0  0  0  0
    2.6920   -0.0479    0.0000 Na   0  3  0  0  0  0  0  0  0  0  0  0
    0.0000   -2.4523    0.0000 Na   0  3  0  0  0  0  0  0  0  0  0  0
    2.6760   -2.5002    0.0000 P    0  0  0  0  0  0  0  0  0  0  0  0
    2.6760   -3.8342    0.0000 O    0  0  0  0  0  0  0  0  0  0  0  0
    2.6760   -1.1742    0.0000 O    0  5  0  0  0  0  0  0  0  0  0  0
    4.0100   -2.5002    0.0000 O    0  0  0  0  0  0  0  0  0  0  0  0
    1.3500   -2.5002    0.0000 O    0  5  0  0  0  0  0  0  0  0  0  0
    5.3440   -2.5002    0.0000 P    0  0  0  0  0  0  0  0  0  0  0  0
    6.6700   -2.5002    0.0000 O    0  5  0  0  0  0  0  0  0  0  0  0
    5.3440   -3.8342    0.0000 O    0  0  0  0  0  0  0  0  0  0  0  0
    5.3440   -1.1742    0.0000 O    0  5  0  0  0  0  0  0  0  0  0  0
  5  6  2  0  0  0  0
  5  7  1  0  0  0  0
  5  8  1  0  0  0  0
  5  9  1  0  0  0  0
  8 10  1  0  0  0  0
 10 11  1  0  0  0  0
 10 12  2  0  0  0  0
 10 13  1  0  0  0  0
M  END
> <ID>
9374

> <Formula>
Na4O7P2

> <FW>
265.9024 (22.9892+22.9892+22.9892+22.9892+173.9455)

> <DSSTox_CID>
22465

> <DSSTox_RID>
80032

> <DSSTox_GSID>
42465

> <DSSTox_FileID_Sort>
4714

> <TS_ChemName>
Tetrasodium pyrophosphate

> <TS_ChemName_Synonyms>


> <TS_CASRN>
7722-88-5

> <CASRN_ChemName_Relationship>
primary

> <TS_Description>
single chemical compound

> <ChemNote>


> <STRUCTURE_Shown>
tested chemical

> <STRUCTURE_Formula>
Na4O7P2

> <STRUCTURE_MW>
265.9024

> <STRUCTURE_ChemType>
inorganic

> <STRUCTURE_DefinedOrganicForm>


> <STRUCTURE_IUPAC>
tetrasodium diphosphate

> <STRUCTURE_SMILES>
[Na+].[Na+].[Na+].[Na+].[O-]P([O-])(=O)OP([O-])([O-])=O

> <STRUCTURE_SMILES_Desalt>
O=P(O)(O)OP(=O)(O)O

> <Substance_modify_yyyymmdd>
20080825

$$$$
