7722-44-3
ChemmineR-0915142007XD

 95 95  0  0  1  0  0  0  0  0  1 V2000
   22.1792   -7.7920    0.0000 O   0  0  0  0  0  0  0  0  0  0  0  0
   21.1154   -8.6164    0.0000 C   0  0  0  0  0  0  0  0  0  0  0  0
   22.2324   -9.3610    0.0000 H   0  0  0  0  0  0  0  0  0  0  0  0
   20.1315   -9.6003    0.0000 C   0  0  0  0  0  0  0  0  0  0  0  0
   19.3071   -8.5366    0.0000 H   0  0  0  0  0  0  0  0  0  0  0  0
   18.8284  -10.1322    0.0000 C   0  0  0  0  0  0  0  0  0  0  0  0
   17.7114   -9.4674    0.0000 N   0  0  0  0  0  0  0  0  0  0  0  0
   16.4615   -9.8397    0.0000 C   0  0  0  0  0  0  0  0  0  0  0  0
   16.2488   -8.5100    0.0000 H   0  0  0  0  0  0  0  0  0  0  0  0
   15.1319  -10.1854    0.0000 C   0  0  0  0  0  0  0  0  0  0  0  0
   14.8127  -11.4885    0.0000 O   0  0  0  0  0  0  0  0  0  0  0  0
   14.1213   -9.4408    0.0000 N   0  0  0  0  0  0  0  0  0  0  0  0
   12.8182   -9.4408    0.0000 C   0  0  0  0  0  0  0  0  0  0  0  0
   12.8714  -10.7705    0.0000 H   0  0  0  0  0  0  0  0  0  0  0  0
   11.4619   -9.5206    0.0000 C   0  0  0  0  0  0  0  0  0  0  0  0
   10.8503  -10.6641    0.0000 C   0  0  0  0  0  0  0  0  0  0  0  0
    9.5206  -10.8769    0.0000 N   0  0  0  0  0  0  0  0  0  0  0  0
    9.1483  -12.1799    0.0000 C   0  0  0  0  0  0  0  0  0  0  0  0
    7.9515  -12.7916    0.0000 C   0  0  0  0  0  0  0  0  0  0  0  0
    6.8346  -13.4299    0.0000 H   0  0  0  0  0  0  0  0  0  0  0  0
    7.0473  -11.7279    0.0000 N   0  0  0  0  0  0  0  0  0  0  0  0
    5.7443  -11.7279    0.0000 C   0  0  0  0  0  0  0  0  0  0  0  0
    4.6007  -10.9300    0.0000 C   0  0  0  0  0  0  0  0  0  0  0  0
    3.9093  -12.1002    0.0000 H   0  0  0  0  0  0  0  0  0  0  0  0
    4.7603   -9.5738    0.0000 N   0  0  0  0  0  0  0  0  0  0  0  0
    3.8029   -8.6696    0.0000 C   0  0  0  0  0  0  0  0  0  0  0  0
    3.5902   -7.2867    0.0000 C   0  0  0  0  0  0  0  0  0  0  0  0
    2.8721   -6.2229    0.0000 H   0  0  0  0  0  0  0  0  0  0  0  0
    4.7071   -6.5421    0.0000 N   0  0  0  0  0  0  0  0  0  0  0  0
    4.7071   -5.2124    0.0000 C   0  0  0  0  0  0  0  0  0  0  0  0
    5.6113   -4.1486    0.0000 C   0  0  0  0  0  0  0  0  0  0  0  0
    5.9304   -2.8721    0.0000 H   0  0  0  0  0  0  0  0  0  0  0  0
    6.9410   -4.4678    0.0000 N   0  0  0  0  0  0  0  0  0  0  0  0
    7.9249   -3.5902    0.0000 C   0  0  0  0  0  0  0  0  0  0  0  0
    9.2812   -3.5370    0.0000 C   0  0  0  0  0  0  0  0  0  0  0  0
   10.4514   -2.8721    0.0000 H   0  0  0  0  0  0  0  0  0  0  0  0
    9.9727   -4.7071    0.0000 N   0  0  0  0  0  0  0  0  0  0  0  0
   11.3024   -4.8401    0.0000 C   0  0  0  0  0  0  0  0  0  0  0  0
   12.3129   -5.7708    0.0000 C   0  0  0  0  0  0  0  0  0  0  0  0
   13.5894   -6.1166    0.0000 H   0  0  0  0  0  0  0  0  0  0  0  0
   12.1002   -7.1005    0.0000 N   0  0  0  0  0  0  0  0  0  0  0  0
   13.0309   -8.0579    0.0000 C   0  0  0  0  0  0  0  0  0  0  0  0
   14.3340   -7.7122    0.0000 O   0  0  0  0  0  0  0  0  0  0  0  0
   13.1373   -4.7603    0.0000 C   0  0  0  0  0  0  0  0  0  0  0  0
   14.3606   -4.4412    0.0000 C   0  0  0  0  0  0  0  0  0  0  0  0
   14.7861   -3.1913    0.0000 N   0  0  0  0  0  0  0  0  0  0  0  0
   11.9140   -3.6433    0.0000 O   0  0  0  0  0  0  0  0  0  0  0  0
    9.2014   -2.2339    0.0000 C   0  0  0  0  0  0  0  0  0  0  0  0
    9.7067   -1.0903    0.0000 C   0  0  0  0  0  0  0  0  0  0  0  0
    8.9355    0.0000    0.0000 C   0  0  0  0  0  0  0  0  0  0  0  0
   11.0098   -0.7978    0.0000 C   0  0  0  0  0  0  0  0  0  0  0  0
    7.4994   -2.2871    0.0000 O   0  0  0  0  0  0  0  0  0  0  0  0
    4.6007   -3.3508    0.0000 C   0  0  0  0  0  0  0  0  0  0  0  0
    4.1220   -2.1807    0.0000 C   0  0  0  0  0  0  0  0  0  0  0  0
    2.7923   -2.0211    0.0000 C   0  0  0  0  0  0  0  0  0  0  0  0
    4.7869   -1.0372    0.0000 C   0  0  0  0  0  0  0  0  0  0  0  0
    3.4838   -4.6273    0.0000 O   0  0  0  0  0  0  0  0  0  0  0  0
    2.2871   -7.5526    0.0000 C   0  0  0  0  0  0  0  0  0  0  0  0
    1.1967   -6.9410    0.0000 C   0  0  0  0  0  0  0  0  0  0  0  0
    0.0000   -7.5260    0.0000 N   0  0  0  0  0  0  0  0  0  0  0  0
    2.5530   -9.2280    0.0000 O   0  0  0  0  0  0  0  0  0  0  0  0
    3.2976  -10.7705    0.0000 C   0  0  0  0  0  0  0  0  0  0  0  0
    2.2339  -11.4885    0.0000 C   0  0  0  0  0  0  0  0  0  0  0  0
    1.0106  -11.0098    0.0000 N   0  0  0  0  0  0  0  0  0  0  0  0
    5.2656  -13.0309    0.0000 O   0  0  0  0  0  0  0  0  0  0  0  0
    8.2441  -14.1479    0.0000 C   0  0  0  0  0  0  0  0  0  0  0  0
    8.6962  -15.4510    0.0000 H   0  0  0  0  0  0  0  0  0  0  0  0
    7.2069  -15.0787    0.0000 C   0  0  0  0  0  0  0  0  0  0  0  0
    9.5738  -14.2809    0.0000 O   0  0  0  0  0  0  0  0  0  0  0  0
   10.3716  -12.7650    0.0000 O   0  0  0  0  0  0  0  0  0  0  0  0
   16.8604  -11.0364    0.0000 C   0  0  0  0  0  0  0  0  0  0  0  0
   16.8073  -12.2597    0.0000 C   0  0  0  0  0  0  0  0  0  0  0  0
   15.9031  -13.1905    0.0000 N   0  0  0  0  0  0  0  0  0  0  0  0
   18.8018  -11.4619    0.0000 O   0  0  0  0  0  0  0  0  0  0  0  0
   20.6899  -10.7705    0.0000 N   0  0  0  0  0  0  0  0  0  0  0  0
   21.6739  -11.5417    0.0000 C   0  0  0  0  0  0  0  0  0  0  0  0
   22.9504  -11.1162    0.0000 O   0  0  0  0  0  0  0  0  0  0  0  0
   21.6473  -12.9246    0.0000 C   0  0  0  0  0  0  0  0  0  0  0  0
   22.9770  -13.0309    0.0000 H   0  0  0  0  0  0  0  0  0  0  0  0
   21.8069  -14.2011    0.0000 N   0  0  0  0  0  0  0  0  0  0  0  0
   21.1952  -15.3180    0.0000 C   0  0  0  0  0  0  0  0  0  0  0  0
   21.8069  -16.4881    0.0000 C   0  0  0  0  0  0  0  0  0  0  0  0
   23.0834  -16.7009    0.0000 C   0  0  0  0  0  0  0  0  0  0  0  0
   23.4823  -17.9774    0.0000 C   0  0  0  0  0  0  0  0  0  0  0  0
   24.7056  -18.3497    0.0000 C   0  0  0  0  0  0  0  0  0  0  0  0
   25.0513  -19.6528    0.0000 C   0  0  0  0  0  0  0  0  0  0  0  0
   26.3278  -19.2273    0.0000 H   0  0  0  0  0  0  0  0  0  0  0  0
   25.3705  -20.9559    0.0000 C   0  0  0  0  0  0  0  0  0  0  0  0
   26.5938  -21.3814    0.0000 C   0  0  0  0  0  0  0  0  0  0  0  0
   23.7748  -20.0783    0.0000 C   0  0  0  0  0  0  0  0  0  0  0  0
   19.8921  -15.6371    0.0000 O   0  0  0  0  0  0  0  0  0  0  0  0
   20.3176  -12.8714    0.0000 C   0  0  0  0  0  0  0  0  0  0  0  0
   19.4932  -13.8022    0.0000 C   0  0  0  0  0  0  0  0  0  0  0  0
   18.2167  -13.8288    0.0000 N   0  0  0  0  0  0  0  0  0  0  0  0
   20.6102   -7.3665    0.0000 C   0  0  0  0  0  0  0  0  0  0  0  0
  1  2  1  0  0  0  0
  2  3  1  6  0  0  0
  2  4  1  0  0  0  0
  2 95  1  0  0  0  0
  4  5  1  1  0  0  0
  4  6  1  0  0  0  0
  4 75  1  0  0  0  0
  6  7  1  0  0  0  0
  6 74  2  0  0  0  0
  7  8  1  0  0  0  0
  8  9  1  6  0  0  0
  8 10  1  0  0  0  0
  8 71  1  0  0  0  0
 10 11  2  0  0  0  0
 10 12  1  0  0  0  0
 12 13  1  0  0  0  0
 13 14  1  6  0  0  0
 13 15  1  0  0  0  0
 13 42  1  0  0  0  0
 15 16  1  0  0  0  0
 16 17  1  0  0  0  0
 17 18  1  0  0  0  0
 18 19  1  0  0  0  0
 18 70  2  0  0  0  0
 19 20  1  1  0  0  0
 19 21  1  0  0  0  0
 19 66  1  0  0  0  0
 21 22  1  0  0  0  0
 22 23  1  0  0  0  0
 22 65  2  0  0  0  0
 23 24  1  1  0  0  0
 23 25  1  0  0  0  0
 23 62  1  0  0  0  0
 25 26  1  0  0  0  0
 26 27  1  0  0  0  0
 26 61  2  0  0  0  0
 27 28  1  1  0  0  0
 27 29  1  0  0  0  0
 27 58  1  0  0  0  0
 29 30  1  0  0  0  0
 30 31  1  0  0  0  0
 30 57  2  0  0  0  0
 31 32  1  1  0  0  0
 31 33  1  0  0  0  0
 31 53  1  0  0  0  0
 33 34  1  0  0  0  0
 34 35  1  0  0  0  0
 34 52  2  0  0  0  0
 35 36  1  6  0  0  0
 35 37  1  0  0  0  0
 35 48  1  0  0  0  0
 37 38  1  0  0  0  0
 38 39  1  0  0  0  0
 38 47  2  0  0  0  0
 39 40  1  1  0  0  0
 39 41  1  0  0  0  0
 39 44  1  0  0  0  0
 41 42  1  0  0  0  0
 42 43  2  0  0  0  0
 44 45  1  0  0  0  0
 45 46  1  0  0  0  0
 48 49  1  0  0  0  0
 49 50  1  0  0  0  0
 49 51  1  0  0  0  0
 53 54  1  0  0  0  0
 54 55  1  0  0  0  0
 54 56  1  0  0  0  0
 58 59  1  0  0  0  0
 59 60  1  0  0  0  0
 62 63  1  0  0  0  0
 63 64  1  0  0  0  0
 66 67  1  1  0  0  0
 66 68  1  0  0  0  0
 66 69  1  0  0  0  0
 71 72  1  0  0  0  0
 72 73  1  0  0  0  0
 75 76  1  0  0  0  0
 76 77  2  0  0  0  0
 76 78  1  0  0  0  0
 78 79  1  6  0  0  0
 78 80  1  0  0  0  0
 78 92  1  0  0  0  0
 80 81  1  0  0  0  0
 81 82  1  0  0  0  0
 81 91  2  0  0  0  0
 82 83  1  0  0  0  0
 83 84  1  0  0  0  0
 84 85  1  0  0  0  0
 85 86  1  0  0  0  0
 86 87  1  6  0  0  0
 86 88  1  0  0  0  0
 86 90  1  0  0  0  0
 88 89  1  0  0  0  0
 92 93  1  0  0  0  0
 93 94  1  0  0  0  0
M  END
> <ID>
14063

> <Formula>
C53H100N16O13

> <FW>
1169.4605

> <DSSTox_CID>
29005

> <DSSTox_RID>
83270

> <DSSTox_GSID>
49079

> <DSSTox_FileID_Sort>
7945

> <TS_ChemName>
Colistin A

> <TS_ChemName_Synonyms>
Polymyxin E1

> <TS_CASRN>
7722-44-3

> <CASRN_ChemName_Relationship>
primary

> <TS_Description>
single chemical compound

> <ChemNote>


> <STRUCTURE_Shown>
tested chemical

> <STRUCTURE_Formula>
C53H100N16O13

> <STRUCTURE_MW>
1169.4605

> <STRUCTURE_ChemType>
defined organic

> <STRUCTURE_DefinedOrganicForm>
parent

> <STRUCTURE_IUPAC>
(6R)-N-[(2S)-4-amino-1-{[(2S,3R)-1-{[(2S)-4-amino-1-oxo-1-{[(3S,6S,9S,12S,15R,18S,21S)-6,9,18-tris(2-aminoethyl)-3-[(1R)-1-hydroxyethyl]-12,15-bis(2-methylpropyl)-2,5,8,11,14,17,20-heptaoxo-1,4,7,10,13,16,19-heptaazacyclotricosan-21-yl]amino}butan-2-yl]am

> <STRUCTURE_SMILES>
C[C@H](CC)CCCCC(=O)N[C@@H](CCN)C(=O)N[C@H](C(=O)N[C@@H](CCN)C(=O)N[C@H]1CCNC(=O)[C@@H](NC(=O)[C@H](CCN)NC(=O)[C@H](CCN)NC(=O)[C@H](CC(C)C)NC(=O)[C@@H](CC(C)C)NC(=O)[C@@H](NC1=O)CCN)[C@@H](C)O)[C@@H](C)O

> <STRUCTURE_SMILES_Desalt>
C[C@H](CC)CCCCC(=O)N[C@@H](CCN)C(=O)N[C@H](C(=O)N[C@@H](CCN)C(=O)N[C@H]1CCNC(=O)[C@@H](NC(=O)[C@H](CCN)NC(=O)[C@H](CCN)NC(=O)[C@H](CC(C)C)NC(=O)[C@@H](CC(C)C)NC(=O)[C@@H](NC1=O)CCN)[C@@H](C)O)[C@@H](C)O

> <Substance_modify_yyyymmdd>
20111204

$$$$
