7724-76-7
ChemmineR-0915142007XD

 28 30  0  0  1  0  0  0  0  0  1 V2000
    0.0000   -1.9924    0.0000 C   0  0  0  0  0  0  0  0  0  0  0  0
    1.1569   -1.3240    0.0000 C   0  0  0  0  0  0  0  0  0  0  0  0
    1.1569    0.0000    0.0000 C   0  0  0  0  0  0  0  0  0  0  0  0
    2.3009   -1.9924    0.0000 C   0  0  0  0  0  0  0  0  0  0  0  0
    2.3009   -3.3292    0.0000 C   0  0  0  0  0  0  0  0  0  0  0  0
    3.4578   -3.9848    0.0000 N   0  0  0  0  0  0  0  0  0  0  0  0
    3.4578   -5.3216    0.0000 C   0  0  0  0  0  0  0  0  0  0  0  0
    2.3009   -5.9900    0.0000 N   0  0  0  0  0  0  0  0  0  0  0  0
    2.3009   -7.3140    0.0000 C   0  0  0  0  0  0  0  0  0  0  0  0
    3.4578   -7.9824    0.0000 N   0  0  0  0  0  0  0  0  0  0  0  0
    4.6018   -7.3140    0.0000 C   0  0  0  0  0  0  0  0  0  0  0  0
    4.6018   -5.9900    0.0000 C   0  0  0  0  0  0  0  0  0  0  0  0
    5.8744   -5.5787    0.0000 N   0  0  0  0  0  0  0  0  0  0  0  0
    6.6585   -6.6456    0.0000 C   0  0  0  0  0  0  0  0  0  0  0  0
    5.8744   -7.7254    0.0000 N   0  0  0  0  0  0  0  0  0  0  0  0
    6.2857   -8.9851    0.0000 C   0  0  0  0  0  0  0  0  0  0  0  0
    6.5556   -7.6868    0.0000 H   0  0  0  0  0  0  0  0  0  0  0  0
    5.5016  -10.0648    0.0000 O   0  0  0  0  0  0  0  0  0  0  0  0
    6.2857  -11.1446    0.0000 C   0  0  0  0  0  0  0  0  0  0  0  0
    5.2959  -12.0315    0.0000 H   0  0  0  0  0  0  0  0  0  0  0  0
    6.5556  -12.4428    0.0000 C   0  0  0  0  0  0  0  0  0  0  0  0
    7.8282  -12.8542    0.0000 O   0  0  0  0  0  0  0  0  0  0  0  0
    7.5454  -10.7332    0.0000 C   0  0  0  0  0  0  0  0  0  0  0  0
    8.0853  -11.9415    0.0000 H   0  0  0  0  0  0  0  0  0  0  0  0
    8.8694  -10.8746    0.0000 O   0  0  0  0  0  0  0  0  0  0  0  0
    7.5454   -9.3964    0.0000 C   0  0  0  0  0  0  0  0  0  0  0  0
    8.8694   -9.2679    0.0000 H   0  0  0  0  0  0  0  0  0  0  0  0
    8.0853   -8.1881    0.0000 O   0  0  0  0  0  0  0  0  0  0  0  0
  1  2  1  0  0  0  0
  2  3  1  0  0  0  0
  2  4  2  0  0  0  0
  4  5  1  0  0  0  0
  5  6  1  0  0  0  0
  6  7  1  0  0  0  0
  7  8  2  0  0  0  0
  7 12  1  0  0  0  0
  8  9  1  0  0  0  0
  9 10  2  0  0  0  0
 10 11  1  0  0  0  0
 11 12  2  0  0  0  0
 11 15  1  0  0  0  0
 12 13  1  0  0  0  0
 13 14  2  0  0  0  0
 14 15  1  0  0  0  0
 15 16  1  0  0  0  0
 16 17  1  6  0  0  0
 16 18  1  0  0  0  0
 16 26  1  0  0  0  0
 18 19  1  0  0  0  0
 19 20  1  0  0  0  0
 19 21  1  1  0  0  0
 19 23  1  0  0  0  0
 21 22  1  0  0  0  0
 23 24  1  0  0  0  0
 23 25  1  6  0  0  0
 23 26  1  0  0  0  0
 26 27  1  0  0  0  0
 26 28  1  6  0  0  0
M  END
> <ID>
16226

> <Formula>
C15H21N5O4

> <FW>
335.3583

> <DSSTox_CID>
31617

> <DSSTox_RID>
97501

> <DSSTox_GSID>
57828

> <DSSTox_FileID_Sort>
8568

> <TS_ChemName>
Riboprine

> <TS_ChemName_Synonyms>


> <TS_CASRN>
7724-76-7

> <CASRN_ChemName_Relationship>
primary

> <TS_Description>
single chemical compound

> <ChemNote>


> <STRUCTURE_Shown>
tested chemical

> <STRUCTURE_Formula>
C15H21N5O4

> <STRUCTURE_MW>
335.3583

> <STRUCTURE_ChemType>
defined organic

> <STRUCTURE_DefinedOrganicForm>
parent

> <STRUCTURE_IUPAC>
N-(3-methylbut-2-en-1-yl)adenosine

> <STRUCTURE_SMILES>
C/C(C)=C\CNc3ncnc1c3ncn1[C@@H]2O[C@H](CO)[C@@H](O)[C@H]2O

> <STRUCTURE_SMILES_Desalt>
C/C(C)=C\CNc3ncnc1c3ncn1[C@@H]2O[C@H](CO)[C@@H](O)[C@H]2O

> <Substance_modify_yyyymmdd>
20131018

$$$$
