77257-42-2
ChemmineR-0915142007XD

 25 25  0  0  0  0  0  0  0  0  2 V2000
    8.7627   -4.6884    0.0000 I   0  5  0  0  0  0  0  0  0  0  0  0
    2.3068   -5.3175    0.0000 C   0  0  0  0  0  0  0  0  0  0  0  0
    2.3068   -3.9844    0.0000 C   0  0  0  0  0  0  0  0  0  0  0  0
    1.1534   -5.9916    0.0000 C   0  0  0  0  0  0  0  0  0  0  0  0
    1.1534   -3.3253    0.0000 C   0  0  0  0  0  0  0  0  0  0  0  0
    0.0000   -5.3175    0.0000 C   0  0  0  0  0  0  0  0  0  0  0  0
    0.0000   -3.9844    0.0000 C   0  0  0  0  0  0  0  0  0  0  0  0
    3.4601   -3.3253    0.0000 C   0  0  0  0  0  0  0  0  0  0  0  0
    4.6135   -3.9844    0.0000 C   0  0  0  0  0  0  0  0  0  0  0  0
    5.7669   -3.3253    0.0000 C   0  0  0  0  0  0  0  0  0  0  0  0
    6.9203   -3.9844    0.0000 C   0  0  0  0  0  0  0  0  0  0  0  0
    5.7669   -2.0072    0.0000 C   0  0  0  0  0  0  0  0  0  0  0  0
    8.0587   -3.3253    0.0000 C   0  0  0  0  0  0  0  0  0  0  0  0
    6.9203   -1.3331    0.0000 C   0  0  0  0  0  0  0  0  0  0  0  0
    8.0587   -2.0072    0.0000 C   0  0  0  0  0  0  0  0  0  0  0  0
    9.2120   -1.3331    0.0000 O   0  0  0  0  0  0  0  0  0  0  0  0
   10.3654   -2.0072    0.0000 C   0  0  0  0  0  0  0  0  0  0  0  0
   11.5188   -1.3331    0.0000 C   0  0  0  0  0  0  0  0  0  0  0  0
   12.6722   -2.0072    0.0000 N   0  3  0  0  0  0  0  0  0  0  0  0
   13.8255   -1.3331    0.0000 C   0  0  0  0  0  0  0  0  0  0  0  0
   12.6722   -3.3253    0.0000 C   0  0  0  0  0  0  0  0  0  0  0  0
   12.6722   -0.6741    0.0000 C   0  0  0  0  0  0  0  0  0  0  0  0
   11.5188   -3.9844    0.0000 C   0  0  0  0  0  0  0  0  0  0  0  0
   14.9789   -2.0072    0.0000 C   0  0  0  0  0  0  0  0  0  0  0  0
   13.8255    0.0000    0.0000 C   0  0  0  0  0  0  0  0  0  0  0  0
  2  3  1  0  0  0  0
  2  4  2  0  0  0  0
  3  5  2  0  0  0  0
  3  8  1  0  0  0  0
  4  6  1  0  0  0  0
  5  7  1  0  0  0  0
  6  7  2  0  0  0  0
  8  9  2  0  0  0  0
  9 10  1  0  0  0  0
 10 11  1  0  0  0  0
 10 12  2  0  0  0  0
 11 13  2  0  0  0  0
 12 14  1  0  0  0  0
 13 15  1  0  0  0  0
 14 15  2  0  0  0  0
 15 16  1  0  0  0  0
 16 17  1  0  0  0  0
 17 18  1  0  0  0  0
 18 19  1  0  0  0  0
 19 20  1  0  0  0  0
 19 21  1  0  0  0  0
 19 22  1  0  0  0  0
 20 24  1  0  0  0  0
 21 23  1  0  0  0  0
 22 25  1  0  0  0  0
M  END
> <ID>
11191

> <Formula>
C22H30INO

> <FW>
451.3842 (126.9050+324.4792)

> <DSSTox_CID>
25781

> <DSSTox_RID>
81123

> <DSSTox_GSID>
45781

> <DSSTox_FileID_Sort>
5804

> <TS_ChemName>
Stilonium iodide

> <TS_ChemName_Synonyms>


> <TS_CASRN>
77257-42-2

> <CASRN_ChemName_Relationship>
primary

> <TS_Description>
single chemical compound

> <ChemNote>
stereochem; parent [

> <STRUCTURE_Shown>
tested chemical

> <STRUCTURE_Formula>
C22H30INO

> <STRUCTURE_MW>
451.3842

> <STRUCTURE_ChemType>
defined organic

> <STRUCTURE_DefinedOrganicForm>
salt

> <STRUCTURE_IUPAC>
N,N,N-triethyl-2-{4-[(E)-2-phenylethenyl]phenoxy}ethanaminium iodide

> <STRUCTURE_SMILES>
[I-].CC[N+](CCOc1ccc(cc1)/C=C/c2ccccc2)(CC)CC

> <STRUCTURE_SMILES_Desalt>
CC[N+](CCOc1ccc(cc1)/C=C/c2ccccc2)(CC)CC

> <Substance_modify_yyyymmdd>
20110902

$$$$
