7727-54-0
ChemmineR-0915142007XD

 12  9  0  0  0  0  0  0  0  0  2 V2000
    2.3836   -1.8258    0.0000 S   0  0  0  0  0  0  0  0  0  0  0  0
    3.5332   -1.1665    0.0000 O   0  0  0  0  0  0  0  0  0  0  0  0
    4.6912   -1.8258    0.0000 O   0  0  0  0  0  0  0  0  0  0  0  0
    5.8408   -1.1665    0.0000 S   0  0  0  0  0  0  0  0  0  0  0  0
    6.9903   -0.4987    0.0000 O   0  5  0  0  0  0  0  0  0  0  0  0
    1.7243   -0.6678    0.0000 O   0  5  0  0  0  0  0  0  0  0  0  0
    3.0514   -2.9753    0.0000 O   0  0  0  0  0  0  0  0  0  0  0  0
    1.2341   -2.4935    0.0000 O   0  0  0  0  0  0  0  0  0  0  0  0
    5.1730    0.0000    0.0000 O   0  0  0  0  0  0  0  0  0  0  0  0
    6.5085   -2.3076    0.0000 O   0  0  0  0  0  0  0  0  0  0  0  0
    0.0000   -0.4564    0.0000 N   0  3  0  0  0  0  0  0  0  0  0  0
    8.4526   -0.3973    0.0000 N   0  3  0  0  0  0  0  0  0  0  0  0
  1  2  1  0  0  0  0
  1  6  1  0  0  0  0
  1  7  2  0  0  0  0
  1  8  2  0  0  0  0
  2  3  1  0  0  0  0
  3  4  1  0  0  0  0
  4  5  1  0  0  0  0
  4  9  2  0  0  0  0
  4 10  2  0  0  0  0
M  END
> <ID>
6134

> <Formula>
H8N2O8S2

> <FW>
228.2021 (192.1263+18.0379+18.0379)

> <DSSTox_CID>
9691

> <DSSTox_RID>
78810

> <DSSTox_GSID>
29691

> <DSSTox_FileID_Sort>
3492

> <TS_ChemName>
Diammonium peroxydisulfate

> <TS_ChemName_Synonyms>
Peroxydisulfuric acid, diammonium salt

> <TS_CASRN>
7727-54-0

> <CASRN_ChemName_Relationship>
primary

> <TS_Description>
single chemical compound

> <ChemNote>


> <STRUCTURE_Shown>
tested chemical

> <STRUCTURE_Formula>
H8N2O8S2

> <STRUCTURE_MW>
228.2021

> <STRUCTURE_ChemType>
inorganic

> <STRUCTURE_DefinedOrganicForm>


> <STRUCTURE_IUPAC>
diammonium [(sulfonatoperoxy)sulfonyl]oxidanide

> <STRUCTURE_SMILES>
[NH4+].[NH4+].O=S(=O)([O-])OOS([O-])(=O)=O

> <STRUCTURE_SMILES_Desalt>
O=S(O)(=O)OOS(=O)(=O)O

> <Substance_modify_yyyymmdd>
20080429

$$$$
