77337-73-6
ChemmineR-0915142007XD

 23 20  0  0  0  0  0  0  0  0  2 V2000
    3.6341   -4.7572    0.0000 Ca   0  2  0  0  0  0  0  0  0  0  0  0
    2.2919   -1.3149    0.0000 C    0  0  0  0  0  0  0  0  0  0  0  0
    3.4424   -1.9906    0.0000 C    0  0  0  0  0  0  0  0  0  0  0  0
    4.6020   -1.3149    0.0000 C    0  0  0  0  0  0  0  0  0  0  0  0
    1.1414   -1.9906    0.0000 S    0  0  0  0  0  0  0  0  0  0  0  0
    0.0000   -2.6389    0.0000 O    0  0  0  0  0  0  0  0  0  0  0  0
    1.8079   -3.1411    0.0000 O    0  5  0  0  0  0  0  0  0  0  0  0
    0.4839   -0.8309    0.0000 O    0  0  0  0  0  0  0  0  0  0  0  0
    5.7525   -1.9906    0.0000 N    0  0  0  0  0  0  0  0  0  0  0  0
    6.9030   -1.3149    0.0000 C    0  0  0  0  0  0  0  0  0  0  0  0
    6.9030    0.0000    0.0000 O    0  0  0  0  0  0  0  0  0  0  0  0
    8.0535   -1.9906    0.0000 C    0  0  0  0  0  0  0  0  0  0  0  0
    2.6571   -7.7979    0.0000 C    0  0  0  0  0  0  0  0  0  0  0  0
    3.8167   -7.1404    0.0000 C    0  0  0  0  0  0  0  0  0  0  0  0
    4.9490   -7.7979    0.0000 C    0  0  0  0  0  0  0  0  0  0  0  0
    1.4883   -7.1404    0.0000 S    0  0  0  0  0  0  0  0  0  0  0  0
    0.8309   -8.2818    0.0000 O    0  0  0  0  0  0  0  0  0  0  0  0
    2.1640   -5.9717    0.0000 O    0  5  0  0  0  0  0  0  0  0  0  0
    0.3378   -6.4739    0.0000 O    0  0  0  0  0  0  0  0  0  0  0  0
    6.0995   -7.1404    0.0000 N    0  0  0  0  0  0  0  0  0  0  0  0
    7.2591   -7.7979    0.0000 C    0  0  0  0  0  0  0  0  0  0  0  0
    7.2591   -9.1310    0.0000 O    0  0  0  0  0  0  0  0  0  0  0  0
    8.4096   -7.1404    0.0000 C    0  0  0  0  0  0  0  0  0  0  0  0
  2  3  1  0  0  0  0
  2  5  1  0  0  0  0
  3  4  1  0  0  0  0
  4  9  1  0  0  0  0
  5  6  2  0  0  0  0
  5  7  1  0  0  0  0
  5  8  2  0  0  0  0
  9 10  1  0  0  0  0
 10 11  2  0  0  0  0
 10 12  1  0  0  0  0
 13 14  1  0  0  0  0
 13 16  1  0  0  0  0
 14 15  1  0  0  0  0
 15 20  1  0  0  0  0
 16 17  2  0  0  0  0
 16 18  1  0  0  0  0
 16 19  2  0  0  0  0
 20 21  1  0  0  0  0
 21 22  2  0  0  0  0
 21 23  1  0  0  0  0
M  END
> <ID>
12654

> <Formula>
C10H20CaN2O8S2

> <FW>
400.4824 (40.0769+180.2027+180.2027)

> <DSSTox_CID>
27529

> <DSSTox_RID>
82399

> <DSSTox_GSID>
47529

> <DSSTox_FileID_Sort>
7080

> <TS_ChemName>
Acamprosate calcium

> <TS_ChemName_Synonyms>
Acamprosate calcium salt

> <TS_CASRN>
77337-73-6

> <CASRN_ChemName_Relationship>
primary

> <TS_Description>
single chemical compound

> <ChemNote>
parent [77337-76-9]

> <STRUCTURE_Shown>
tested chemical

> <STRUCTURE_Formula>
C10H20CaN2O8S2

> <STRUCTURE_MW>
400.4824

> <STRUCTURE_ChemType>
defined organic

> <STRUCTURE_DefinedOrganicForm>
salt

> <STRUCTURE_IUPAC>
calcium bis[3-(acetylamino)propane-1-sulfonate]

> <STRUCTURE_SMILES>
[Ca+2].O=C(C)NCCCS(=O)(=O)[O-].CC(=O)NCCCS([O-])(=O)=O

> <STRUCTURE_SMILES_Desalt>
O=S(=O)(O)CCCNC(C)=O

> <Substance_modify_yyyymmdd>
20100908

$$$$
