774-55-0
ChemmineR-0915142007XD

 13 14  0  0  0  0  0  0  0  0  1 V2000
    2.3055   -2.0017    0.0000 C   0  0  0  0  0  0  0  0  0  0  0  0
    2.3055   -3.3339    0.0000 C   0  0  0  0  0  0  0  0  0  0  0  0
    1.1527   -1.3322    0.0000 C   0  0  0  0  0  0  0  0  0  0  0  0
    1.1527   -3.9897    0.0000 C   0  0  0  0  0  0  0  0  0  0  0  0
    0.0000   -2.0017    0.0000 C   0  0  0  0  0  0  0  0  0  0  0  0
    0.0000   -3.3339    0.0000 C   0  0  0  0  0  0  0  0  0  0  0  0
    3.4582   -1.3322    0.0000 C   0  0  0  0  0  0  0  0  0  0  0  0
    4.6109   -2.0017    0.0000 C   0  0  0  0  0  0  0  0  0  0  0  0
    3.4582   -3.9897    0.0000 C   0  0  0  0  0  0  0  0  0  0  0  0
    4.6109   -3.3339    0.0000 C   0  0  0  0  0  0  0  0  0  0  0  0
    5.7636   -1.3322    0.0000 C   0  0  0  0  0  0  0  0  0  0  0  0
    6.9025   -2.0017    0.0000 C   0  0  0  0  0  0  0  0  0  0  0  0
    5.7636    0.0000    0.0000 O   0  0  0  0  0  0  0  0  0  0  0  0
  1  3  1  0  0  0  0
  1  7  1  0  0  0  0
  1  2  2  0  0  0  0
  2  4  1  0  0  0  0
  2  9  1  0  0  0  0
  3  5  1  0  0  0  0
  4  6  1  0  0  0  0
  5  6  1  0  0  0  0
  7  8  2  0  0  0  0
  8 10  1  0  0  0  0
  8 11  1  0  0  0  0
  9 10  2  0  0  0  0
 11 12  1  0  0  0  0
 11 13  2  0  0  0  0
M  END
> <ID>
12311

> <Formula>
C12H14O

> <FW>
174.239

> <DSSTox_CID>
27163

> <DSSTox_RID>
82164

> <DSSTox_GSID>
47163

> <DSSTox_FileID_Sort>
6845

> <TS_ChemName>
6-Acetyl-1,2,3,4-tetrahydronaphthalene

> <TS_ChemName_Synonyms>


> <TS_CASRN>
774-55-0

> <CASRN_ChemName_Relationship>
primary

> <TS_Description>
single chemical compound

> <ChemNote>


> <STRUCTURE_Shown>
tested chemical

> <STRUCTURE_Formula>
C12H14O

> <STRUCTURE_MW>
174.239

> <STRUCTURE_ChemType>
defined organic

> <STRUCTURE_DefinedOrganicForm>
parent

> <STRUCTURE_IUPAC>
1-(5,6,7,8-tetrahydronaphthalen-2-yl)ethanone

> <STRUCTURE_SMILES>
CC(=O)c1ccc2CCCCc2c1

> <STRUCTURE_SMILES_Desalt>
CC(=O)c1ccc2CCCCc2c1

> <Substance_modify_yyyymmdd>
20100503

$$$$
