77469-98-8
ChemmineR-0915142007XD

 26 28  0  0  0  0  0  0  0  0  1 V2000
    6.9023   -2.0020    0.0000 C    0  0  0  0  0  0  0  0  0  0  0  0
    6.9023   -0.6723    0.0000 C    0  0  0  0  0  0  0  0  0  0  0  0
    8.1721   -2.4053    0.0000 N    0  0  0  0  0  0  0  0  0  0  0  0
    5.7668   -2.6593    0.0000 C    0  0  0  0  0  0  0  0  0  0  0  0
    8.1721   -0.2540    0.0000 N    0  0  0  0  0  0  0  0  0  0  0  0
    5.7668    0.0000    0.0000 C    0  0  0  0  0  0  0  0  0  0  0  0
    8.9640   -1.3297    0.0000 C    0  0  0  0  0  0  0  0  0  0  0  0
    4.6015   -2.0020    0.0000 C    0  0  0  0  0  0  0  0  0  0  0  0
    4.6015   -0.6723    0.0000 C    0  0  0  0  0  0  0  0  0  0  0  0
   10.2936   -1.3297    0.0000 C    0  0  0  0  0  0  0  0  0  0  0  0
    3.4661   -2.6593    0.0000 C    0  0  0  0  0  0  0  0  0  0  0  0
   10.9510   -2.4800    0.0000 C    0  0  0  0  0  0  0  0  0  0  0  0
   10.9510   -0.1793    0.0000 C    0  0  0  0  0  0  0  0  0  0  0  0
    2.2858   -2.0020    0.0000 C    0  0  0  0  0  0  0  0  0  0  0  0
    3.4661   -3.9890    0.0000 N    0  0  0  0  0  0  0  0  0  0  0  0
   12.2956   -2.4800    0.0000 C    0  0  0  0  0  0  0  0  0  0  0  0
   12.2956   -0.1793    0.0000 C    0  0  0  0  0  0  0  0  0  0  0  0
    1.1504   -2.6593    0.0000 C    0  0  0  0  0  0  0  0  0  0  0  0
    2.2858   -0.6723    0.0000 C    0  0  0  0  0  0  0  0  0  0  0  0
    2.2858   -4.6463    0.0000 N    0  0  0  0  0  0  0  0  0  0  0  0
   12.9529   -1.3297    0.0000 C    0  0  0  0  0  0  0  0  0  0  0  0
    1.1504   -3.9890    0.0000 C    0  0  0  0  0  0  0  0  0  0  0  0
   14.2826   -1.3297    0.0000 O    0  0  0  0  0  0  0  0  0  0  0  0
    0.0000   -4.6463    0.0000 O    0  0  0  0  0  0  0  0  0  0  0  0
   14.9399   -2.4800    0.0000 C    0  0  0  0  0  0  0  0  0  0  0  0
    7.7688   -3.6005    0.0000 Cl   0  0  0  0  0  0  0  0  0  0  0  0
  1  2  2  0  0  0  0
  1  3  1  0  0  0  0
  1  4  1  0  0  0  0
  2  5  1  0  0  0  0
  2  6  1  0  0  0  0
  3  7  2  0  0  0  0
  4  8  2  0  0  0  0
  5  7  1  0  0  0  0
  6  9  2  0  0  0  0
  7 10  1  0  0  0  0
  8 11  1  0  0  0  0
  8  9  1  0  0  0  0
 10 12  1  0  0  0  0
 10 13  2  0  0  0  0
 11 14  1  0  0  0  0
 11 15  2  0  0  0  0
 12 16  2  0  0  0  0
 13 17  1  0  0  0  0
 14 18  1  0  0  0  0
 14 19  1  0  0  0  0
 15 20  1  0  0  0  0
 16 21  1  0  0  0  0
 17 21  2  0  0  0  0
 18 22  1  0  0  0  0
 20 22  1  0  0  0  0
 21 23  1  0  0  0  0
 22 24  2  0  0  0  0
 23 25  1  0  0  0  0
M  END
> <ID>
11982

> <Formula>
C19H19ClN4O2

> <FW>
370.8328 (334.3718+36.4609)

> <DSSTox_CID>
26804

> <DSSTox_RID>
81918

> <DSSTox_GSID>
46804

> <DSSTox_FileID_Sort>
6599

> <TS_ChemName>
Pimobendan hydrochloride

> <TS_ChemName_Synonyms>


> <TS_CASRN>
77469-98-8

> <CASRN_ChemName_Relationship>
primary

> <TS_Description>
single chemical compound

> <ChemNote>
tautomers; parent [77469-98-8]

> <STRUCTURE_Shown>
tested chemical

> <STRUCTURE_Formula>
C19H19ClN4O2

> <STRUCTURE_MW>
370.8328

> <STRUCTURE_ChemType>
defined organic

> <STRUCTURE_DefinedOrganicForm>
complex

> <STRUCTURE_IUPAC>
6-[2-(4-methoxyphenyl)-1H-benzimidazol-5-yl]-5-methyl-4,5-dihydropyridazin-3(2H)-one hydrochloride (1:1)

> <STRUCTURE_SMILES>
Cl.COc1ccc(cc1)c2nc3ccc(cc3n2)C4=NNC(=O)CC4C

> <STRUCTURE_SMILES_Desalt>
COc1ccc(cc1)c2nc3ccc(cc3n2)C4=NNC(=O)CC4C

> <Substance_modify_yyyymmdd>
20110801

$$$$
