77501-63-4
ChemmineR-0915142007XD

 31 32  0  0  0  0  0  0  0  0  2 V2000
    3.4627   -3.9322    0.0000 C    0  0  0  0  0  0  0  0  0  0  0  0
    3.4627   -2.6410    0.0000 O    0  0  0  0  0  0  0  0  0  0  0  0
    2.2889   -4.5661    0.0000 C    0  0  0  0  0  0  0  0  0  0  0  0
    4.6952   -4.6365    0.0000 O    0  0  0  0  0  0  0  0  0  0  0  0
    1.1738   -3.9322    0.0000 C    0  0  0  0  0  0  0  0  0  0  0  0
    2.2889   -5.9277    0.0000 C    0  0  0  0  0  0  0  0  0  0  0  0
    0.0000   -4.5661    0.0000 C    0  0  0  0  0  0  0  0  0  0  0  0
    1.1738   -6.5732    0.0000 C    0  0  0  0  0  0  0  0  0  0  0  0
    0.0000   -5.9277    0.0000 C    0  0  0  0  0  0  0  0  0  0  0  0
    1.1738   -7.9231    0.0000 O    0  0  0  0  0  0  0  0  0  0  0  0
    2.3593   -8.5687    0.0000 C    0  0  0  0  0  0  0  0  0  0  0  0
    2.3593   -9.9068    0.0000 C    0  0  0  0  0  0  0  0  0  0  0  0
    3.4627   -7.9231    0.0000 C    0  0  0  0  0  0  0  0  0  0  0  0
    3.4627  -10.5641    0.0000 C    0  0  0  0  0  0  0  0  0  0  0  0
    4.5661   -8.5687    0.0000 C    0  0  0  0  0  0  0  0  0  0  0  0
    4.5661   -9.9068    0.0000 C    0  0  0  0  0  0  0  0  0  0  0  0
    1.1738  -10.5641    0.0000 Cl   0  0  0  0  0  0  0  0  0  0  0  0
    5.7399  -10.5641    0.0000 C    0  0  0  0  0  0  0  0  0  0  0  0
    6.9136  -11.2097    0.0000 F    0  0  0  0  0  0  0  0  0  0  0  0
    6.3854   -9.3786    0.0000 F    0  0  0  0  0  0  0  0  0  0  0  0
    5.0943  -11.7379    0.0000 F    0  0  0  0  0  0  0  0  0  0  0  0
    1.1738   -2.5823    0.0000 N    0  3  0  0  0  0  0  0  0  0  0  0
    2.2889   -1.9250    0.0000 O    0  5  0  0  0  0  0  0  0  0  0  0
    0.0000   -1.9250    0.0000 O    0  0  0  0  0  0  0  0  0  0  0  0
    5.8103   -3.9909    0.0000 C    0  0  0  0  0  0  0  0  0  0  0  0
    5.8103   -2.6410    0.0000 C    0  0  0  0  0  0  0  0  0  0  0  0
    6.9958   -1.9837    0.0000 O    0  0  0  0  0  0  0  0  0  0  0  0
    6.9958   -0.6456    0.0000 C    0  0  0  0  0  0  0  0  0  0  0  0
    5.8103    0.0000    0.0000 C    0  0  0  0  0  0  0  0  0  0  0  0
    6.9958   -4.6365    0.0000 C    0  0  0  0  0  0  0  0  0  0  0  0
    4.6952   -1.9837    0.0000 O    0  0  0  0  0  0  0  0  0  0  0  0
  1  2  2  0  0  0  0
  1  3  1  0  0  0  0
  1  4  1  0  0  0  0
  3  5  2  0  0  0  0
  3  6  1  0  0  0  0
  4 25  1  0  0  0  0
  5  7  1  0  0  0  0
  5 22  1  0  0  0  0
  6  8  2  0  0  0  0
  7  9  2  0  0  0  0
  8  9  1  0  0  0  0
  8 10  1  0  0  0  0
 10 11  1  0  0  0  0
 11 12  2  0  0  0  0
 11 13  1  0  0  0  0
 12 14  1  0  0  0  0
 12 17  1  0  0  0  0
 13 15  2  0  0  0  0
 14 16  2  0  0  0  0
 15 16  1  0  0  0  0
 16 18  1  0  0  0  0
 18 19  1  0  0  0  0
 18 20  1  0  0  0  0
 18 21  1  0  0  0  0
 22 23  1  0  0  0  0
 22 24  2  0  0  0  0
 25 26  1  0  0  0  0
 25 30  1  0  0  0  0
 26 27  1  0  0  0  0
 26 31  2  0  0  0  0
 27 28  1  0  0  0  0
 28 29  1  0  0  0  0
M  END
> <ID>
3536

> <Formula>
C19H15ClF3NO7

> <FW>
461.7731

> <DSSTox_CID>
4160

> <DSSTox_RID>
77310

> <DSSTox_GSID>
24160

> <DSSTox_FileID_Sort>
1993

> <TS_ChemName>
Lactofen

> <TS_ChemName_Synonyms>


> <TS_CASRN>
77501-63-4

> <CASRN_ChemName_Relationship>
primary

> <TS_Description>
single chemical compound

> <ChemNote>


> <STRUCTURE_Shown>
tested chemical

> <STRUCTURE_Formula>
C19H15ClF3NO7

> <STRUCTURE_MW>
461.7731

> <STRUCTURE_ChemType>
defined organic

> <STRUCTURE_DefinedOrganicForm>
parent

> <STRUCTURE_IUPAC>
1-ethoxy-1-oxopropan-2-yl 5-[2-chloro-4-(trifluoromethyl)phenoxy]-2-nitrobenzoate

> <STRUCTURE_SMILES>
Clc2cc(ccc2Oc1cc(C(=O)OC(C)C(=O)OCC)c(cc1)[N+]([O-])=O)C(F)(F)F

> <STRUCTURE_SMILES_Desalt>
Clc2cc(ccc2Oc1cc(C(=O)OC(C)C(=O)OCC)c(cc1)[N+]([O-])=O)C(F)(F)F

> <Substance_modify_yyyymmdd>
20080429

$$$$
