77501-90-7
ChemmineR-0915142007XD

 30 31  0  0  0  0  0  0  0  0  2 V2000
    5.9809   -3.4590    0.0000 C    0  0  0  0  0  0  0  0  0  0  0  0
    6.6561   -4.6028    0.0000 O    0  0  0  0  0  0  0  0  0  0  0  0
    6.6561   -2.2876    0.0000 C    0  0  0  0  0  0  0  0  0  0  0  0
    4.6579   -3.4590    0.0000 O    0  0  0  0  0  0  0  0  0  0  0  0
    5.9809   -1.1438    0.0000 C    0  0  0  0  0  0  0  0  0  0  0  0
    7.9791   -2.2876    0.0000 C    0  0  0  0  0  0  0  0  0  0  0  0
    6.6561    0.0000    0.0000 C    0  0  0  0  0  0  0  0  0  0  0  0
    8.6406   -1.1438    0.0000 C    0  0  0  0  0  0  0  0  0  0  0  0
    7.9791    0.0000    0.0000 C    0  0  0  0  0  0  0  0  0  0  0  0
    9.9911   -1.1438    0.0000 O    0  0  0  0  0  0  0  0  0  0  0  0
   10.6388   -2.2876    0.0000 C    0  0  0  0  0  0  0  0  0  0  0  0
   11.9756   -2.2876    0.0000 C    0  0  0  0  0  0  0  0  0  0  0  0
    9.9911   -3.4590    0.0000 C    0  0  0  0  0  0  0  0  0  0  0  0
   12.6370   -3.4590    0.0000 C    0  0  0  0  0  0  0  0  0  0  0  0
   10.6388   -4.6028    0.0000 C    0  0  0  0  0  0  0  0  0  0  0  0
   11.9756   -4.6028    0.0000 C    0  0  0  0  0  0  0  0  0  0  0  0
   12.6370   -1.1438    0.0000 Cl   0  0  0  0  0  0  0  0  0  0  0  0
   12.6370   -5.7604    0.0000 C    0  0  0  0  0  0  0  0  0  0  0  0
   13.2985   -6.9180    0.0000 F    0  0  0  0  0  0  0  0  0  0  0  0
   13.7808   -5.0851    0.0000 F    0  0  0  0  0  0  0  0  0  0  0  0
   11.4794   -6.4219    0.0000 F    0  0  0  0  0  0  0  0  0  0  0  0
    4.6579   -1.1438    0.0000 N    0  3  0  0  0  0  0  0  0  0  0  0
    3.9827    0.0000    0.0000 O    0  5  0  0  0  0  0  0  0  0  0  0
    3.9827   -2.2876    0.0000 O    0  0  0  0  0  0  0  0  0  0  0  0
    3.9827   -4.6028    0.0000 C    0  0  0  0  0  0  0  0  0  0  0  0
    2.6597   -4.6028    0.0000 C    0  0  0  0  0  0  0  0  0  0  0  0
    1.9982   -3.4590    0.0000 O    0  0  0  0  0  0  0  0  0  0  0  0
    0.6477   -3.4590    0.0000 C    0  0  0  0  0  0  0  0  0  0  0  0
    0.0000   -2.2876    0.0000 C    0  0  0  0  0  0  0  0  0  0  0  0
    1.9982   -5.7604    0.0000 O    0  0  0  0  0  0  0  0  0  0  0  0
  1  2  2  0  0  0  0
  1  3  1  0  0  0  0
  1  4  1  0  0  0  0
  3  5  2  0  0  0  0
  3  6  1  0  0  0  0
  4 25  1  0  0  0  0
  5  7  1  0  0  0  0
  5 22  1  0  0  0  0
  6  8  2  0  0  0  0
  7  9  2  0  0  0  0
  8  9  1  0  0  0  0
  8 10  1  0  0  0  0
 10 11  1  0  0  0  0
 11 12  2  0  0  0  0
 11 13  1  0  0  0  0
 12 14  1  0  0  0  0
 12 17  1  0  0  0  0
 13 15  2  0  0  0  0
 14 16  2  0  0  0  0
 15 16  1  0  0  0  0
 16 18  1  0  0  0  0
 18 19  1  0  0  0  0
 18 20  1  0  0  0  0
 18 21  1  0  0  0  0
 22 23  1  0  0  0  0
 22 24  2  0  0  0  0
 25 26  1  0  0  0  0
 26 27  1  0  0  0  0
 26 30  2  0  0  0  0
 27 28  1  0  0  0  0
 28 29  1  0  0  0  0
M  END
> <ID>
8918

> <Formula>
C18H13ClF3NO7

> <FW>
447.7465

> <DSSTox_CID>
21983

> <DSSTox_RID>
79895

> <DSSTox_GSID>
41983

> <DSSTox_FileID_Sort>
4577

> <TS_ChemName>
Fluoroglycofen-ethyl

> <TS_ChemName_Synonyms>


> <TS_CASRN>
77501-90-7

> <CASRN_ChemName_Relationship>
primary

> <TS_Description>
single chemical compound

> <ChemNote>


> <STRUCTURE_Shown>
tested chemical

> <STRUCTURE_Formula>
C18H13ClF3NO7

> <STRUCTURE_MW>
447.7465

> <STRUCTURE_ChemType>
defined organic

> <STRUCTURE_DefinedOrganicForm>
parent

> <STRUCTURE_IUPAC>
2-ethoxy-2-oxoethyl 5-[2-chloro-4-(trifluoromethyl)phenoxy]-2-nitrobenzoate

> <STRUCTURE_SMILES>
Clc2cc(ccc2Oc1cc(C(=O)OCC(=O)OCC)c(cc1)[N+]([O-])=O)C(F)(F)F

> <STRUCTURE_SMILES_Desalt>
Clc2cc(ccc2Oc1cc(C(=O)OCC(=O)OCC)c(cc1)[N+]([O-])=O)C(F)(F)F

> <Substance_modify_yyyymmdd>
20080825

$$$$
