7753-60-8
ChemmineR-0915142007XD

 30 33  0  0  1  0  0  0  0  0  1 V2000
    4.6052   -5.7189    0.0000 C   0  0  0  0  0  0  0  0  0  0  0  0
    6.9078   -4.4425    0.0000 C   0  0  0  0  0  0  0  0  0  0  0  0
    3.4539   -6.3446    0.0000 C   0  0  0  0  0  0  0  0  0  0  0  0
    8.1467   -4.0421    0.0000 C   0  0  0  0  0  0  0  0  0  0  0  0
    3.4539   -7.6586    0.0000 C   0  0  0  0  0  0  0  0  0  0  0  0
    6.9078   -5.7565    0.0000 C   0  0  0  0  0  0  0  0  0  0  0  0
    5.7440   -6.3822    0.0000 C   0  0  0  0  0  0  0  0  0  0  0  0
    4.6052   -4.4050    0.0000 C   0  0  0  0  0  0  0  0  0  0  0  0
    5.7440   -3.7542    0.0000 C   0  0  0  0  0  0  0  0  0  0  0  0
    8.6347   -2.8157    0.0000 C   0  0  0  0  0  0  0  0  0  0  0  0
    2.3151   -8.2968    0.0000 C   0  0  0  0  0  0  0  0  0  0  0  0
    8.9351   -5.1183    0.0000 C   0  0  0  0  0  0  0  0  0  0  0  0
    8.1717   -6.1820    0.0000 C   0  0  0  0  0  0  0  0  0  0  0  0
    2.3151   -5.6689    0.0000 C   0  0  0  0  0  0  0  0  0  0  0  0
    5.7440   -7.6962    0.0000 C   0  0  0  0  0  0  0  0  0  0  0  0
    4.6052   -8.3344    0.0000 C   0  0  0  0  0  0  0  0  0  0  0  0
    1.1513   -7.6211    0.0000 C   0  0  0  0  0  0  0  0  0  0  0  0
   11.6882   -1.2389    0.0000 C   0  0  0  0  0  0  0  0  0  0  0  0
    9.9112   -2.6280    0.0000 C   0  0  0  0  0  0  0  0  0  0  0  0
    7.8213   -1.7895    0.0000 O   0  0  0  0  0  0  0  0  0  0  0  0
   10.3867   -1.4141    0.0000 O   0  0  0  0  0  0  0  0  0  0  0  0
   12.1637    0.0000    0.0000 O   0  0  0  0  0  0  0  0  0  0  0  0
    0.0000   -8.2593    0.0000 O   0  0  0  0  0  0  0  0  0  0  0  0
    9.8736   -4.0421    0.0000 O   0  0  0  0  0  0  0  0  0  0  0  0
    1.1763   -6.3071    0.0000 C   0  0  0  0  0  0  0  0  0  0  0  0
    6.8452   -3.1035    0.0000 C   0  0  0  0  0  0  0  0  0  0  0  0
    3.4539   -5.0432    0.0000 C   0  0  0  0  0  0  0  0  0  0  0  0
   12.5141   -2.2651    0.0000 C   0  0  0  0  0  0  0  0  0  0  0  0
    5.7440   -5.0557    0.0000 H   0  0  0  0  0  0  0  0  0  0  0  0
    6.9078   -7.0705    0.0000 H   0  0  0  0  0  0  0  0  0  0  0  0
  1  3  1  0  0  0  0
  1  7  1  0  0  0  0
  1  8  2  0  0  0  0
  2  4  1  0  0  0  0
  2 26  1  1  0  0  0
  2  6  1  0  0  0  0
  2  9  1  0  0  0  0
  3  5  1  0  0  0  0
  3 14  1  0  0  0  0
  3 27  1  1  0  0  0
  4 10  1  0  0  0  0
  4 24  1  6  0  0  0
  4 12  1  0  0  0  0
  5 11  2  0  0  0  0
  5 16  1  0  0  0  0
  6  7  1  0  0  0  0
  6 13  1  0  0  0  0
  6 30  1  6  0  0  0
  7 15  1  0  0  0  0
  7 29  1  1  0  0  0
  8  9  1  0  0  0  0
 10 19  1  0  0  0  0
 10 20  2  0  0  0  0
 11 17  1  0  0  0  0
 12 13  1  0  0  0  0
 14 25  1  0  0  0  0
 15 16  1  0  0  0  0
 17 25  1  0  0  0  0
 17 23  2  0  0  0  0
 18 21  1  0  0  0  0
 18 22  2  0  0  0  0
 18 28  1  0  0  0  0
 19 21  1  0  0  0  0
M  END
> <ID>
11983

> <Formula>
C23H30O5

> <FW>
386.4813

> <DSSTox_CID>
26805

> <DSSTox_RID>
81919

> <DSSTox_GSID>
46805

> <DSSTox_FileID_Sort>
6600

> <TS_ChemName>
Anecortave acetate

> <TS_ChemName_Synonyms>


> <TS_CASRN>
7753-60-8

> <CASRN_ChemName_Relationship>
primary

> <TS_Description>
single chemical compound

> <ChemNote>
stereochem; tautomers

> <STRUCTURE_Shown>
tested chemical

> <STRUCTURE_Formula>
C23H30O5

> <STRUCTURE_MW>
386.4813

> <STRUCTURE_ChemType>
defined organic

> <STRUCTURE_DefinedOrganicForm>
parent

> <STRUCTURE_IUPAC>
17-hydroxy-3,20-dioxopregna-4,9(11)-dien-21-yl acetate

> <STRUCTURE_SMILES>
CC(=O)OCC(=O)[C@@]3(O)CC[C@H]2[C@@H]4CCC1=CC(=O)CC[C@]1(C)C4=CC[C@@]23C

> <STRUCTURE_SMILES_Desalt>
CC(=O)OCC(=O)[C@@]3(O)CC[C@H]2[C@@H]4CCC1=CC(=O)CC[C@]1(C)C4=CC[C@@]23C

> <Substance_modify_yyyymmdd>
20110801

$$$$
