775304-57-9
ChemmineR-0915142007XD

 21 23  0  0  0  0  0  0  0  0  1 V2000
    8.7343   -0.0966    0.0000 O   0  0  0  0  0  0  0  0  0  0  0  0
    9.3996   -1.2447    0.0000 C   0  0  0  0  0  0  0  0  0  0  0  0
   10.7301   -1.2447    0.0000 O   0  0  0  0  0  0  0  0  0  0  0  0
    8.7343   -2.3928    0.0000 C   0  0  0  0  0  0  0  0  0  0  0  0
    9.3996   -3.5517    0.0000 C   0  0  0  0  0  0  0  0  0  0  0  0
    8.7343   -4.6998    0.0000 C   0  0  0  0  0  0  0  0  0  0  0  0
    7.4038   -4.6998    0.0000 C   0  0  0  0  0  0  0  0  0  0  0  0
    6.7385   -3.5517    0.0000 C   0  0  0  0  0  0  0  0  0  0  0  0
    7.4038   -2.3928    0.0000 C   0  0  0  0  0  0  0  0  0  0  0  0
    5.4080   -3.5517    0.0000 C   0  0  0  0  0  0  0  0  0  0  0  0
    4.6354   -4.6247    0.0000 N   0  0  0  0  0  0  0  0  0  0  0  0
    3.3692   -4.2169    0.0000 O   0  0  0  0  0  0  0  0  0  0  0  0
    3.3692   -2.8864    0.0000 C   0  0  0  0  0  0  0  0  0  0  0  0
    4.6354   -2.4679    0.0000 N   0  0  0  0  0  0  0  0  0  0  0  0
    2.2855   -2.1031    0.0000 C   0  0  0  0  0  0  0  0  0  0  0  0
    1.0730   -2.6396    0.0000 C   0  0  0  0  0  0  0  0  0  0  0  0
    0.0000   -1.8563    0.0000 C   0  0  0  0  0  0  0  0  0  0  0  0
    0.1395   -0.5365    0.0000 C   0  0  0  0  0  0  0  0  0  0  0  0
    1.3520    0.0000    0.0000 C   0  0  0  0  0  0  0  0  0  0  0  0
    2.4250   -0.7833    0.0000 C   0  0  0  0  0  0  0  0  0  0  0  0
    3.6482   -0.2361    0.0000 F   0  0  0  0  0  0  0  0  0  0  0  0
  1  2  1  0  0  0  0
  2  3  2  0  0  0  0
  2  4  1  0  0  0  0
  4  5  2  0  0  0  0
  4  9  1  0  0  0  0
  5  6  1  0  0  0  0
  6  7  2  0  0  0  0
  7  8  1  0  0  0  0
  8  9  2  0  0  0  0
  8 10  1  0  0  0  0
 10 11  2  0  0  0  0
 10 14  1  0  0  0  0
 11 12  1  0  0  0  0
 12 13  1  0  0  0  0
 13 14  2  0  0  0  0
 13 15  1  0  0  0  0
 15 16  2  0  0  0  0
 15 20  1  0  0  0  0
 16 17  1  0  0  0  0
 17 18  2  0  0  0  0
 18 19  1  0  0  0  0
 19 20  2  0  0  0  0
 20 21  1  0  0  0  0
M  END
> <ID>
11959

> <Formula>
C15H9FN2O3

> <FW>
284.242

> <DSSTox_CID>
26776

> <DSSTox_RID>
81895

> <DSSTox_GSID>
46776

> <DSSTox_FileID_Sort>
6576

> <TS_ChemName>
Ataluren

> <TS_ChemName_Synonyms>


> <TS_CASRN>
775304-57-9

> <CASRN_ChemName_Relationship>
primary

> <TS_Description>
single chemical compound

> <ChemNote>


> <STRUCTURE_Shown>
tested chemical

> <STRUCTURE_Formula>
C15H9FN2O3

> <STRUCTURE_MW>
284.242

> <STRUCTURE_ChemType>
defined organic

> <STRUCTURE_DefinedOrganicForm>
parent

> <STRUCTURE_IUPAC>
3-[5-(2-fluorophenyl)-1,2,4-oxadiazol-3-yl]benzoic acid

> <STRUCTURE_SMILES>
O=C(O)c1cccc(c1)c2nc(on2)c3ccccc3F

> <STRUCTURE_SMILES_Desalt>
O=C(O)c1cccc(c1)c2nc(on2)c3ccccc3F

> <Substance_modify_yyyymmdd>
20110802

$$$$
