7756-96-9
ChemmineR-0915142007XD

 14 14  0  0  0  0  0  0  0  0  1 V2000
    3.9956   -2.3091    0.0000 C   0  0  0  0  0  0  0  0  0  0  0  0
    4.6528   -3.4594    0.0000 O   0  0  0  0  0  0  0  0  0  0  0  0
    4.6528   -1.1589    0.0000 O   0  0  0  0  0  0  0  0  0  0  0  0
    5.9847   -1.1589    0.0000 C   0  0  0  0  0  0  0  0  0  0  0  0
    6.6506   -2.3091    0.0000 C   0  0  0  0  0  0  0  0  0  0  0  0
    7.9825   -2.3091    0.0000 C   0  0  0  0  0  0  0  0  0  0  0  0
    8.6484   -3.4594    0.0000 C   0  0  0  0  0  0  0  0  0  0  0  0
    2.6637   -2.3091    0.0000 C   0  0  0  0  0  0  0  0  0  0  0  0
    1.9978   -3.4594    0.0000 C   0  0  0  0  0  0  0  0  0  0  0  0
    0.6659   -3.4594    0.0000 C   0  0  0  0  0  0  0  0  0  0  0  0
    0.0000   -2.3091    0.0000 C   0  0  0  0  0  0  0  0  0  0  0  0
    0.6659   -1.1589    0.0000 C   0  0  0  0  0  0  0  0  0  0  0  0
    1.9978   -1.1589    0.0000 C   0  0  0  0  0  0  0  0  0  0  0  0
    2.6637    0.0000    0.0000 N   0  0  0  0  0  0  0  0  0  0  0  0
  1  2  2  0  0  0  0
  1  3  1  0  0  0  0
  1  8  1  0  0  0  0
  3  4  1  0  0  0  0
  4  5  1  0  0  0  0
  5  6  1  0  0  0  0
  6  7  1  0  0  0  0
  8  9  2  0  0  0  0
  8 13  1  0  0  0  0
  9 10  1  0  0  0  0
 10 11  2  0  0  0  0
 11 12  1  0  0  0  0
 12 13  2  0  0  0  0
 13 14  1  0  0  0  0
M  END
> <ID>
3808

> <Formula>
C11H15NO2

> <FW>
193.2423

> <DSSTox_CID>
4683

> <DSSTox_RID>
77498

> <DSSTox_GSID>
24683

> <DSSTox_FileID_Sort>
2181

> <TS_ChemName>
Butyl anthranilate

> <TS_ChemName_Synonyms>


> <TS_CASRN>
7756-96-9

> <CASRN_ChemName_Relationship>
primary

> <TS_Description>
single chemical compound

> <ChemNote>


> <STRUCTURE_Shown>
tested chemical

> <STRUCTURE_Formula>
C11H15NO2

> <STRUCTURE_MW>
193.2423

> <STRUCTURE_ChemType>
defined organic

> <STRUCTURE_DefinedOrganicForm>
parent

> <STRUCTURE_IUPAC>
butyl 2-aminobenzoate

> <STRUCTURE_SMILES>
Nc1ccccc1C(=O)OCCCC

> <STRUCTURE_SMILES_Desalt>
Nc1ccccc1C(=O)OCCCC

> <Substance_modify_yyyymmdd>
20080429

$$$$
