7757-79-1
ChemmineR-0915142007XD

  5  3  0  0  0  0  0  0  0  0  2 V2000
    1.3252   -1.1339    0.0000 N   0  3  0  0  0  0  0  0  0  0  0  0
    1.9831   -2.3004    0.0000 O   0  5  0  0  0  0  0  0  0  0  0  0
    2.0111    0.0000    0.0000 O   0  0  0  0  0  0  0  0  0  0  0  0
    0.0000   -1.1012    0.0000 O   0  5  0  0  0  0  0  0  0  0  0  0
    4.6661   -1.1479    0.0000 K   0  3  0  0  0  0  0  0  0  0  0  0
  1  2  1  0  0  0  0
  1  3  2  0  0  0  0
  1  4  1  0  0  0  0
M  END
> <ID>
6135

> <Formula>
KNO3

> <FW>
101.1032 (62.0054+39.0978)

> <DSSTox_CID>
9692

> <DSSTox_RID>
78811

> <DSSTox_GSID>
29692

> <DSSTox_FileID_Sort>
3493

> <TS_ChemName>
Potassium nitrate

> <TS_ChemName_Synonyms>
Potassium nitrate (Nitric acid potassium salt) (KNO3)

> <TS_CASRN>
7757-79-1

> <CASRN_ChemName_Relationship>
primary

> <TS_Description>
single chemical compound

> <ChemNote>


> <STRUCTURE_Shown>
tested chemical

> <STRUCTURE_Formula>
KNO3

> <STRUCTURE_MW>
101.1032

> <STRUCTURE_ChemType>
inorganic

> <STRUCTURE_DefinedOrganicForm>


> <STRUCTURE_IUPAC>
potassium nitrate

> <STRUCTURE_SMILES>
[K+].[O-][N+]([O-])=O

> <STRUCTURE_SMILES_Desalt>
[O-][N+](=O)O

> <Substance_modify_yyyymmdd>
20080429

$$$$
