77671-31-9
ChemmineR-0915142007XD

 17 18  0  0  0  0  0  0  0  0  1 V2000
    0.0000   -3.3395    0.0000 C   0  0  0  0  0  0  0  0  0  0  0  0
    1.1553   -3.9894    0.0000 S   0  0  0  0  0  0  0  0  0  0  0  0
    2.3106   -3.3395    0.0000 C   0  0  0  0  0  0  0  0  0  0  0  0
    2.3106   -2.0037    0.0000 C   0  0  0  0  0  0  0  0  0  0  0  0
    3.4659   -1.3358    0.0000 C   0  0  0  0  0  0  0  0  0  0  0  0
    4.6212   -2.0037    0.0000 C   0  0  0  0  0  0  0  0  0  0  0  0
    4.6212   -3.3395    0.0000 C   0  0  0  0  0  0  0  0  0  0  0  0
    3.4659   -3.9894    0.0000 C   0  0  0  0  0  0  0  0  0  0  0  0
    5.7674   -1.3358    0.0000 C   0  0  0  0  0  0  0  0  0  0  0  0
    5.7674    0.0000    0.0000 O   0  0  0  0  0  0  0  0  0  0  0  0
    6.9227   -2.0037    0.0000 C   0  0  0  0  0  0  0  0  0  0  0  0
    8.1322   -1.4622    0.0000 C   0  0  0  0  0  0  0  0  0  0  0  0
    8.4210   -0.1625    0.0000 C   0  0  0  0  0  0  0  0  0  0  0  0
    9.0257   -2.4550    0.0000 N   0  0  0  0  0  0  0  0  0  0  0  0
    8.3669   -3.6103    0.0000 C   0  0  0  0  0  0  0  0  0  0  0  0
    8.8994   -4.8107    0.0000 O   0  0  0  0  0  0  0  0  0  0  0  0
    7.0581   -3.3215    0.0000 N   0  0  0  0  0  0  0  0  0  0  0  0
  1  2  1  0  0  0  0
  2  3  1  0  0  0  0
  3  4  2  0  0  0  0
  3  8  1  0  0  0  0
  4  5  1  0  0  0  0
  5  6  2  0  0  0  0
  6  7  1  0  0  0  0
  6  9  1  0  0  0  0
  7  8  2  0  0  0  0
  9 10  2  0  0  0  0
  9 11  1  0  0  0  0
 11 12  2  0  0  0  0
 11 17  1  0  0  0  0
 12 13  1  0  0  0  0
 12 14  1  0  0  0  0
 14 15  1  0  0  0  0
 15 16  2  0  0  0  0
 15 17  1  0  0  0  0
M  END
> <ID>
10771

> <Formula>
C12H12N2O2S

> <FW>
248.3009

> <DSSTox_CID>
25147

> <DSSTox_RID>
80702

> <DSSTox_GSID>
45147

> <DSSTox_FileID_Sort>
5383

> <TS_ChemName>
Enoximone

> <TS_ChemName_Synonyms>


> <TS_CASRN>
77671-31-9

> <CASRN_ChemName_Relationship>
primary

> <TS_Description>
single chemical compound

> <ChemNote>


> <STRUCTURE_Shown>
tested chemical

> <STRUCTURE_Formula>
C12H12N2O2S

> <STRUCTURE_MW>
248.3009

> <STRUCTURE_ChemType>
defined organic

> <STRUCTURE_DefinedOrganicForm>
parent

> <STRUCTURE_IUPAC>
4-methyl-5-[4-(methylsulfanyl)benzoyl]-1,3-dihydro-2H-imidazol-2-one

> <STRUCTURE_SMILES>
O=C(C=1NC(=O)NC=1C)c2ccc(SC)cc2

> <STRUCTURE_SMILES_Desalt>
O=C(C=1NC(=O)NC=1C)c2ccc(SC)cc2

> <Substance_modify_yyyymmdd>
20100107

$$$$
