777-11-7
ChemmineR-0915142007XD

 14 14  0  0  0  0  0  0  0  0  1 V2000
    6.9104   -1.3618    0.0000 C    0  0  0  0  0  0  0  0  0  0  0  0
    2.3372   -4.0671    0.0000 C    0  0  0  0  0  0  0  0  0  0  0  0
    2.3004   -1.4078    0.0000 C    0  0  0  0  0  0  0  0  0  0  0  0
    8.0698   -0.6717    0.0000 C    0  0  0  0  0  0  0  0  0  0  0  0
    1.1686   -3.4230    0.0000 C    0  0  0  0  0  0  0  0  0  0  0  0
    1.1686   -2.0796    0.0000 C    0  0  0  0  0  0  0  0  0  0  0  0
    3.4874   -3.3862    0.0000 C    0  0  0  0  0  0  0  0  0  0  0  0
    3.4598   -2.0612    0.0000 C    0  0  0  0  0  0  0  0  0  0  0  0
    9.2016    0.0000    0.0000 I    0  0  0  0  0  0  0  0  0  0  0  0
    0.0276   -4.0947    0.0000 Cl   0  0  0  0  0  0  0  0  0  0  0  0
    0.0000   -1.4354    0.0000 Cl   0  0  0  0  0  0  0  0  0  0  0  0
    4.6376   -4.0487    0.0000 Cl   0  0  0  0  0  0  0  0  0  0  0  0
    4.6100   -1.3894    0.0000 O    0  0  0  0  0  0  0  0  0  0  0  0
    5.7602   -2.0336    0.0000 C    0  0  0  0  0  0  0  0  0  0  0  0
  1  4  3  0  0  0  0
  1 14  1  0  0  0  0
  2  7  2  0  0  0  0
  2  5  1  0  0  0  0
  3  8  2  0  0  0  0
  3  6  1  0  0  0  0
  4  9  1  0  0  0  0
  5 10  1  0  0  0  0
  5  6  2  0  0  0  0
  6 11  1  0  0  0  0
  7  8  1  0  0  0  0
  7 12  1  0  0  0  0
  8 13  1  0  0  0  0
 13 14  1  0  0  0  0
M  END
> <ID>
12035

> <Formula>
C9H4Cl3IO

> <FW>
361.3909

> <DSSTox_CID>
26865

> <DSSTox_RID>
81972

> <DSSTox_GSID>
46865

> <DSSTox_FileID_Sort>
6653

> <TS_ChemName>
Haloprogin

> <TS_ChemName_Synonyms>


> <TS_CASRN>
777-11-7

> <CASRN_ChemName_Relationship>
primary

> <TS_Description>
single chemical compound

> <ChemNote>


> <STRUCTURE_Shown>
tested chemical

> <STRUCTURE_Formula>
C9H4Cl3IO

> <STRUCTURE_MW>
361.3909

> <STRUCTURE_ChemType>
defined organic

> <STRUCTURE_DefinedOrganicForm>
parent

> <STRUCTURE_IUPAC>
3-iodoprop-2-yn-1-yl 2,4,5-trichlorophenyl ether

> <STRUCTURE_SMILES>
Clc1cc(OCC#CI)c(Cl)cc1Cl

> <STRUCTURE_SMILES_Desalt>
Clc1cc(OCC#CI)c(Cl)cc1Cl

> <Substance_modify_yyyymmdd>
20110728

$$$$
