77732-09-3
ChemmineR-0915142007XD

 20 21  0  0  0  0  0  0  0  0  1 V2000
    3.5397   -2.0343    0.0000 C   0  0  0  0  0  0  0  0  0  0  0  0
    3.5397   -0.6998    0.0000 O   0  0  0  0  0  0  0  0  0  0  0  0
    2.3924   -2.6934    0.0000 C   0  0  0  0  0  0  0  0  0  0  0  0
    4.6952   -2.6934    0.0000 N   0  0  0  0  0  0  0  0  0  0  0  0
    5.8670   -2.0343    0.0000 C   0  0  0  0  0  0  0  0  0  0  0  0
    5.8670   -0.6998    0.0000 C   0  0  0  0  0  0  0  0  0  0  0  0
    7.0225   -2.6934    0.0000 C   0  0  0  0  0  0  0  0  0  0  0  0
    7.0225    0.0000    0.0000 C   0  0  0  0  0  0  0  0  0  0  0  0
    8.1373   -1.9936    0.0000 C   0  0  0  0  0  0  0  0  0  0  0  0
    8.1373   -0.6591    0.0000 C   0  0  0  0  0  0  0  0  0  0  0  0
    4.7196   -0.0244    0.0000 C   0  0  0  0  0  0  0  0  0  0  0  0
    7.0225   -4.0280    0.0000 C   0  0  0  0  0  0  0  0  0  0  0  0
    1.2531   -2.0343    0.0000 O   0  0  0  0  0  0  0  0  0  0  0  0
    0.0000   -2.6121    0.0000 C   0  0  0  0  0  0  0  0  0  0  0  0
    4.6952   -4.0280    0.0000 N   0  0  0  0  0  0  0  0  0  0  0  0
    3.6292   -4.7847    0.0000 C   0  0  0  0  0  0  0  0  0  0  0  0
    5.7856   -4.7847    0.0000 C   0  0  0  0  0  0  0  0  0  0  0  0
    4.0280   -6.0460    0.0000 O   0  0  0  0  0  0  0  0  0  0  0  0
    5.3543   -6.0460    0.0000 C   0  0  0  0  0  0  0  0  0  0  0  0
    2.3680   -4.3860    0.0000 O   0  0  0  0  0  0  0  0  0  0  0  0
  1  2  2  0  0  0  0
  1  4  1  0  0  0  0
  1  3  1  0  0  0  0
  3 13  1  0  0  0  0
  4  5  1  0  0  0  0
  4 15  1  0  0  0  0
  5  6  2  0  0  0  0
  5  7  1  0  0  0  0
  6  8  1  0  0  0  0
  6 11  1  0  0  0  0
  7  9  2  0  0  0  0
  7 12  1  0  0  0  0
  8 10  2  0  0  0  0
  9 10  1  0  0  0  0
 13 14  1  0  0  0  0
 15 16  1  0  0  0  0
 15 17  1  0  0  0  0
 16 18  1  0  0  0  0
 16 20  2  0  0  0  0
 17 19  1  0  0  0  0
 18 19  1  0  0  0  0
M  END
> <ID>
6553

> <Formula>
C14H18N2O4

> <FW>
278.3037

> <DSSTox_CID>
12631

> <DSSTox_RID>
79015

> <DSSTox_GSID>
32631

> <DSSTox_FileID_Sort>
3697

> <TS_ChemName>
Oxadixyl

> <TS_ChemName_Synonyms>


> <TS_CASRN>
77732-09-3

> <CASRN_ChemName_Relationship>
primary

> <TS_Description>
single chemical compound

> <ChemNote>


> <STRUCTURE_Shown>
tested chemical

> <STRUCTURE_Formula>
C14H18N2O4

> <STRUCTURE_MW>
278.3037

> <STRUCTURE_ChemType>
defined organic

> <STRUCTURE_DefinedOrganicForm>
parent

> <STRUCTURE_IUPAC>
N-(2,6-dimethylphenyl)-2-methoxy-N-(2-oxo-1,3-oxazolidin-3-yl)acetamide

> <STRUCTURE_SMILES>
O=C2OCCN2N(C(=O)COC)c1c(C)cccc1C

> <STRUCTURE_SMILES_Desalt>
O=C2OCCN2N(C(=O)COC)c1c(C)cccc1C

> <Substance_modify_yyyymmdd>
20080429

$$$$
