7773-06-0
ChemmineR-0915142007XD

  6  4  0  0  0  0  0  0  0  0  2 V2000
    1.2321   -1.2178    0.0000 S   0  0  0  0  0  0  0  0  0  0  0  0
    2.4177   -1.7642    0.0000 O   0  5  0  0  0  0  0  0  0  0  0  0
    0.0000   -0.6750    0.0000 O   0  0  0  0  0  0  0  0  0  0  0  0
    1.7606    0.0000    0.0000 O   0  0  0  0  0  0  0  0  0  0  0  0
    0.6714   -2.4356    0.0000 N   0  0  0  0  0  0  0  0  0  0  0  0
    3.5712   -1.9392    0.0000 N   0  3  0  0  0  0  0  0  0  0  0  0
  1  2  1  0  0  0  0
  1  3  2  0  0  0  0
  1  4  2  0  0  0  0
  1  5  1  0  0  0  0
M  END
> <ID>
3401

> <Formula>
H6N2O3S

> <FW>
114.1242 (96.0863+18.0379)

> <DSSTox_CID>
3875

> <DSSTox_RID>
77214

> <DSSTox_GSID>
23875

> <DSSTox_FileID_Sort>
1897

> <TS_ChemName>
Ammonium sulfamate

> <TS_ChemName_Synonyms>


> <TS_CASRN>
7773-06-0

> <CASRN_ChemName_Relationship>
primary

> <TS_Description>
single chemical compound

> <ChemNote>


> <STRUCTURE_Shown>
tested chemical

> <STRUCTURE_Formula>
H6N2O3S

> <STRUCTURE_MW>
114.1242

> <STRUCTURE_ChemType>
inorganic

> <STRUCTURE_DefinedOrganicForm>


> <STRUCTURE_IUPAC>
ammonium sulfamate

> <STRUCTURE_SMILES>
[NH4+].[O-]S(N)(=O)=O

> <STRUCTURE_SMILES_Desalt>
NS(=O)(=O)O

> <Substance_modify_yyyymmdd>
20080429

$$$$
