7775-09-9
ChemmineR-0915142007XD

  5  3  0  0  0  0  0  0  0  0  2 V2000
    4.1263   -1.1550    0.0000 Cl   0  0  0  0  0  0  0  0  0  0  0  0
    4.7925    0.0000    0.0000 O    0  0  0  0  0  0  0  0  0  0  0  0
    4.7925   -2.3052    0.0000 O    0  0  0  0  0  0  0  0  0  0  0  0
    2.7988   -1.1550    0.0000 O    0  5  0  0  0  0  0  0  0  0  0  0
    0.0000   -1.1646    0.0000 Na   0  3  0  0  0  0  0  0  0  0  0  0
  1  2  2  0  0  0  0
  1  3  2  0  0  0  0
  1  4  1  0  0  0  0
M  END
> <ID>
4504

> <Formula>
ClNaO3

> <FW>
106.4410 (83.4517+22.9892)

> <DSSTox_CID>
6025

> <DSSTox_RID>
77987

> <DSSTox_GSID>
26025

> <DSSTox_FileID_Sort>
2670

> <TS_ChemName>
Sodium chlorate

> <TS_ChemName_Synonyms>


> <TS_CASRN>
7775-09-9

> <CASRN_ChemName_Relationship>
primary

> <TS_Description>
single chemical compound

> <ChemNote>


> <STRUCTURE_Shown>
tested chemical

> <STRUCTURE_Formula>
ClNaO3

> <STRUCTURE_MW>
106.441

> <STRUCTURE_ChemType>
inorganic

> <STRUCTURE_DefinedOrganicForm>


> <STRUCTURE_IUPAC>
sodium chlorate

> <STRUCTURE_SMILES>
[Na+].[O-]Cl(=O)=O

> <STRUCTURE_SMILES_Desalt>
O=Cl(=O)O

> <Substance_modify_yyyymmdd>
20080429

$$$$
