7775-27-1
ChemmineR-0915142007XD

 12  9  0  0  0  0  0  0  0  0  2 V2000
    1.8566   -1.8260    0.0000 S    0  0  0  0  0  0  0  0  0  0  0  0
    3.0026   -1.1613    0.0000 O    0  0  0  0  0  0  0  0  0  0  0  0
    4.1639   -1.8260    0.0000 O    0  0  0  0  0  0  0  0  0  0  0  0
    5.3176   -1.1613    0.0000 S    0  0  0  0  0  0  0  0  0  0  0  0
    6.4637   -0.4966    0.0000 O    0  5  0  0  0  0  0  0  0  0  0  0
    1.1919   -0.6647    0.0000 O    0  5  0  0  0  0  0  0  0  0  0  0
    2.5213   -2.9721    0.0000 O    0  0  0  0  0  0  0  0  0  0  0  0
    0.7105   -2.4907    0.0000 O    0  0  0  0  0  0  0  0  0  0  0  0
    4.6529    0.0000    0.0000 O    0  0  0  0  0  0  0  0  0  0  0  0
    5.9823   -2.3074    0.0000 O    0  0  0  0  0  0  0  0  0  0  0  0
    7.6403   -0.3591    0.0000 Na   0  3  0  0  0  0  0  0  0  0  0  0
    0.0000   -0.4966    0.0000 Na   0  3  0  0  0  0  0  0  0  0  0  0
  1  2  1  0  0  0  0
  1  6  1  0  0  0  0
  1  7  2  0  0  0  0
  1  8  2  0  0  0  0
  2  3  1  0  0  0  0
  3  4  1  0  0  0  0
  4  5  1  0  0  0  0
  4  9  2  0  0  0  0
  4 10  2  0  0  0  0
M  END
> <ID>
6138

> <Formula>
Na2O8S2

> <FW>
238.1047 (192.1263+22.9892+22.9892)

> <DSSTox_CID>
9698

> <DSSTox_RID>
78813

> <DSSTox_GSID>
29698

> <DSSTox_FileID_Sort>
3495

> <TS_ChemName>
Sodium persulfate

> <TS_ChemName_Synonyms>
Sodium persulfate (Peroxydisulfuric acid, disodium salt)

> <TS_CASRN>
7775-27-1

> <CASRN_ChemName_Relationship>
primary

> <TS_Description>
single chemical compound

> <ChemNote>


> <STRUCTURE_Shown>
tested chemical

> <STRUCTURE_Formula>
Na2O8S2

> <STRUCTURE_MW>
238.1047

> <STRUCTURE_ChemType>
inorganic

> <STRUCTURE_DefinedOrganicForm>


> <STRUCTURE_IUPAC>
disodium [(sulfonatoperoxy)sulfonyl]oxidanide

> <STRUCTURE_SMILES>
[Na+].[Na+].O=S(=O)([O-])OOS([O-])(=O)=O

> <STRUCTURE_SMILES_Desalt>
O=S(O)(=O)OOS(=O)(=O)O

> <Substance_modify_yyyymmdd>
20080429

$$$$
