77771-02-9
ChemmineR-0915142007XD

 10 10  0  0  0  0  0  0  0  0  1 V2000
    5.3154   -1.1646    0.0000 C    0  0  0  0  0  0  0  0  0  0  0  0
    5.9723   -2.3352    0.0000 O    0  0  0  0  0  0  0  0  0  0  0  0
    3.9895   -1.1646    0.0000 C    0  0  0  0  0  0  0  0  0  0  0  0
    3.3146   -2.3053    0.0000 C    0  0  0  0  0  0  0  0  0  0  0  0
    3.3325    0.0000    0.0000 C    0  0  0  0  0  0  0  0  0  0  0  0
    1.9828   -2.3053    0.0000 C    0  0  0  0  0  0  0  0  0  0  0  0
    2.0007    0.0000    0.0000 C    0  0  0  0  0  0  0  0  0  0  0  0
    1.3318   -1.1347    0.0000 C    0  0  0  0  0  0  0  0  0  0  0  0
    1.3139   -3.4400    0.0000 Br   0  0  0  0  0  0  0  0  0  0  0  0
    0.0000   -1.1347    0.0000 F    0  0  0  0  0  0  0  0  0  0  0  0
  1  2  2  0  0  0  0
  1  3  1  0  0  0  0
  3  4  2  0  0  0  0
  3  5  1  0  0  0  0
  4  6  1  0  0  0  0
  5  7  2  0  0  0  0
  6  8  2  0  0  0  0
  6  9  1  0  0  0  0
  7  8  1  0  0  0  0
  8 10  1  0  0  0  0
M  END
> <ID>
10636

> <Formula>
C7H4BrFO

> <FW>
203.0085

> <DSSTox_CID>
24989

> <DSSTox_RID>
80635

> <DSSTox_GSID>
44989

> <DSSTox_FileID_Sort>
5317

> <TS_ChemName>
3-Bromo-4-fluorobenzaldehyde

> <TS_ChemName_Synonyms>
3-Bromo-4-fluorobenzaldehyde (Benzaldehyde, 3-bromo-4-fluoro-)

> <TS_CASRN>
77771-02-9

> <CASRN_ChemName_Relationship>
primary

> <TS_Description>
single chemical compound

> <ChemNote>


> <STRUCTURE_Shown>
tested chemical

> <STRUCTURE_Formula>
C7H4BrFO

> <STRUCTURE_MW>
203.0085

> <STRUCTURE_ChemType>
defined organic

> <STRUCTURE_DefinedOrganicForm>
parent

> <STRUCTURE_IUPAC>
3-bromo-4-fluorobenzaldehyde

> <STRUCTURE_SMILES>
Fc1ccc(C=O)cc1Br

> <STRUCTURE_SMILES_Desalt>
Fc1ccc(C=O)cc1Br

> <Substance_modify_yyyymmdd>
20091116

$$$$
