7778-74-7
ChemmineR-0915142007XD

  6  4  0  0  0  0  0  0  0  0  2 V2000
    1.3300   -1.3300    0.0000 Cl   0  0  0  0  0  0  0  0  0  0  0  0
    1.3300    0.0000    0.0000 O    0  0  0  0  0  0  0  0  0  0  0  0
    2.6600   -1.3300    0.0000 O    0  5  0  0  0  0  0  0  0  0  0  0
    0.0000   -1.3300    0.0000 O    0  0  0  0  0  0  0  0  0  0  0  0
    1.3300   -2.6600    0.0000 O    0  0  0  0  0  0  0  0  0  0  0  0
    4.2492   -2.0014    0.0000 K    0  3  0  0  0  0  0  0  0  0  0  0
  1  2  2  0  0  0  0
  1  4  2  0  0  0  0
  1  5  2  0  0  0  0
  1  3  1  0  0  0  0
M  END
> <ID>
12158

> <Formula>
ClKO4

> <FW>
138.5489 (99.4511+39.0978)

> <DSSTox_CID>
27003

> <DSSTox_RID>
82046

> <DSSTox_GSID>
47003

> <DSSTox_FileID_Sort>
6727

> <TS_ChemName>
Potassium perchlorate

> <TS_ChemName_Synonyms>


> <TS_CASRN>
7778-74-7

> <CASRN_ChemName_Relationship>
primary

> <TS_Description>
single chemical compound

> <ChemNote>
parent [7601-90-3]

> <STRUCTURE_Shown>
tested chemical

> <STRUCTURE_Formula>
ClKO4

> <STRUCTURE_MW>
138.5489

> <STRUCTURE_ChemType>
inorganic

> <STRUCTURE_DefinedOrganicForm>


> <STRUCTURE_IUPAC>
potassium perchlorate

> <STRUCTURE_SMILES>
[K+].[O-]Cl(=O)(=O)=O

> <STRUCTURE_SMILES_Desalt>
O=Cl(=O)(=O)O

> <Substance_modify_yyyymmdd>
20100325

$$$$
