7779-27-3
ChemmineR-0915142007XD

 12 12  0  0  0  0  0  0  0  0  1 V2000
    3.4614   -1.9868    0.0000 N   0  0  0  0  0  0  0  0  0  0  0  0
    4.6175   -2.6584    0.0000 C   0  0  0  0  0  0  0  0  0  0  0  0
    4.6175   -3.9875    0.0000 N   0  0  0  0  0  0  0  0  0  0  0  0
    3.4614   -4.6452    0.0000 C   0  0  0  0  0  0  0  0  0  0  0  0
    2.3053   -3.9875    0.0000 N   0  0  0  0  0  0  0  0  0  0  0  0
    2.3053   -2.6584    0.0000 C   0  0  0  0  0  0  0  0  0  0  0  0
    3.4614   -0.6577    0.0000 C   0  0  0  0  0  0  0  0  0  0  0  0
    2.3053    0.0000    0.0000 C   0  0  0  0  0  0  0  0  0  0  0  0
    5.7667   -4.6452    0.0000 C   0  0  0  0  0  0  0  0  0  0  0  0
    6.9228   -3.9875    0.0000 C   0  0  0  0  0  0  0  0  0  0  0  0
    1.1561   -4.6452    0.0000 C   0  0  0  0  0  0  0  0  0  0  0  0
    0.0000   -3.9875    0.0000 C   0  0  0  0  0  0  0  0  0  0  0  0
  1  2  1  0  0  0  0
  1  6  1  0  0  0  0
  1  7  1  0  0  0  0
  2  3  1  0  0  0  0
  3  4  1  0  0  0  0
  3  9  1  0  0  0  0
  4  5  1  0  0  0  0
  5  6  1  0  0  0  0
  5 11  1  0  0  0  0
  7  8  1  0  0  0  0
  9 10  1  0  0  0  0
 11 12  1  0  0  0  0
M  END
> <ID>
6483

> <Formula>
C9H21N3

> <FW>
171.2831

> <DSSTox_CID>
12511

> <DSSTox_RID>
78960

> <DSSTox_GSID>
32511

> <DSSTox_FileID_Sort>
3642

> <TS_ChemName>
1,3,5-Triethylhexahydro-s-triazine

> <TS_ChemName_Synonyms>
1,3,5-Triethylhexahydro-s-triazine (Vancide TH)

> <TS_CASRN>
7779-27-3

> <CASRN_ChemName_Relationship>
primary

> <TS_Description>
single chemical compound

> <ChemNote>


> <STRUCTURE_Shown>
tested chemical

> <STRUCTURE_Formula>
C9H21N3

> <STRUCTURE_MW>
171.2831

> <STRUCTURE_ChemType>
defined organic

> <STRUCTURE_DefinedOrganicForm>
parent

> <STRUCTURE_IUPAC>
1,3,5-triethyl-1,3,5-triazinane

> <STRUCTURE_SMILES>
CCN1CN(CN(CC)C1)CC

> <STRUCTURE_SMILES_Desalt>
CCN1CN(CN(CC)C1)CC

> <Substance_modify_yyyymmdd>
20080429

$$$$
