7779-65-9
ChemmineR-0915142007XD

 16 16  0  0  0  0  0  0  0  0  1 V2000
    5.7510   -1.3742    0.0000 C   0  0  0  0  0  0  0  0  0  0  0  0
    4.5962   -2.0556    0.0000 C   0  0  0  0  0  0  0  0  0  0  0  0
    3.4413   -1.3742    0.0000 C   0  0  0  0  0  0  0  0  0  0  0  0
    5.7510   -0.0693    0.0000 O   0  0  0  0  0  0  0  0  0  0  0  0
    6.9058   -2.0556    0.0000 O   0  0  0  0  0  0  0  0  0  0  0  0
    2.2750   -2.0556    0.0000 C   0  0  0  0  0  0  0  0  0  0  0  0
    1.1433   -1.3742    0.0000 C   0  0  0  0  0  0  0  0  0  0  0  0
    2.2750   -3.3605    0.0000 C   0  0  0  0  0  0  0  0  0  0  0  0
    0.0000   -2.0556    0.0000 C   0  0  0  0  0  0  0  0  0  0  0  0
    1.1433   -4.0188    0.0000 C   0  0  0  0  0  0  0  0  0  0  0  0
    0.0000   -3.3605    0.0000 C   0  0  0  0  0  0  0  0  0  0  0  0
    8.0491   -1.3742    0.0000 C   0  0  0  0  0  0  0  0  0  0  0  0
    9.2154   -2.0325    0.0000 C   0  0  0  0  0  0  0  0  0  0  0  0
   10.3702   -1.3396    0.0000 C   0  0  0  0  0  0  0  0  0  0  0  0
   11.5481   -2.0094    0.0000 C   0  0  0  0  0  0  0  0  0  0  0  0
   10.3587    0.0000    0.0000 C   0  0  0  0  0  0  0  0  0  0  0  0
  1  2  1  0  0  0  0
  1  4  2  0  0  0  0
  1  5  1  0  0  0  0
  2  3  2  3  0  0  0
  3  6  1  0  0  0  0
  5 12  1  0  0  0  0
  6  7  2  0  0  0  0
  6  8  1  0  0  0  0
  7  9  1  0  0  0  0
  8 10  2  0  0  0  0
  9 11  2  0  0  0  0
 10 11  1  0  0  0  0
 12 13  1  0  0  0  0
 13 14  1  0  0  0  0
 14 15  1  0  0  0  0
 14 16  1  0  0  0  0
M  END
> <ID>
4207

> <Formula>
C14H18O2

> <FW>
218.2915

> <DSSTox_CID>
5454

> <DSSTox_RID>
77793

> <DSSTox_GSID>
25454

> <DSSTox_FileID_Sort>
2476

> <TS_ChemName>
3-Methylbutyl cinnamate

> <TS_ChemName_Synonyms>
3-Methylbutyl cinnamate (Isoamyl cinnamate)

> <TS_CASRN>
7779-65-9

> <CASRN_ChemName_Relationship>
primary

> <TS_Description>
mixture of Z,E isomers

> <ChemNote>
mixture of Z,E isomers

> <STRUCTURE_Shown>
representative isomer in mixture

> <STRUCTURE_Formula>
C14H18O2

> <STRUCTURE_MW>
218.2915

> <STRUCTURE_ChemType>
defined organic

> <STRUCTURE_DefinedOrganicForm>
parent

> <STRUCTURE_IUPAC>
3-methylbutyl 3-phenylprop-2-enoate

> <STRUCTURE_SMILES>
CC(C)CCOC(=O)C=Cc1ccccc1

> <STRUCTURE_SMILES_Desalt>
CC(C)CCOC(=O)C=Cc1ccccc1

> <Substance_modify_yyyymmdd>
20110514

$$$$
