7779-78-4
ChemmineR-0915142007XD

 13 13  0  0  0  0  0  0  0  0  1 V2000
    3.4507    0.0000    0.0000 C   0  0  0  0  0  0  0  0  0  0  0  0
    4.6144   -0.6546    0.0000 C   0  0  0  0  0  0  0  0  0  0  0  0
    5.7700    0.0000    0.0000 C   0  0  0  0  0  0  0  0  0  0  0  0
    6.9256   -0.6546    0.0000 C   0  0  0  0  0  0  0  0  0  0  0  0
    8.0812    0.0000    0.0000 C   0  0  0  0  0  0  0  0  0  0  0  0
    4.6144   -1.9880    0.0000 O   0  0  0  0  0  0  0  0  0  0  0  0
    6.9256   -1.9880    0.0000 C   0  0  0  0  0  0  0  0  0  0  0  0
    1.1556   -2.6668    0.0000 C   0  0  0  0  0  0  0  0  0  0  0  0
    0.0000   -1.9880    0.0000 C   0  0  0  0  0  0  0  0  0  0  0  0
    0.0000   -0.6546    0.0000 C   0  0  0  0  0  0  0  0  0  0  0  0
    1.1556    0.0000    0.0000 C   0  0  0  0  0  0  0  0  0  0  0  0
    2.2951   -0.6546    0.0000 C   0  0  0  0  0  0  0  0  0  0  0  0
    2.2951   -1.9880    0.0000 C   0  0  0  0  0  0  0  0  0  0  0  0
  1  2  1  0  0  0  0
  1 12  1  0  0  0  0
  2  3  1  0  0  0  0
  2  6  1  0  0  0  0
  3  4  1  0  0  0  0
  4  5  1  0  0  0  0
  4  7  1  0  0  0  0
  8 13  2  0  0  0  0
  8  9  1  0  0  0  0
  9 10  2  0  0  0  0
 10 11  1  0  0  0  0
 11 12  2  0  0  0  0
 12 13  1  0  0  0  0
M  END
> <ID>
12831

> <Formula>
C12H18O

> <FW>
178.2707

> <DSSTox_CID>
27710

> <DSSTox_RID>
82520

> <DSSTox_GSID>
47717

> <DSSTox_FileID_Sort>
7201

> <TS_ChemName>
4-Methyl-1-phenyl-2-pentanol

> <TS_ChemName_Synonyms>


> <TS_CASRN>
7779-78-4

> <CASRN_ChemName_Relationship>
primary

> <TS_Description>
single chemical compound

> <ChemNote>


> <STRUCTURE_Shown>
tested chemical

> <STRUCTURE_Formula>
C12H18O

> <STRUCTURE_MW>
178.2707

> <STRUCTURE_ChemType>
defined organic

> <STRUCTURE_DefinedOrganicForm>
parent

> <STRUCTURE_IUPAC>
4-methyl-1-phenylpentan-2-ol

> <STRUCTURE_SMILES>
OC(Cc1ccccc1)CC(C)C

> <STRUCTURE_SMILES_Desalt>
OC(Cc1ccccc1)CC(C)C

> <Substance_modify_yyyymmdd>
20101216

$$$$
