7783-18-8
ChemmineR-0915142007XD

  7  4  0  0  0  0  0  0  0  0  2 V2000
    1.3300   -1.3463    0.0000 S   0  0  0  0  0  0  0  0  0  0  0  0
    2.6600   -1.3463    0.0000 O   0  0  0  0  0  0  0  0  0  0  0  0
    0.0000   -1.3463    0.0000 O   0  0  0  0  0  0  0  0  0  0  0  0
    1.3300   -2.6763    0.0000 O   0  5  0  0  0  0  0  0  0  0  0  0
    1.3300   -0.0163    0.0000 S   0  5  0  0  0  0  0  0  0  0  0  0
    2.4514   -2.7088    0.0000 N   0  3  0  0  0  0  0  0  0  0  0  0
    2.3729    0.0000    0.0000 N   0  3  0  0  0  0  0  0  0  0  0  0
  1  2  2  0  0  0  0
  1  3  2  0  0  0  0
  1  4  1  0  0  0  0
  1  5  1  0  0  0  0
M  END
> <ID>
6142

> <Formula>
H8N2O3S2

> <FW>
148.2051 (112.1293+18.0379+18.0379)

> <DSSTox_CID>
9703

> <DSSTox_RID>
78814

> <DSSTox_GSID>
29703

> <DSSTox_FileID_Sort>
3496

> <TS_ChemName>
Ammonium thiosulfate

> <TS_ChemName_Synonyms>
Ammonium thiosulfate (Thiosulfuric acid (H2S2O3), diammonium salt)

> <TS_CASRN>
7783-18-8

> <CASRN_ChemName_Relationship>
primary

> <TS_Description>
single chemical compound

> <ChemNote>


> <STRUCTURE_Shown>
tested chemical

> <STRUCTURE_Formula>
H8N2O3S2

> <STRUCTURE_MW>
148.2051

> <STRUCTURE_ChemType>
inorganic

> <STRUCTURE_DefinedOrganicForm>


> <STRUCTURE_IUPAC>
diammonium sulfurothioate

> <STRUCTURE_SMILES>
[NH4+].[NH4+].[O-]S([S-])(=O)=O

> <STRUCTURE_SMILES_Desalt>
O=S(=O)(O)S

> <Substance_modify_yyyymmdd>
20080429

$$$$
