7785-33-3
ChemmineR-0915142007XD

 17 16  0  0  0  0  0  0  0  0  1 V2000
    4.5998   -1.3261    0.0000 O   0  0  0  0  0  0  0  0  0  0  0  0
    5.7602   -1.9891    0.0000 C   0  0  0  0  0  0  0  0  0  0  0  0
    6.9067   -1.3261    0.0000 C   0  0  0  0  0  0  0  0  0  0  0  0
    8.0394   -1.9891    0.0000 C   0  0  0  0  0  0  0  0  0  0  0  0
    9.2135   -1.3261    0.0000 C   0  0  0  0  0  0  0  0  0  0  0  0
   10.3600   -1.9891    0.0000 C   0  0  0  0  0  0  0  0  0  0  0  0
   11.5065   -1.3261    0.0000 C   0  0  0  0  0  0  0  0  0  0  0  0
   12.6530   -2.0029    0.0000 C   0  0  0  0  0  0  0  0  0  0  0  0
   13.8133   -1.3399    0.0000 C   0  0  0  0  0  0  0  0  0  0  0  0
   12.6530   -3.3290    0.0000 C   0  0  0  0  0  0  0  0  0  0  0  0
    8.0394   -3.3290    0.0000 C   0  0  0  0  0  0  0  0  0  0  0  0
    3.4533   -1.9891    0.0000 C   0  0  0  0  0  0  0  0  0  0  0  0
    2.3068   -1.3261    0.0000 C   0  0  0  0  0  0  0  0  0  0  0  0
    1.1465   -1.9891    0.0000 C   0  0  0  0  0  0  0  0  0  0  0  0
    0.0000   -1.3261    0.0000 C   0  0  0  0  0  0  0  0  0  0  0  0
    2.3068    0.0000    0.0000 C   0  0  0  0  0  0  0  0  0  0  0  0
    3.4533   -3.3290    0.0000 O   0  0  0  0  0  0  0  0  0  0  0  0
  1  2  1  0  0  0  0
  1 12  1  0  0  0  0
  2  3  1  0  0  0  0
  3  4  2  0  0  0  0
  4  5  1  0  0  0  0
  4 11  1  0  0  0  0
  5  6  1  0  0  0  0
  6  7  1  0  0  0  0
  7  8  2  0  0  0  0
  8  9  1  0  0  0  0
  8 10  1  0  0  0  0
 12 13  1  0  0  0  0
 12 17  2  0  0  0  0
 13 14  2  0  0  0  0
 13 16  1  0  0  0  0
 14 15  1  0  0  0  0
M  END
> <ID>
12555

> <Formula>
C15H24O2

> <FW>
236.3499

> <DSSTox_CID>
27413

> <DSSTox_RID>
82327

> <DSSTox_GSID>
47413

> <DSSTox_FileID_Sort>
7008

> <TS_ChemName>
Geranyl tiglate

> <TS_ChemName_Synonyms>


> <TS_CASRN>
7785-33-3

> <CASRN_ChemName_Relationship>
primary

> <TS_Description>
single chemical compound

> <ChemNote>
stereochem

> <STRUCTURE_Shown>
tested chemical

> <STRUCTURE_Formula>
C15H24O2

> <STRUCTURE_MW>
236.3499

> <STRUCTURE_ChemType>
defined organic

> <STRUCTURE_DefinedOrganicForm>
parent

> <STRUCTURE_IUPAC>
(2E)-3,7-dimethylocta-2,6-dien-1-yl (2E)-2-methylbut-2-enoate

> <STRUCTURE_SMILES>
C\C(C)=C\CCC(\C)=C\COC(=O)C(\C)=C\C

> <STRUCTURE_SMILES_Desalt>
C\C(C)=C\CCC(\C)=C\COC(=O)C(\C)=C\C

> <Substance_modify_yyyymmdd>
20100618

$$$$
