7787-59-9
ChemmineR-0915142007XD

  3  2  0  0  0  0  0  0  0  0  1 V2000
    2.3030   -0.6656    0.0000 O    0  0  0  0  0  0  0  0  0  0  0  0
    1.1515    0.0000    0.0000 Bi   0  0  0  0  0  0  0  0  0  0  0  0
    0.0000   -0.6656    0.0000 Cl   0  0  0  0  0  0  0  0  0  0  0  0
  1  2  2  0  0  0  0
  2  3  1  0  0  0  0
M  END
> <ID>
178

> <Formula>
BiClO

> <FW>
260.4328

> <DSSTox_CID>
181

> <DSSTox_RID>
75419

> <DSSTox_GSID>
20181

> <DSSTox_FileID_Sort>
103

> <TS_ChemName>
Bismuth oxychloride

> <TS_ChemName_Synonyms>


> <TS_CASRN>
7787-59-9

> <CASRN_ChemName_Relationship>
primary

> <TS_Description>
single chemical compound

> <ChemNote>


> <STRUCTURE_Shown>
tested chemical

> <STRUCTURE_Formula>
BiClO

> <STRUCTURE_MW>
260.4328

> <STRUCTURE_ChemType>
inorganic

> <STRUCTURE_DefinedOrganicForm>


> <STRUCTURE_IUPAC>
chloro(oxo)bismuthane

> <STRUCTURE_SMILES>
Cl[Bi]=O

> <STRUCTURE_SMILES_Desalt>
Cl[Bi]=O

> <Substance_modify_yyyymmdd>
20080429

$$$$
