77883-43-3
ChemmineR-0915142007XD

 38 41  0  0  0  0  0  0  0  0  1 V2000
    6.9105   -3.9908    0.0000 C   0  0  0  0  0  0  0  0  0  0  0  0
    6.9105   -5.3211    0.0000 N   0  0  0  0  0  0  0  0  0  0  0  0
    4.6127   -5.3211    0.0000 C   0  0  0  0  0  0  0  0  0  0  0  0
    5.7702   -5.9776    0.0000 C   0  0  0  0  0  0  0  0  0  0  0  0
    5.7702   -3.3170    0.0000 N   0  0  0  0  0  0  0  0  0  0  0  0
   12.6635   -1.9868    0.0000 C   0  0  0  0  0  0  0  0  0  0  0  0
    4.6127   -3.9908    0.0000 C   0  0  0  0  0  0  0  0  0  0  0  0
   11.5232   -1.3303    0.0000 C   0  0  0  0  0  0  0  0  0  0  0  0
   13.8210   -1.3303    0.0000 O   0  0  0  0  0  0  0  0  0  0  0  0
    8.0680   -3.3170    0.0000 N   0  0  0  0  0  0  0  0  0  0  0  0
   10.3657   -1.9868    0.0000 N   0  0  0  0  0  0  0  0  0  0  0  0
    3.4725   -5.9776    0.0000 C   0  0  0  0  0  0  0  0  0  0  0  0
    3.4725   -3.3170    0.0000 C   0  0  0  0  0  0  0  0  0  0  0  0
   13.8210   -3.9908    0.0000 O   0  0  0  0  0  0  0  0  0  0  0  0
   14.9785   -1.9868    0.0000 C   0  0  0  0  0  0  0  0  0  0  0  0
    2.2977   -5.3211    0.0000 C   0  0  0  0  0  0  0  0  0  0  0  0
    2.2977   -3.9908    0.0000 C   0  0  0  0  0  0  0  0  0  0  0  0
   12.6635   -3.3170    0.0000 C   0  0  0  0  0  0  0  0  0  0  0  0
   14.9785   -3.3170    0.0000 C   0  0  0  0  0  0  0  0  0  0  0  0
    8.0680   -1.9868    0.0000 C   0  0  0  0  0  0  0  0  0  0  0  0
    9.2255   -3.9908    0.0000 C   0  0  0  0  0  0  0  0  0  0  0  0
   10.3657   -3.3170    0.0000 C   0  0  0  0  0  0  0  0  0  0  0  0
    9.2255   -1.3303    0.0000 C   0  0  0  0  0  0  0  0  0  0  0  0
   11.5232    0.0000    0.0000 O   0  0  0  0  0  0  0  0  0  0  0  0
    5.7702   -7.3078    0.0000 N   0  0  0  0  0  0  0  0  0  0  0  0
    1.1575   -5.9776    0.0000 O   0  0  0  0  0  0  0  0  0  0  0  0
    1.1575   -3.3170    0.0000 O   0  0  0  0  0  0  0  0  0  0  0  0
   16.1360   -1.3303    0.0000 C   0  0  0  0  0  0  0  0  0  0  0  0
   16.1360   -3.9908    0.0000 C   0  0  0  0  0  0  0  0  0  0  0  0
    1.1575   -7.3078    0.0000 C   0  0  0  0  0  0  0  0  0  0  0  0
    0.0000   -3.9908    0.0000 C   0  0  0  0  0  0  0  0  0  0  0  0
   17.2762   -1.9868    0.0000 C   0  0  0  0  0  0  0  0  0  0  0  0
   17.2762   -3.3170    0.0000 C   0  0  0  0  0  0  0  0  0  0  0  0
   12.1106   -9.0527    0.0000 C   0  0  0  0  0  0  0  0  0  0  0  0
   12.1106   -7.7225    0.0000 S   0  0  0  0  0  0  0  0  0  0  0  0
   10.7803   -7.7225    0.0000 O   0  0  0  0  0  0  0  0  0  0  0  0
   12.1106   -6.3922    0.0000 O   0  0  0  0  0  0  0  0  0  0  0  0
   13.4409   -7.7225    0.0000 O   0  0  0  0  0  0  0  0  0  0  0  0
  1  2  1  0  0  0  0
  1  5  2  0  0  0  0
  1 10  1  0  0  0  0
  2  4  2  0  0  0  0
  3  7  2  0  0  0  0
  3 12  1  0  0  0  0
  3  4  1  0  0  0  0
  4 25  1  0  0  0  0
  5  7  1  0  0  0  0
  6  8  1  0  0  0  0
  6  9  1  0  0  0  0
  6 18  1  0  0  0  0
  7 13  1  0  0  0  0
  8 11  1  0  0  0  0
  8 24  2  0  0  0  0
  9 15  1  0  0  0  0
 10 20  1  0  0  0  0
 10 21  1  0  0  0  0
 11 22  1  0  0  0  0
 11 23  1  0  0  0  0
 12 16  2  0  0  0  0
 13 17  2  0  0  0  0
 14 18  1  0  0  0  0
 14 19  1  0  0  0  0
 15 28  1  0  0  0  0
 15 19  2  0  0  0  0
 16 17  1  0  0  0  0
 16 26  1  0  0  0  0
 17 27  1  0  0  0  0
 19 29  1  0  0  0  0
 20 23  1  0  0  0  0
 21 22  1  0  0  0  0
 26 30  1  0  0  0  0
 27 31  1  0  0  0  0
 28 32  2  0  0  0  0
 29 33  2  0  0  0  0
 32 33  1  0  0  0  0
 34 35  1  0  0  0  0
 35 36  1  0  0  0  0
 35 37  2  0  0  0  0
 35 38  2  0  0  0  0
M  END
> <ID>
11059

> <Formula>
C24H29N5O8S

> <FW>
547.5808 (451.4751+96.1057)

> <DSSTox_CID>
25598

> <DSSTox_RID>
80991

> <DSSTox_GSID>
45598

> <DSSTox_FileID_Sort>
5672

> <TS_ChemName>
Doxazosin mesylate

> <TS_ChemName_Synonyms>


> <TS_CASRN>
77883-43-3

> <CASRN_ChemName_Relationship>
primary

> <TS_Description>
single chemical compound

> <ChemNote>
parent [74191-85-8]

> <STRUCTURE_Shown>
tested chemical

> <STRUCTURE_Formula>
C24H29N5O8S

> <STRUCTURE_MW>
547.5808

> <STRUCTURE_ChemType>
defined organic

> <STRUCTURE_DefinedOrganicForm>
salt

> <STRUCTURE_IUPAC>
[4-(4-amino-6,7-dimethoxyquinazolin-2-yl)piperazin-1-yl](2,3-dihydro-1,4-benzodioxin-2-yl)methanone methanesulfonate (1:1)

> <STRUCTURE_SMILES>
CS(=O)(=O)O.COc1cc2nc(nc(N)c2cc1OC)N3CCN(CC3)C(=O)C4COc5ccccc5O4

> <STRUCTURE_SMILES_Desalt>
COc1cc2nc(nc(N)c2cc1OC)N3CCN(CC3)C(=O)C4COc5ccccc5O4

> <Substance_modify_yyyymmdd>
20100107

$$$$
