7789-41-5
ChemmineR-0915142007XD

  3  2  0  0  0  0  0  0  0  0  1 V2000
    1.1505    0.0000    0.0000 Ca   0  0  0  0  0  0  0  0  0  0  0  0
    0.0000   -0.6742    0.0000 Br   0  0  0  0  0  0  0  0  0  0  0  0
    2.3010   -0.6604    0.0000 Br   0  0  0  0  0  0  0  0  0  0  0  0
  1  2  1  0  0  0  0
  1  3  1  0  0  0  0
M  END
> <ID>
10231

> <Formula>
Br2Ca

> <FW>
199.886

> <DSSTox_CID>
24577

> <DSSTox_RID>
80326

> <DSSTox_GSID>
44577

> <DSSTox_FileID_Sort>
5008

> <TS_ChemName>
Calcium bromide

> <TS_ChemName_Synonyms>
Calcium bromide (CaBr2)

> <TS_CASRN>
7789-41-5

> <CASRN_ChemName_Relationship>
primary

> <TS_Description>
single chemical compound

> <ChemNote>


> <STRUCTURE_Shown>
tested chemical

> <STRUCTURE_Formula>
Br2Ca

> <STRUCTURE_MW>
199.886

> <STRUCTURE_ChemType>
inorganic

> <STRUCTURE_DefinedOrganicForm>


> <STRUCTURE_IUPAC>
calcium dibromide

> <STRUCTURE_SMILES>
Br[Ca]Br

> <STRUCTURE_SMILES_Desalt>
Br[Ca]Br

> <Substance_modify_yyyymmdd>
20091116

$$$$
