7789-38-0
ChemmineR-0915142007XD

  5  3  0  0  0  0  0  0  0  0  2 V2000
    0.8513   -2.4819    0.0000 Na   0  3  0  0  0  0  0  0  0  0  0  0
    1.3303   -1.1516    0.0000 Br   0  0  0  0  0  0  0  0  0  0  0  0
    1.9954    0.0000    0.0000 O    0  0  0  0  0  0  0  0  0  0  0  0
    0.0000   -1.1516    0.0000 O    0  0  0  0  0  0  0  0  0  0  0  0
    1.9954   -2.3032    0.0000 O    0  5  0  0  0  0  0  0  0  0  0  0
  2  3  2  0  0  0  0
  2  4  2  0  0  0  0
  2  5  1  0  0  0  0
M  END
> <ID>
3384

> <Formula>
BrNaO3

> <FW>
150.8920 (22.9892+127.9027)

> <DSSTox_CID>
3837

> <DSSTox_RID>
77203

> <DSSTox_GSID>
23837

> <DSSTox_FileID_Sort>
1886

> <TS_ChemName>
Sodium bromate

> <TS_ChemName_Synonyms>


> <TS_CASRN>
7789-38-0

> <CASRN_ChemName_Relationship>
primary

> <TS_Description>
single chemical compound

> <ChemNote>


> <STRUCTURE_Shown>
tested chemical

> <STRUCTURE_Formula>
BrNaO3

> <STRUCTURE_MW>
150.892

> <STRUCTURE_ChemType>
inorganic

> <STRUCTURE_DefinedOrganicForm>


> <STRUCTURE_IUPAC>
sodium bromate

> <STRUCTURE_SMILES>
[Na+].[O-]Br(=O)=O

> <STRUCTURE_SMILES_Desalt>
O=Br(=O)O

> <Substance_modify_yyyymmdd>
20080429

$$$$
