7790-98-9
ChemmineR-0915142007XD

  6  4  0  0  0  0  0  0  0  0  2 V2000
    1.3265   -1.3300    0.0000 Cl   0  0  0  0  0  0  0  0  0  0  0  0
    1.3265    0.0000    0.0000 O    0  0  0  0  0  0  0  0  0  0  0  0
    2.6600   -1.3300    0.0000 O    0  5  0  0  0  0  0  0  0  0  0  0
    0.0000   -1.3300    0.0000 O    0  0  0  0  0  0  0  0  0  0  0  0
    1.3265   -2.6600    0.0000 O    0  0  0  0  0  0  0  0  0  0  0  0
    3.5092   -2.2459    0.0000 N    0  3  0  0  0  0  0  0  0  0  0  0
  1  2  2  0  0  0  0
  1  4  2  0  0  0  0
  1  5  2  0  0  0  0
  1  3  1  0  0  0  0
M  END
> <ID>
3728

> <Formula>
H4ClNO4

> <FW>
117.4891 (99.4511+18.0379)

> <DSSTox_CID>
4515

> <DSSTox_RID>
77440

> <DSSTox_GSID>
24515

> <DSSTox_FileID_Sort>
2123

> <TS_ChemName>
Ammonium perchlorate

> <TS_ChemName_Synonyms>


> <TS_CASRN>
7790-98-9

> <CASRN_ChemName_Relationship>
primary

> <TS_Description>
single chemical compound

> <ChemNote>


> <STRUCTURE_Shown>
tested chemical

> <STRUCTURE_Formula>
H4ClNO4

> <STRUCTURE_MW>
117.4891

> <STRUCTURE_ChemType>
inorganic

> <STRUCTURE_DefinedOrganicForm>


> <STRUCTURE_IUPAC>
ammonium perchlorate

> <STRUCTURE_SMILES>
[NH4+].[O-]Cl(=O)(=O)=O

> <STRUCTURE_SMILES_Desalt>
O=Cl(=O)(=O)O

> <Substance_modify_yyyymmdd>
20080429

$$$$
