7791-25-5
ChemmineR-0915142007XD

  5  4  0  0  0  0  0  0  0  0  1 V2000
     1.338    -1.338     0.000 S    0  0  0  0  0  0  0  0  0  0  0  0
     2.660    -1.338     0.000 Cl   0  0  0  0  0  0  0  0  0  0  0  0
     1.338    -2.660     0.000 Cl   0  0  0  0  0  0  0  0  0  0  0  0
     1.338     0.000     0.000 O    0  0  0  0  0  0  0  0  0  0  0  0
     0.000    -1.338     0.000 O    0  0  0  0  0  0  0  0  0  0  0  0
  1  2  1  0  0  0  0
  1  3  1  0  0  0  0
  1  4  2  0  0  0  0
  1  5  2  0  0  0  0
M  END
> <ID>
6146

> <Formula>
Cl2O2S

> <FW>
134.9698

> <DSSTox_CID>
9707

> <DSSTox_RID>
78815

> <DSSTox_GSID>
29707

> <DSSTox_FileID_Sort>
3497

> <TS_ChemName>
Sulfuryl chloride

> <TS_ChemName_Synonyms>
Sulfuryl chloride (Sulfonyl chloride)

> <TS_CASRN>
7791-25-5

> <CASRN_ChemName_Relationship>
primary

> <TS_Description>
single chemical compound

> <ChemNote>


> <STRUCTURE_Shown>
tested chemical

> <STRUCTURE_Formula>
Cl2O2S

> <STRUCTURE_MW>
134.9698

> <STRUCTURE_ChemType>
inorganic

> <STRUCTURE_DefinedOrganicForm>


> <STRUCTURE_IUPAC>
sulfuryl dichloride

> <STRUCTURE_SMILES>
ClS(Cl)(=O)=O

> <STRUCTURE_SMILES_Desalt>
ClS(Cl)(=O)=O

> <Substance_modify_yyyymmdd>
20080429

$$$$
