78-11-5
ChemmineR-0915142007XD

 21 20  0  0  0  0  0  0  0  0  2 V2000
    5.1634   -0.6836    0.0000 N   0  3  0  0  0  0  0  0  0  0  0  0
    0.6836   -2.8391    0.0000 N   0  3  0  0  0  0  0  0  0  0  0  0
    7.3591   -5.1634    0.0000 N   0  3  0  0  0  0  0  0  0  0  0  0
    2.8793   -7.3188    0.0000 N   0  3  0  0  0  0  0  0  0  0  0  0
    4.0374   -3.9972    0.0000 C   0  0  0  0  0  0  0  0  0  0  0  0
    6.3215    0.0000    0.0000 O   0  5  0  0  0  0  0  0  0  0  0  0
    8.0427   -6.2813    0.0000 O   0  5  0  0  0  0  0  0  0  0  0  0
    1.7211   -8.0025    0.0000 O   0  5  0  0  0  0  0  0  0  0  0  0
    0.0000   -1.7211    0.0000 O   0  5  0  0  0  0  0  0  0  0  0  0
    8.0427   -3.9972    0.0000 O   0  0  0  0  0  0  0  0  0  0  0  0
    0.0402   -3.9972    0.0000 O   0  0  0  0  0  0  0  0  0  0  0  0
    4.0374    0.0000    0.0000 O   0  0  0  0  0  0  0  0  0  0  0  0
    4.0374   -8.0025    0.0000 O   0  0  0  0  0  0  0  0  0  0  0  0
    6.0401   -5.1634    0.0000 O   0  0  0  0  0  0  0  0  0  0  0  0
    5.1634   -2.0026    0.0000 O   0  0  0  0  0  0  0  0  0  0  0  0
    2.0428   -2.8391    0.0000 O   0  0  0  0  0  0  0  0  0  0  0  0
    2.8793   -5.9998    0.0000 O   0  0  0  0  0  0  0  0  0  0  0  0
    2.7184   -3.9972    0.0000 C   0  0  0  0  0  0  0  0  0  0  0  0
    5.3645   -3.9972    0.0000 C   0  0  0  0  0  0  0  0  0  0  0  0
    4.0374   -5.3243    0.0000 C   0  0  0  0  0  0  0  0  0  0  0  0
    4.0374   -2.6782    0.0000 C   0  0  0  0  0  0  0  0  0  0  0  0
  1  6  1  0  0  0  0
  1 12  2  0  0  0  0
  1 15  1  0  0  0  0
  2 16  1  0  0  0  0
  2  9  1  0  0  0  0
  2 11  2  0  0  0  0
  3 14  1  0  0  0  0
  3  7  1  0  0  0  0
  3 10  2  0  0  0  0
  4 17  1  0  0  0  0
  4  8  1  0  0  0  0
  4 13  2  0  0  0  0
  5 21  1  0  0  0  0
  5 18  1  0  0  0  0
  5 19  1  0  0  0  0
  5 20  1  0  0  0  0
 14 19  1  0  0  0  0
 15 21  1  0  0  0  0
 16 18  1  0  0  0  0
 17 20  1  0  0  0  0
M  END
> <ID>
1066

> <Formula>
C5H8N4O12

> <FW>
316.1366

> <DSSTox_CID>
1109

> <DSSTox_RID>
77024

> <DSSTox_GSID>
23430

> <DSSTox_FileID_Sort>
1708

> <TS_ChemName>
Pentaerythritol tetranitrate

> <TS_ChemName_Synonyms>
Pentaerythritol tetranitrate (1,3-Propanediol, 2,2-bis[(nitrooxy)methyl]-, dinitrate (ester))

> <TS_CASRN>
78-11-5

> <CASRN_ChemName_Relationship>
primary

> <TS_Description>
single chemical compound

> <ChemNote>
PETN

> <STRUCTURE_Shown>
tested chemical

> <STRUCTURE_Formula>
C5H8N4O12

> <STRUCTURE_MW>
316.1366

> <STRUCTURE_ChemType>
defined organic

> <STRUCTURE_DefinedOrganicForm>
parent

> <STRUCTURE_IUPAC>
3-(nitrooxy)-2,2-bis[(nitrooxy)methyl]propyl nitrate

> <STRUCTURE_SMILES>
O=[N+]([O-])OCC(CO[N+](=O)[O-])(CO[N+]([O-])=O)CO[N+]([O-])=O

> <STRUCTURE_SMILES_Desalt>
O=[N+]([O-])OCC(CO[N+](=O)[O-])(CO[N+]([O-])=O)CO[N+]([O-])=O

> <Substance_modify_yyyymmdd>
20080429

$$$$
