78-37-5
ChemmineR-0915142007XD

 21 21  0  0  0  0  0  0  0  0  1 V2000
    8.0551   -1.3148    0.0000 C   0  0  0  0  0  0  0  0  0  0  0  0
    9.2316   -1.9930    0.0000 C   0  0  0  0  0  0  0  0  0  0  0  0
   10.3803   -1.3148    0.0000 C   0  0  0  0  0  0  0  0  0  0  0  0
    8.0690    0.0000    0.0000 O   0  0  0  0  0  0  0  0  0  0  0  0
    6.9064   -1.9930    0.0000 O   0  0  0  0  0  0  0  0  0  0  0  0
   12.6778   -3.9860    0.0000 C   0  0  0  0  0  0  0  0  0  0  0  0
   13.8404   -3.3217    0.0000 C   0  0  0  0  0  0  0  0  0  0  0  0
   13.8404   -1.9930    0.0000 C   0  0  0  0  0  0  0  0  0  0  0  0
   12.7055   -1.3148    0.0000 C   0  0  0  0  0  0  0  0  0  0  0  0
   11.5429   -1.9930    0.0000 C   0  0  0  0  0  0  0  0  0  0  0  0
   11.5429   -3.3217    0.0000 C   0  0  0  0  0  0  0  0  0  0  0  0
    5.7715   -1.3287    0.0000 C   0  0  0  0  0  0  0  0  0  0  0  0
    4.6089   -0.6643    0.0000 C   0  0  0  0  0  0  0  0  0  0  0  0
    3.4601   -1.3148    0.0000 C   0  0  0  0  0  0  0  0  0  0  0  0
    2.2975   -0.6643    0.0000 C   0  0  0  0  0  0  0  0  0  0  0  0
    1.1626   -1.3148    0.0000 C   0  0  0  0  0  0  0  0  0  0  0  0
    0.0000   -0.6643    0.0000 C   0  0  0  0  0  0  0  0  0  0  0  0
    5.0933   -2.4774    0.0000 C   0  0  0  0  0  0  0  0  0  0  0  0
    5.7576   -3.6262    0.0000 C   0  0  0  0  0  0  0  0  0  0  0  0
    6.4081   -0.1799    0.0000 C   0  0  0  0  0  0  0  0  0  0  0  0
    1.1626   -2.6574    0.0000 C   0  0  0  0  0  0  0  0  0  0  0  0
  1  2  1  0  0  0  0
  1  5  1  0  0  0  0
  1  4  2  0  0  0  0
  2  3  2  3  0  0  0
  3 10  1  0  0  0  0
  5 12  1  0  0  0  0
  6 11  2  0  0  0  0
  6  7  1  0  0  0  0
  7  8  2  0  0  0  0
  8  9  1  0  0  0  0
  9 10  2  0  0  0  0
 10 11  1  0  0  0  0
 12 13  1  0  0  0  0
 12 18  1  0  0  0  0
 12 20  1  0  0  0  0
 13 14  1  0  0  0  0
 14 15  1  0  0  0  0
 15 16  2  0  0  0  0
 16 17  1  0  0  0  0
 16 21  1  0  0  0  0
 18 19  2  0  0  0  0
M  END
> <ID>
12552

> <Formula>
C19H24O2

> <FW>
284.3927

> <DSSTox_CID>
27410

> <DSSTox_RID>
82324

> <DSSTox_GSID>
47410

> <DSSTox_FileID_Sort>
7005

> <TS_ChemName>
Linalyl cinnamate

> <TS_ChemName_Synonyms>


> <TS_CASRN>
78-37-5

> <CASRN_ChemName_Relationship>
primary

> <TS_Description>
mixture of Z,E isomers

> <ChemNote>
mixture of Z,E isomers

> <STRUCTURE_Shown>
representative isomer in mixture

> <STRUCTURE_Formula>
C19H24O2

> <STRUCTURE_MW>
284.3927

> <STRUCTURE_ChemType>
defined organic

> <STRUCTURE_DefinedOrganicForm>
parent

> <STRUCTURE_IUPAC>
3,7-dimethylocta-1,6-dien-3-yl 3-phenylprop-2-enoate

> <STRUCTURE_SMILES>
C/C(C)=C\CCC(C)(C=C)OC(=O)C=Cc1ccccc1

> <STRUCTURE_SMILES_Desalt>
C/C(C)=C\CCC(C)(C=C)OC(=O)C=Cc1ccccc1

> <Substance_modify_yyyymmdd>
20100618

$$$$
