78-35-3
ChemmineR-0915142007XD

 16 15  0  0  0  0  0  0  0  0  1 V2000
    0.0000   -2.6458    0.0000 C   0  0  0  0  0  0  0  0  0  0  0  0
    1.1828   -1.9507    0.0000 C   0  0  0  0  0  0  0  0  0  0  0  0
    2.3553   -2.6458    0.0000 C   0  0  0  0  0  0  0  0  0  0  0  0
    1.1828   -0.6329    0.0000 C   0  0  0  0  0  0  0  0  0  0  0  0
    3.5070   -1.9714    0.0000 C   0  0  0  0  0  0  0  0  0  0  0  0
    4.6587   -2.6458    0.0000 C   0  0  0  0  0  0  0  0  0  0  0  0
    5.7897   -1.9714    0.0000 C   0  0  0  0  0  0  0  0  0  0  0  0
    6.9310   -2.6458    0.0000 O   0  0  0  0  0  0  0  0  0  0  0  0
    5.7897   -0.6433    0.0000 C   0  0  0  0  0  0  0  0  0  0  0  0
    4.6587   -1.3177    0.0000 C   0  0  0  0  0  0  0  0  0  0  0  0
    6.9310    0.0000    0.0000 C   0  0  0  0  0  0  0  0  0  0  0  0
    8.0828   -1.9714    0.0000 C   0  0  0  0  0  0  0  0  0  0  0  0
    9.2241   -2.6458    0.0000 C   0  0  0  0  0  0  0  0  0  0  0  0
    8.0828   -0.6433    0.0000 O   0  0  0  0  0  0  0  0  0  0  0  0
    9.2241   -3.9636    0.0000 C   0  0  0  0  0  0  0  0  0  0  0  0
   10.3758   -1.9714    0.0000 C   0  0  0  0  0  0  0  0  0  0  0  0
  1  2  1  0  0  0  0
  2  3  2  0  0  0  0
  2  4  1  0  0  0  0
  3  5  1  0  0  0  0
  5  6  1  0  0  0  0
  6  7  1  0  0  0  0
  7  8  1  0  0  0  0
  7  9  1  0  0  0  0
  7 10  1  0  0  0  0
  8 12  1  0  0  0  0
  9 11  2  0  0  0  0
 12 13  1  0  0  0  0
 12 14  2  0  0  0  0
 13 15  1  0  0  0  0
 13 16  1  0  0  0  0
M  END
> <ID>
12621

> <Formula>
C14H24O2

> <FW>
224.3392

> <DSSTox_CID>
27490

> <DSSTox_RID>
82378

> <DSSTox_GSID>
47490

> <DSSTox_FileID_Sort>
7059

> <TS_ChemName>
Linalyl isobutyrate

> <TS_ChemName_Synonyms>


> <TS_CASRN>
78-35-3

> <CASRN_ChemName_Relationship>
primary

> <TS_Description>
single chemical compound

> <ChemNote>


> <STRUCTURE_Shown>
tested chemical

> <STRUCTURE_Formula>
C14H24O2

> <STRUCTURE_MW>
224.3392

> <STRUCTURE_ChemType>
defined organic

> <STRUCTURE_DefinedOrganicForm>
parent

> <STRUCTURE_IUPAC>
3,7-dimethylocta-1,6-dien-3-yl 2-methylpropanoate

> <STRUCTURE_SMILES>
O=C(OC(C)(CC\C=C(\C)C)C=C)C(C)C

> <STRUCTURE_SMILES_Desalt>
O=C(OC(C)(CC\C=C(\C)C)C=C)C(C)C

> <Substance_modify_yyyymmdd>
20100704

$$$$
