78-30-8
ChemmineR-0915142007XD

 26 28  0  0  0  0  0  0  0  0  1 V2000
    4.6298   -1.9697    0.0000 P   0  0  0  0  0  0  0  0  0  0  0  0
    3.4700   -1.3254    0.0000 O   0  0  0  0  0  0  0  0  0  0  0  0
    3.9579   -3.1663    0.0000 O   0  0  0  0  0  0  0  0  0  0  0  0
    5.7711   -2.6693    0.0000 O   0  0  0  0  0  0  0  0  0  0  0  0
    5.2741   -0.8100    0.0000 O   0  0  0  0  0  0  0  0  0  0  0  0
    2.2735   -1.9697    0.0000 C   0  0  0  0  0  0  0  0  0  0  0  0
    4.6298   -4.2800    0.0000 C   0  0  0  0  0  0  0  0  0  0  0  0
    6.9032   -1.9697    0.0000 C   0  0  0  0  0  0  0  0  0  0  0  0
    1.1597   -1.3254    0.0000 C   0  0  0  0  0  0  0  0  0  0  0  0
    2.2735   -3.2951    0.0000 C   0  0  0  0  0  0  0  0  0  0  0  0
    3.9579   -5.4398    0.0000 C   0  0  0  0  0  0  0  0  0  0  0  0
    5.9460   -4.2800    0.0000 C   0  0  0  0  0  0  0  0  0  0  0  0
    8.0722   -2.6693    0.0000 C   0  0  0  0  0  0  0  0  0  0  0  0
    6.9032   -0.6535    0.0000 C   0  0  0  0  0  0  0  0  0  0  0  0
    0.0000   -1.9697    0.0000 C   0  0  0  0  0  0  0  0  0  0  0  0
    1.1597    0.0000    0.0000 C   0  0  0  0  0  0  0  0  0  0  0  0
    1.1597   -3.9947    0.0000 C   0  0  0  0  0  0  0  0  0  0  0  0
    4.6298   -6.5995    0.0000 C   0  0  0  0  0  0  0  0  0  0  0  0
    2.6048   -5.4398    0.0000 C   0  0  0  0  0  0  0  0  0  0  0  0
    6.5995   -5.4398    0.0000 C   0  0  0  0  0  0  0  0  0  0  0  0
    9.2043   -1.9697    0.0000 C   0  0  0  0  0  0  0  0  0  0  0  0
    8.0722   -3.9947    0.0000 C   0  0  0  0  0  0  0  0  0  0  0  0
    8.0722    0.0000    0.0000 C   0  0  0  0  0  0  0  0  0  0  0  0
    0.0000   -3.2951    0.0000 C   0  0  0  0  0  0  0  0  0  0  0  0
    5.9460   -6.5995    0.0000 C   0  0  0  0  0  0  0  0  0  0  0  0
    9.2043   -0.6535    0.0000 C   0  0  0  0  0  0  0  0  0  0  0  0
  1  2  1  0  0  0  0
  1  3  1  0  0  0  0
  1  4  1  0  0  0  0
  1  5  2  0  0  0  0
  2  6  1  0  0  0  0
  3  7  1  0  0  0  0
  4  8  1  0  0  0  0
  6  9  2  0  0  0  0
  6 10  1  0  0  0  0
  7 11  2  0  0  0  0
  7 12  1  0  0  0  0
  8 13  2  0  0  0  0
  8 14  1  0  0  0  0
  9 15  1  0  0  0  0
  9 16  1  0  0  0  0
 10 17  2  0  0  0  0
 11 18  1  0  0  0  0
 11 19  1  0  0  0  0
 12 20  2  0  0  0  0
 13 21  1  0  0  0  0
 13 22  1  0  0  0  0
 14 23  2  0  0  0  0
 15 24  2  0  0  0  0
 17 24  1  0  0  0  0
 18 25  2  0  0  0  0
 20 25  1  0  0  0  0
 21 26  2  0  0  0  0
 23 26  1  0  0  0  0
M  END
> <ID>
6400

> <Formula>
C21H21O4P

> <FW>
368.3628

> <DSSTox_CID>
12192

> <DSSTox_RID>
78908

> <DSSTox_GSID>
32192

> <DSSTox_FileID_Sort>
3590

> <TS_ChemName>
Tri-o-cresyl phosphate

> <TS_ChemName_Synonyms>


> <TS_CASRN>
78-30-8

> <CASRN_ChemName_Relationship>
primary

> <TS_Description>
single chemical compound

> <ChemNote>


> <STRUCTURE_Shown>
tested chemical

> <STRUCTURE_Formula>
C21H21O4P

> <STRUCTURE_MW>
368.3628

> <STRUCTURE_ChemType>
defined organic

> <STRUCTURE_DefinedOrganicForm>
parent

> <STRUCTURE_IUPAC>
tris(2-methylphenyl) phosphate

> <STRUCTURE_SMILES>
Cc3ccccc3OP(=O)(Oc1ccccc1C)Oc2ccccc2C

> <STRUCTURE_SMILES_Desalt>
Cc3ccccc3OP(=O)(Oc1ccccc1C)Oc2ccccc2C

> <Substance_modify_yyyymmdd>
20080429

$$$$
