78-41-1
ChemmineR-0915142007XD

 31 33  0  0  0  0  0  0  0  0  1 V2000
    4.5999   -5.3132    0.0000 C    0  0  0  0  0  0  0  0  0  0  0  0
    4.5999   -3.9886    0.0000 C    0  0  0  0  0  0  0  0  0  0  0  0
    5.9246   -5.3132    0.0000 C    0  0  0  0  0  0  0  0  0  0  0  0
    4.5999   -6.6379    0.0000 C    0  0  0  0  0  0  0  0  0  0  0  0
    3.4500   -3.3044    0.0000 C    0  0  0  0  0  0  0  0  0  0  0  0
    5.7499   -3.3044    0.0000 C    0  0  0  0  0  0  0  0  0  0  0  0
    6.5797   -4.1487    0.0000 C    0  0  0  0  0  0  0  0  0  0  0  0
    6.5797   -6.4487    0.0000 C    0  0  0  0  0  0  0  0  0  0  0  0
    3.2753   -5.3132    0.0000 O    0  0  0  0  0  0  0  0  0  0  0  0
    3.4500   -7.2930    0.0000 C    0  0  0  0  0  0  0  0  0  0  0  0
    1.1354   -8.6176    0.0000 C    0  0  0  0  0  0  0  0  0  0  0  0
   12.5771   -7.6132    0.0000 N    0  0  0  0  0  0  0  0  0  0  0  0
    8.5885   -5.3132    0.0000 C    0  0  0  0  0  0  0  0  0  0  0  0
    7.9189   -4.1487    0.0000 C    0  0  0  0  0  0  0  0  0  0  0  0
    7.9189   -6.4487    0.0000 C    0  0  0  0  0  0  0  0  0  0  0  0
    5.7499   -1.9797    0.0000 C    0  0  0  0  0  0  0  0  0  0  0  0
    3.4500   -1.9797    0.0000 C    0  0  0  0  0  0  0  0  0  0  0  0
    4.5999   -1.3247    0.0000 C    0  0  0  0  0  0  0  0  0  0  0  0
    0.0000   -9.3018    0.0000 Cl   0  0  0  0  0  0  0  0  0  0  0  0
    3.4500   -8.6176    0.0000 C    0  0  0  0  0  0  0  0  0  0  0  0
    2.3000   -6.6379    0.0000 C    0  0  0  0  0  0  0  0  0  0  0  0
    1.1354   -7.2930    0.0000 C    0  0  0  0  0  0  0  0  0  0  0  0
    2.3000   -9.3018    0.0000 C    0  0  0  0  0  0  0  0  0  0  0  0
    9.9132   -5.3132    0.0000 O    0  0  0  0  0  0  0  0  0  0  0  0
   10.5682   -6.4487    0.0000 C    0  0  0  0  0  0  0  0  0  0  0  0
   11.8929   -6.4487    0.0000 C    0  0  0  0  0  0  0  0  0  0  0  0
   13.9017   -7.6132    0.0000 C    0  0  0  0  0  0  0  0  0  0  0  0
   11.8929   -8.7632    0.0000 C    0  0  0  0  0  0  0  0  0  0  0  0
    4.5999    0.0000    0.0000 C    0  0  0  0  0  0  0  0  0  0  0  0
   14.5568   -6.4487    0.0000 C    0  0  0  0  0  0  0  0  0  0  0  0
   12.5771   -9.9277    0.0000 C    0  0  0  0  0  0  0  0  0  0  0  0
  1  2  1  0  0  0  0
  1  3  1  0  0  0  0
  1  4  1  0  0  0  0
  1  9  1  0  0  0  0
  2  5  1  0  0  0  0
  2  6  2  0  0  0  0
  3  7  2  0  0  0  0
  3  8  1  0  0  0  0
  4 10  1  0  0  0  0
  5 17  2  0  0  0  0
  6 16  1  0  0  0  0
  7 14  1  0  0  0  0
  8 15  2  0  0  0  0
 10 20  2  0  0  0  0
 10 21  1  0  0  0  0
 11 22  1  0  0  0  0
 11 19  1  0  0  0  0
 11 23  2  0  0  0  0
 12 26  1  0  0  0  0
 12 27  1  0  0  0  0
 12 28  1  0  0  0  0
 13 15  1  0  0  0  0
 13 24  1  0  0  0  0
 13 14  2  0  0  0  0
 16 18  2  0  0  0  0
 17 18  1  0  0  0  0
 18 29  1  0  0  0  0
 20 23  1  0  0  0  0
 21 22  2  0  0  0  0
 24 25  1  0  0  0  0
 25 26  1  0  0  0  0
 27 30  1  0  0  0  0
 28 31  1  0  0  0  0
M  END
> <ID>
11742

> <Formula>
C27H32ClNO2

> <FW>
438.0015

> <DSSTox_CID>
26507

> <DSSTox_RID>
81676

> <DSSTox_GSID>
46507

> <DSSTox_FileID_Sort>
6357

> <TS_ChemName>
Triparanol

> <TS_ChemName_Synonyms>


> <TS_CASRN>
78-41-1

> <CASRN_ChemName_Relationship>
primary

> <TS_Description>
single chemical compound

> <ChemNote>


> <STRUCTURE_Shown>
tested chemical

> <STRUCTURE_Formula>
C27H32ClNO2

> <STRUCTURE_MW>
438.0015

> <STRUCTURE_ChemType>
defined organic

> <STRUCTURE_DefinedOrganicForm>
parent

> <STRUCTURE_IUPAC>
2-(4-chlorophenyl)-1-{4-[2-(diethylamino)ethoxy]phenyl}-1-(4-methylphenyl)ethanol

> <STRUCTURE_SMILES>
Clc3ccc(CC(O)(c1ccc(C)cc1)c2ccc(OCCN(CC)CC)cc2)cc3

> <STRUCTURE_SMILES_Desalt>
Clc3ccc(CC(O)(c1ccc(C)cc1)c2ccc(OCCN(CC)CC)cc2)cc3

> <Substance_modify_yyyymmdd>
20110812

$$$$
