78-44-4
ChemmineR-0915142007XD

 18 17  0  0  0  0  0  0  0  0  1 V2000
    3.9951   -3.3246    0.0000 C   0  0  0  0  0  0  0  0  0  0  0  0
    5.3175   -3.3246    0.0000 C   0  0  0  0  0  0  0  0  0  0  0  0
    3.9951   -1.9929    0.0000 C   0  0  0  0  0  0  0  0  0  0  0  0
    5.1406   -1.3317    0.0000 C   0  0  0  0  0  0  0  0  0  0  0  0
    5.1406    0.0000    0.0000 C   0  0  0  0  0  0  0  0  0  0  0  0
    2.6634   -3.3246    0.0000 C   0  0  0  0  0  0  0  0  0  0  0  0
    1.9929   -4.4794    0.0000 O   0  0  0  0  0  0  0  0  0  0  0  0
    0.6612   -4.4794    0.0000 C   0  0  0  0  0  0  0  0  0  0  0  0
    0.0000   -5.6341    0.0000 N   0  0  0  0  0  0  0  0  0  0  0  0
    0.0000   -3.3246    0.0000 O   0  0  0  0  0  0  0  0  0  0  0  0
    3.9951   -4.6563    0.0000 C   0  0  0  0  0  0  0  0  0  0  0  0
    5.1406   -5.3175    0.0000 O   0  0  0  0  0  0  0  0  0  0  0  0
    5.1406   -6.6492    0.0000 C   0  0  0  0  0  0  0  0  0  0  0  0
    3.9951   -7.3197    0.0000 O   0  0  0  0  0  0  0  0  0  0  0  0
    6.2953   -7.3197    0.0000 N   0  0  0  0  0  0  0  0  0  0  0  0
    6.2953   -8.6514    0.0000 C   0  0  0  0  0  0  0  0  0  0  0  0
    7.4501   -9.3126    0.0000 C   0  0  0  0  0  0  0  0  0  0  0  0
    5.1406   -9.3126    0.0000 C   0  0  0  0  0  0  0  0  0  0  0  0
  1  2  1  0  0  0  0
  1  3  1  0  0  0  0
  1  6  1  0  0  0  0
  1 11  1  0  0  0  0
  3  4  1  0  0  0  0
  4  5  1  0  0  0  0
  6  7  1  0  0  0  0
  7  8  1  0  0  0  0
  8  9  1  0  0  0  0
  8 10  2  0  0  0  0
 11 12  1  0  0  0  0
 12 13  1  0  0  0  0
 13 14  2  0  0  0  0
 13 15  1  0  0  0  0
 15 16  1  0  0  0  0
 16 17  1  0  0  0  0
 16 18  1  0  0  0  0
M  END
> <ID>
3833

> <Formula>
C12H24N2O4

> <FW>
260.33

> <DSSTox_CID>
4733

> <DSSTox_RID>
77514

> <DSSTox_GSID>
24733

> <DSSTox_FileID_Sort>
2197

> <TS_ChemName>
Carisoprodol

> <TS_ChemName_Synonyms>


> <TS_CASRN>
78-44-4

> <CASRN_ChemName_Relationship>
primary

> <TS_Description>
single chemical compound

> <ChemNote>


> <STRUCTURE_Shown>
tested chemical

> <STRUCTURE_Formula>
C12H24N2O4

> <STRUCTURE_MW>
260.33

> <STRUCTURE_ChemType>
defined organic

> <STRUCTURE_DefinedOrganicForm>
parent

> <STRUCTURE_IUPAC>
2-[(carbamoyloxy)methyl]-2-methylpentyl propan-2-ylcarbamate

> <STRUCTURE_SMILES>
O=C(NC(C)C)OCC(C)(COC(=O)N)CCC

> <STRUCTURE_SMILES_Desalt>
O=C(NC(C)C)OCC(C)(COC(=O)N)CCC

> <Substance_modify_yyyymmdd>
20080429

$$$$
