78-48-8
ChemmineR-0915142007XD

 17 16  0  0  0  0  0  0  0  0  1 V2000
    3.4619   -4.6530    0.0000 P   0  0  0  0  0  0  0  0  0  0  0  0
    4.6065   -3.9923    0.0000 S   0  0  0  0  0  0  0  0  0  0  0  0
    2.3079   -5.3138    0.0000 S   0  0  0  0  0  0  0  0  0  0  0  0
    4.1226   -5.8163    0.0000 S   0  0  0  0  0  0  0  0  0  0  0  0
    4.6065   -2.6615    0.0000 C   0  0  0  0  0  0  0  0  0  0  0  0
    5.4348   -5.8163    0.0000 C   0  0  0  0  0  0  0  0  0  0  0  0
    2.3079   -6.6538    0.0000 C   0  0  0  0  0  0  0  0  0  0  0  0
    2.7918   -3.5084    0.0000 O   0  0  0  0  0  0  0  0  0  0  0  0
    5.7698   -2.0008    0.0000 C   0  0  0  0  0  0  0  0  0  0  0  0
    5.7698   -0.6607    0.0000 C   0  0  0  0  0  0  0  0  0  0  0  0
    6.9144    0.0000    0.0000 C   0  0  0  0  0  0  0  0  0  0  0  0
    6.1234   -6.9609    0.0000 C   0  0  0  0  0  0  0  0  0  0  0  0
    7.4449   -6.9609    0.0000 C   0  0  0  0  0  0  0  0  0  0  0  0
    8.1149   -8.1149    0.0000 C   0  0  0  0  0  0  0  0  0  0  0  0
    1.1446   -7.3146    0.0000 C   0  0  0  0  0  0  0  0  0  0  0  0
    1.1446   -8.6453    0.0000 C   0  0  0  0  0  0  0  0  0  0  0  0
    0.0000   -9.3061    0.0000 C   0  0  0  0  0  0  0  0  0  0  0  0
  1  2  1  0  0  0  0
  1  3  1  0  0  0  0
  1  4  1  0  0  0  0
  1  8  2  0  0  0  0
  2  5  1  0  0  0  0
  3  7  1  0  0  0  0
  4  6  1  0  0  0  0
  5  9  1  0  0  0  0
  6 12  1  0  0  0  0
  7 15  1  0  0  0  0
  9 10  1  0  0  0  0
 10 11  1  0  0  0  0
 12 13  1  0  0  0  0
 13 14  1  0  0  0  0
 15 16  1  0  0  0  0
 16 17  1  0  0  0  0
M  END
> <ID>
3545

> <Formula>
C12H27OPS3

> <FW>
314.5109

> <DSSTox_CID>
4174

> <DSSTox_RID>
77315

> <DSSTox_GSID>
24174

> <DSSTox_FileID_Sort>
1998

> <TS_ChemName>
Tribufos

> <TS_ChemName_Synonyms>
Tribufos (Merphos oxide) (DEF)

> <TS_CASRN>
78-48-8

> <CASRN_ChemName_Relationship>
primary

> <TS_Description>
single chemical compound

> <ChemNote>


> <STRUCTURE_Shown>
tested chemical

> <STRUCTURE_Formula>
C12H27OPS3

> <STRUCTURE_MW>
314.5109

> <STRUCTURE_ChemType>
defined organic

> <STRUCTURE_DefinedOrganicForm>
parent

> <STRUCTURE_IUPAC>
S,S,S-tributyl phosphorotrithioate

> <STRUCTURE_SMILES>
CCCCSP(=O)(SCCCC)SCCCC

> <STRUCTURE_SMILES_Desalt>
CCCCSP(=O)(SCCCC)SCCCC

> <Substance_modify_yyyymmdd>
20080429

$$$$
