78-42-2
ChemmineR-0915142007XD

 29 28  0  0  0  0  0  0  0  0  1 V2000
    8.6397   -7.3094    0.0000 O   0  0  0  0  0  0  0  0  0  0  0  0
    7.3094   -7.3094    0.0000 P   0  0  0  0  0  0  0  0  0  0  0  0
    7.3094   -8.6397    0.0000 O   0  0  0  0  0  0  0  0  0  0  0  0
    8.4642   -9.2975    0.0000 C   0  0  0  0  0  0  0  0  0  0  0  0
    8.4642  -10.6278    0.0000 C   0  0  0  0  0  0  0  0  0  0  0  0
    9.6045  -11.3003    0.0000 C   0  0  0  0  0  0  0  0  0  0  0  0
    9.6045  -12.6306    0.0000 C   0  0  0  0  0  0  0  0  0  0  0  0
   10.7594  -13.2884    0.0000 C   0  0  0  0  0  0  0  0  0  0  0  0
   10.7594  -14.6187    0.0000 C   0  0  0  0  0  0  0  0  0  0  0  0
    7.3094  -11.3003    0.0000 C   0  0  0  0  0  0  0  0  0  0  0  0
    7.3094  -12.6306    0.0000 C   0  0  0  0  0  0  0  0  0  0  0  0
    7.3094   -5.9791    0.0000 O   0  0  0  0  0  0  0  0  0  0  0  0
    8.4642   -5.3212    0.0000 C   0  0  0  0  0  0  0  0  0  0  0  0
    8.4642   -3.9909    0.0000 C   0  0  0  0  0  0  0  0  0  0  0  0
    7.3094   -3.3185    0.0000 C   0  0  0  0  0  0  0  0  0  0  0  0
    7.3094   -1.9881    0.0000 C   0  0  0  0  0  0  0  0  0  0  0  0
    6.1545   -1.3303    0.0000 C   0  0  0  0  0  0  0  0  0  0  0  0
    6.1545    0.0000    0.0000 C   0  0  0  0  0  0  0  0  0  0  0  0
    9.6045   -3.3185    0.0000 C   0  0  0  0  0  0  0  0  0  0  0  0
    9.6045   -1.9881    0.0000 C   0  0  0  0  0  0  0  0  0  0  0  0
    5.9791   -7.3094    0.0000 O   0  0  0  0  0  0  0  0  0  0  0  0
    5.3212   -8.4642    0.0000 C   0  0  0  0  0  0  0  0  0  0  0  0
    3.9909   -8.4642    0.0000 C   0  0  0  0  0  0  0  0  0  0  0  0
    3.3185   -9.6045    0.0000 C   0  0  0  0  0  0  0  0  0  0  0  0
    1.9881   -9.6045    0.0000 C   0  0  0  0  0  0  0  0  0  0  0  0
    1.3303  -10.7594    0.0000 C   0  0  0  0  0  0  0  0  0  0  0  0
    0.0000  -10.7594    0.0000 C   0  0  0  0  0  0  0  0  0  0  0  0
    3.3185   -7.3094    0.0000 C   0  0  0  0  0  0  0  0  0  0  0  0
    1.9881   -7.3094    0.0000 C   0  0  0  0  0  0  0  0  0  0  0  0
  1  2  2  0  0  0  0
  2  3  1  0  0  0  0
  2 12  1  0  0  0  0
  2 21  1  0  0  0  0
  3  4  1  0  0  0  0
  4  5  1  0  0  0  0
  5  6  1  0  0  0  0
  5 10  1  0  0  0  0
  6  7  1  0  0  0  0
  7  8  1  0  0  0  0
  8  9  1  0  0  0  0
 10 11  1  0  0  0  0
 12 13  1  0  0  0  0
 13 14  1  0  0  0  0
 14 15  1  0  0  0  0
 14 19  1  0  0  0  0
 15 16  1  0  0  0  0
 16 17  1  0  0  0  0
 17 18  1  0  0  0  0
 19 20  1  0  0  0  0
 21 22  1  0  0  0  0
 22 23  1  0  0  0  0
 23 24  1  0  0  0  0
 23 28  1  0  0  0  0
 24 25  1  0  0  0  0
 25 26  1  0  0  0  0
 26 27  1  0  0  0  0
 28 29  1  0  0  0  0
M  END
> <ID>
1359

> <Formula>
C24H51O4P

> <FW>
434.6331

> <DSSTox_CID>
1414

> <DSSTox_RID>
76149

> <DSSTox_GSID>
21414

> <DSSTox_FileID_Sort>
833

> <TS_ChemName>
Tris(2-ethylhexyl) phosphate

> <TS_ChemName_Synonyms>
Tris(2-ethylhexyl)phosphate

> <TS_CASRN>
78-42-2

> <CASRN_ChemName_Relationship>
primary

> <TS_Description>
single chemical compound

> <ChemNote>


> <STRUCTURE_Shown>
tested chemical

> <STRUCTURE_Formula>
C24H51O4P

> <STRUCTURE_MW>
434.6331

> <STRUCTURE_ChemType>
defined organic

> <STRUCTURE_DefinedOrganicForm>
parent

> <STRUCTURE_IUPAC>
tris(2-ethylhexyl) phosphate

> <STRUCTURE_SMILES>
CCCCC(COP(=O)(OCC(CC)CCCC)OCC(CC)CCCC)CC

> <STRUCTURE_SMILES_Desalt>
CCCCC(COP(=O)(OCC(CC)CCCC)OCC(CC)CCCC)CC

> <Substance_modify_yyyymmdd>
20080429

$$$$
