78-51-3
ChemmineR-0915142007XD

 26 25  0  0  0  0  0  0  0  0  1 V2000
    7.9690    0.0000    0.0000 C   0  0  0  0  0  0  0  0  0  0  0  0
    8.6388   -1.1507    0.0000 C   0  0  0  0  0  0  0  0  0  0  0  0
    7.9690   -2.3014    0.0000 C   0  0  0  0  0  0  0  0  0  0  0  0
    8.6388   -3.4521    0.0000 C   0  0  0  0  0  0  0  0  0  0  0  0
    7.9690   -4.6028    0.0000 O   0  0  0  0  0  0  0  0  0  0  0  0
    8.6388   -5.7535    0.0000 C   0  0  0  0  0  0  0  0  0  0  0  0
    7.9690   -6.9042    0.0000 C   0  0  0  0  0  0  0  0  0  0  0  0
    8.6388   -8.0548    0.0000 O   0  0  0  0  0  0  0  0  0  0  0  0
    7.9690   -9.2055    0.0000 P   0  0  0  0  0  0  0  0  0  0  0  0
    6.8183   -8.5357    0.0000 O   0  0  0  0  0  0  0  0  0  0  0  0
    9.1197   -9.8753    0.0000 O   0  0  0  0  0  0  0  0  0  0  0  0
   10.2704   -9.2055    0.0000 C   0  0  0  0  0  0  0  0  0  0  0  0
   11.4211   -9.8753    0.0000 C   0  0  0  0  0  0  0  0  0  0  0  0
   12.5717   -9.2055    0.0000 O   0  0  0  0  0  0  0  0  0  0  0  0
   13.7224   -9.8753    0.0000 C   0  0  0  0  0  0  0  0  0  0  0  0
   14.8731   -9.2055    0.0000 C   0  0  0  0  0  0  0  0  0  0  0  0
   16.0238   -9.8753    0.0000 C   0  0  0  0  0  0  0  0  0  0  0  0
   17.1745   -9.2055    0.0000 C   0  0  0  0  0  0  0  0  0  0  0  0
    7.2992  -10.3562    0.0000 O   0  0  0  0  0  0  0  0  0  0  0  0
    5.9767  -10.3562    0.0000 C   0  0  0  0  0  0  0  0  0  0  0  0
    5.3069   -9.2055    0.0000 C   0  0  0  0  0  0  0  0  0  0  0  0
    3.9845   -9.2055    0.0000 O   0  0  0  0  0  0  0  0  0  0  0  0
    3.3147   -8.0548    0.0000 C   0  0  0  0  0  0  0  0  0  0  0  0
    1.9922   -8.0548    0.0000 C   0  0  0  0  0  0  0  0  0  0  0  0
    1.3224   -6.9042    0.0000 C   0  0  0  0  0  0  0  0  0  0  0  0
    0.0000   -6.9042    0.0000 C   0  0  0  0  0  0  0  0  0  0  0  0
  1  2  1  0  0  0  0
  2  3  1  0  0  0  0
  3  4  1  0  0  0  0
  4  5  1  0  0  0  0
  5  6  1  0  0  0  0
  6  7  1  0  0  0  0
  7  8  1  0  0  0  0
  8  9  1  0  0  0  0
  9 10  2  0  0  0  0
  9 11  1  0  0  0  0
  9 19  1  0  0  0  0
 11 12  1  0  0  0  0
 12 13  1  0  0  0  0
 13 14  1  0  0  0  0
 14 15  1  0  0  0  0
 15 16  1  0  0  0  0
 16 17  1  0  0  0  0
 17 18  1  0  0  0  0
 19 20  1  0  0  0  0
 20 21  1  0  0  0  0
 21 22  1  0  0  0  0
 22 23  1  0  0  0  0
 23 24  1  0  0  0  0
 24 25  1  0  0  0  0
 25 26  1  0  0  0  0
M  END
> <ID>
1670

> <Formula>
C18H39O7P

> <FW>
398.4718

> <DSSTox_CID>
1758

> <DSSTox_RID>
76309

> <DSSTox_GSID>
21758

> <DSSTox_FileID_Sort>
993

> <TS_ChemName>
Tris(2-butoxyethyl) phosphate

> <TS_ChemName_Synonyms>
Tris(2-butoxyethyl) phosphate (Tributoxyethyl phosphate) (Ethanol, 2-butoxy-, phosphate (3:1))

> <TS_CASRN>
78-51-3

> <CASRN_ChemName_Relationship>
primary

> <TS_Description>
single chemical compound

> <ChemNote>


> <STRUCTURE_Shown>
tested chemical

> <STRUCTURE_Formula>
C18H39O7P

> <STRUCTURE_MW>
398.4718

> <STRUCTURE_ChemType>
defined organic

> <STRUCTURE_DefinedOrganicForm>
parent

> <STRUCTURE_IUPAC>
tris(2-butoxyethyl) phosphate

> <STRUCTURE_SMILES>
CCCCOCCOP(=O)(OCCOCCCC)OCCOCCCC

> <STRUCTURE_SMILES_Desalt>
CCCCOCCOP(=O)(OCCOCCCC)OCCOCCCC

> <Substance_modify_yyyymmdd>
20080429

$$$$
