78-63-7
ChemmineR-0915142007XD

 20 19  0  0  0  0  0  0  0  0  1 V2000
    4.6073   -1.1518    0.0000 C   0  0  0  0  0  0  0  0  0  0  0  0
    3.9424    0.0000    0.0000 C   0  0  0  0  0  0  0  0  0  0  0  0
    5.7592   -0.4869    0.0000 C   0  0  0  0  0  0  0  0  0  0  0  0
    3.4555   -1.8168    0.0000 O   0  0  0  0  0  0  0  0  0  0  0  0
    2.3037   -1.1518    0.0000 O   0  0  0  0  0  0  0  0  0  0  0  0
    1.1518   -1.8168    0.0000 C   0  0  0  0  0  0  0  0  0  0  0  0
    0.0000   -2.4818    0.0000 C   0  0  0  0  0  0  0  0  0  0  0  0
    0.4869   -0.6650    0.0000 C   0  0  0  0  0  0  0  0  0  0  0  0
    1.8168   -2.9686    0.0000 C   0  0  0  0  0  0  0  0  0  0  0  0
    5.2723   -2.3037    0.0000 C   0  0  0  0  0  0  0  0  0  0  0  0
    6.6022   -2.3037    0.0000 C   0  0  0  0  0  0  0  0  0  0  0  0
    7.2672   -3.4555    0.0000 C   0  0  0  0  0  0  0  0  0  0  0  0
    6.1154   -4.1205    0.0000 C   0  0  0  0  0  0  0  0  0  0  0  0
    7.9322   -4.6073    0.0000 C   0  0  0  0  0  0  0  0  0  0  0  0
    8.4191   -2.7905    0.0000 O   0  0  0  0  0  0  0  0  0  0  0  0
    9.5709   -3.4555    0.0000 O   0  0  0  0  0  0  0  0  0  0  0  0
   10.7227   -2.7905    0.0000 C   0  0  0  0  0  0  0  0  0  0  0  0
   10.0577   -1.6387    0.0000 C   0  0  0  0  0  0  0  0  0  0  0  0
   11.8745   -2.1255    0.0000 C   0  0  0  0  0  0  0  0  0  0  0  0
   11.3877   -3.9424    0.0000 C   0  0  0  0  0  0  0  0  0  0  0  0
  1  2  1  0  0  0  0
  1  3  1  0  0  0  0
  1  4  1  0  0  0  0
  1 10  1  0  0  0  0
  4  5  1  0  0  0  0
  5  6  1  0  0  0  0
  6  7  1  0  0  0  0
  6  8  1  0  0  0  0
  6  9  1  0  0  0  0
 10 11  1  0  0  0  0
 11 12  1  0  0  0  0
 12 13  1  0  0  0  0
 12 14  1  0  0  0  0
 12 15  1  0  0  0  0
 15 16  1  0  0  0  0
 16 17  1  0  0  0  0
 17 18  1  0  0  0  0
 17 19  1  0  0  0  0
 17 20  1  0  0  0  0
M  END
> <ID>
4021

> <Formula>
C16H34O4

> <FW>
290.4388

> <DSSTox_CID>
5110

> <DSSTox_RID>
77668

> <DSSTox_GSID>
25110

> <DSSTox_FileID_Sort>
2351

> <TS_ChemName>
2,5-Dimethyl-2,5-di-(tert-butylperoxy)hexane

> <TS_ChemName_Synonyms>
2,5-Dimethyl-2,5-bis(tert-butylperoxy)hexane (Peroxide, (1,1,4,4-tetramethyl-1,4-butanediyl)bis[(1,1-dimethylethyl))

> <TS_CASRN>
78-63-7

> <CASRN_ChemName_Relationship>
primary

> <TS_Description>
single chemical compound

> <ChemNote>


> <STRUCTURE_Shown>
tested chemical

> <STRUCTURE_Formula>
C16H34O4

> <STRUCTURE_MW>
290.4388

> <STRUCTURE_ChemType>
defined organic

> <STRUCTURE_DefinedOrganicForm>
parent

> <STRUCTURE_IUPAC>
2,5-bis(tert-butylperoxy)-2,5-dimethylhexane

> <STRUCTURE_SMILES>
CC(C)(C)OOC(C)(C)CCC(C)(C)OOC(C)(C)C

> <STRUCTURE_SMILES_Desalt>
CC(C)(C)OOC(C)(C)CCC(C)(C)OOC(C)(C)C

> <Substance_modify_yyyymmdd>
20080429

$$$$
