78-76-2
ChemmineR-0915142007XD

  5  4  0  0  0  0  0  0  0  0  1 V2000
    3.4567   -1.9945    0.0000 C    0  0  0  0  0  0  0  0  0  0  0  0
    2.3056   -1.3308    0.0000 C    0  0  0  0  0  0  0  0  0  0  0  0
    2.3056    0.0000    0.0000 Br   0  0  0  0  0  0  0  0  0  0  0  0
    1.1511   -1.9945    0.0000 C    0  0  0  0  0  0  0  0  0  0  0  0
    0.0000   -1.3308    0.0000 C    0  0  0  0  0  0  0  0  0  0  0  0
  1  2  1  0  0  0  0
  2  3  1  0  0  0  0
  2  4  1  0  0  0  0
  4  5  1  0  0  0  0
M  END
> <ID>
1439

> <Formula>
C4H9Br

> <FW>
137.0183

> <DSSTox_CID>
1499

> <DSSTox_RID>
76189

> <DSSTox_GSID>
21499

> <DSSTox_FileID_Sort>
873

> <TS_ChemName>
2-Bromobutane

> <TS_ChemName_Synonyms>


> <TS_CASRN>
78-76-2

> <CASRN_ChemName_Relationship>
primary

> <TS_Description>
single chemical compound

> <ChemNote>


> <STRUCTURE_Shown>
tested chemical

> <STRUCTURE_Formula>
C4H9Br

> <STRUCTURE_MW>
137.0183

> <STRUCTURE_ChemType>
defined organic

> <STRUCTURE_DefinedOrganicForm>
parent

> <STRUCTURE_IUPAC>
2-bromobutane

> <STRUCTURE_SMILES>
BrC(C)CC

> <STRUCTURE_SMILES_Desalt>
BrC(C)CC

> <Substance_modify_yyyymmdd>
20080429

$$$$
