78-79-5
ChemmineR-0915142007XD

  5  4  0  0  0  0  0  0  0  0  1 V2000
    3.4567   -1.9945    0.0000 C   0  0  0  0  0  0  0  0  0  0  0  0
    2.3056   -1.3308    0.0000 C   0  0  0  0  0  0  0  0  0  0  0  0
    2.3056    0.0000    0.0000 C   0  0  0  0  0  0  0  0  0  0  0  0
    1.1511   -1.9945    0.0000 C   0  0  0  0  0  0  0  0  0  0  0  0
    0.0000   -1.3308    0.0000 C   0  0  0  0  0  0  0  0  0  0  0  0
  1  2  1  0  0  0  0
  2  3  2  0  0  0  0
  2  4  1  0  0  0  0
  4  5  2  0  0  0  0
M  END
> <ID>
731

> <Formula>
C5H8

> <FW>
68.117

> <DSSTox_CID>
761

> <DSSTox_RID>
75776

> <DSSTox_GSID>
20761

> <DSSTox_FileID_Sort>
460

> <TS_ChemName>
Isoprene

> <TS_ChemName_Synonyms>
Isoprene (1,3-Butadiene, 2-methyl-)

> <TS_CASRN>
78-79-5

> <CASRN_ChemName_Relationship>
primary

> <TS_Description>
single chemical compound

> <ChemNote>


> <STRUCTURE_Shown>
tested chemical

> <STRUCTURE_Formula>
C5H8

> <STRUCTURE_MW>
68.117

> <STRUCTURE_ChemType>
defined organic

> <STRUCTURE_DefinedOrganicForm>
parent

> <STRUCTURE_IUPAC>
2-methylbuta-1,3-diene

> <STRUCTURE_SMILES>
C=C(C)C=C

> <STRUCTURE_SMILES_Desalt>
C=C(C)C=C

> <Substance_modify_yyyymmdd>
20080429

$$$$
