78-88-6
ChemmineR-0915142007XD

  5  4  0  0  0  0  0  0  0  0  1 V2000
    2.3056   -1.3308    0.0000 C    0  0  0  0  0  0  0  0  0  0  0  0
    3.4567   -1.9945    0.0000 C    0  0  0  0  0  0  0  0  0  0  0  0
    2.3056    0.0000    0.0000 Cl   0  0  0  0  0  0  0  0  0  0  0  0
    1.1511   -1.9945    0.0000 C    0  0  0  0  0  0  0  0  0  0  0  0
    0.0000   -1.3308    0.0000 Cl   0  0  0  0  0  0  0  0  0  0  0  0
  1  2  2  0  0  0  0
  1  3  1  0  0  0  0
  1  4  1  0  0  0  0
  4  5  1  0  0  0  0
M  END
> <ID>
3968

> <Formula>
C3H4Cl2

> <FW>
110.9699

> <DSSTox_CID>
5012

> <DSSTox_RID>
77626

> <DSSTox_GSID>
25012

> <DSSTox_FileID_Sort>
2309

> <TS_ChemName>
2,3-Dichloro-1-propene

> <TS_ChemName_Synonyms>
2,3-Dichloropropylene

> <TS_CASRN>
78-88-6

> <CASRN_ChemName_Relationship>
primary

> <TS_Description>
single chemical compound

> <ChemNote>


> <STRUCTURE_Shown>
tested chemical

> <STRUCTURE_Formula>
C3H4Cl2

> <STRUCTURE_MW>
110.9699

> <STRUCTURE_ChemType>
defined organic

> <STRUCTURE_DefinedOrganicForm>
parent

> <STRUCTURE_IUPAC>
2,3-dichloroprop-1-ene

> <STRUCTURE_SMILES>
C=C(Cl)CCl

> <STRUCTURE_SMILES_Desalt>
C=C(Cl)CCl

> <Substance_modify_yyyymmdd>
20080429

$$$$
