78-93-3
ChemmineR-0915142007XD

  5  4  0  0  0  0  0  0  0  0  1 V2000
    3.4567   -1.9945    0.0000 C   0  0  0  0  0  0  0  0  0  0  0  0
    2.3056   -1.3308    0.0000 C   0  0  0  0  0  0  0  0  0  0  0  0
    1.1511   -1.9945    0.0000 C   0  0  0  0  0  0  0  0  0  0  0  0
    0.0000   -1.3308    0.0000 C   0  0  0  0  0  0  0  0  0  0  0  0
    2.3056    0.0000    0.0000 O   0  0  0  0  0  0  0  0  0  0  0  0
  1  2  1  0  0  0  0
  2  3  1  0  0  0  0
  2  5  2  0  0  0  0
  3  4  1  0  0  0  0
M  END
> <ID>
1456

> <Formula>
C4H8O

> <FW>
72.1057

> <DSSTox_CID>
1516

> <DSSTox_RID>
76193

> <DSSTox_GSID>
21516

> <DSSTox_FileID_Sort>
877

> <TS_ChemName>
Methyl ethyl ketone

> <TS_ChemName_Synonyms>
MEK; 2-Butanone

> <TS_CASRN>
78-93-3

> <CASRN_ChemName_Relationship>
primary

> <TS_Description>
single chemical compound

> <ChemNote>


> <STRUCTURE_Shown>
tested chemical

> <STRUCTURE_Formula>
C4H8O

> <STRUCTURE_MW>
72.1057

> <STRUCTURE_ChemType>
defined organic

> <STRUCTURE_DefinedOrganicForm>
parent

> <STRUCTURE_IUPAC>
butan-2-one

> <STRUCTURE_SMILES>
CC(=O)CC

> <STRUCTURE_SMILES_Desalt>
CC(=O)CC

> <Substance_modify_yyyymmdd>
20080429

$$$$
