78-95-5
ChemmineR-0915142007XD

  5  4  0  0  0  0  0  0  0  0  1 V2000
    3.4567   -1.9945    0.0000 C    0  0  0  0  0  0  0  0  0  0  0  0
    2.3056   -1.3308    0.0000 C    0  0  0  0  0  0  0  0  0  0  0  0
    1.1511   -1.9945    0.0000 C    0  0  0  0  0  0  0  0  0  0  0  0
    0.0000   -1.3308    0.0000 Cl   0  0  0  0  0  0  0  0  0  0  0  0
    2.3056    0.0000    0.0000 O    0  0  0  0  0  0  0  0  0  0  0  0
  1  2  1  0  0  0  0
  2  3  1  0  0  0  0
  2  5  2  0  0  0  0
  3  4  1  0  0  0  0
M  END
> <ID>
1486

> <Formula>
C3H5ClO

> <FW>
92.5242

> <DSSTox_CID>
1547

> <DSSTox_RID>
76205

> <DSSTox_GSID>
21547

> <DSSTox_FileID_Sort>
889

> <TS_ChemName>
1-Chloropropan-2-one

> <TS_ChemName_Synonyms>
Chloropropanone

> <TS_CASRN>
78-95-5

> <CASRN_ChemName_Relationship>
primary

> <TS_Description>
single chemical compound

> <ChemNote>


> <STRUCTURE_Shown>
tested chemical

> <STRUCTURE_Formula>
C3H5ClO

> <STRUCTURE_MW>
92.5242

> <STRUCTURE_ChemType>
defined organic

> <STRUCTURE_DefinedOrganicForm>
parent

> <STRUCTURE_IUPAC>
1-chloropropan-2-one

> <STRUCTURE_SMILES>
CC(=O)CCl

> <STRUCTURE_SMILES_Desalt>
CC(=O)CCl

> <Substance_modify_yyyymmdd>
20080429

$$$$
