780-69-8
ChemmineR-0915142007XD

 16 16  0  0  0  0  0  0  0  0  1 V2000
    3.4635   -3.4451    0.0000 Si   0  0  0  0  0  0  0  0  0  0  0  0
    2.3110   -2.7892    0.0000 O    0  0  0  0  0  0  0  0  0  0  0  0
    1.1524   -3.4451    0.0000 C    0  0  0  0  0  0  0  0  0  0  0  0
    0.0000   -2.7892    0.0000 C    0  0  0  0  0  0  0  0  0  0  0  0
    4.6220   -4.1194    0.0000 O    0  0  0  0  0  0  0  0  0  0  0  0
    4.6220   -5.4557    0.0000 C    0  0  0  0  0  0  0  0  0  0  0  0
    5.7745   -6.1116    0.0000 C    0  0  0  0  0  0  0  0  0  0  0  0
    2.7892   -4.6037    0.0000 O    0  0  0  0  0  0  0  0  0  0  0  0
    1.4589   -4.6037    0.0000 C    0  0  0  0  0  0  0  0  0  0  0  0
    0.8030   -5.7561    0.0000 C    0  0  0  0  0  0  0  0  0  0  0  0
    4.1255    0.0000    0.0000 C    0  0  0  0  0  0  0  0  0  0  0  0
    5.4557    0.0000    0.0000 C    0  0  0  0  0  0  0  0  0  0  0  0
    6.1300   -1.1524    0.0000 C    0  0  0  0  0  0  0  0  0  0  0  0
    5.4557   -2.2926    0.0000 C    0  0  0  0  0  0  0  0  0  0  0  0
    4.1255   -2.2926    0.0000 C    0  0  0  0  0  0  0  0  0  0  0  0
    3.4635   -1.1524    0.0000 C    0  0  0  0  0  0  0  0  0  0  0  0
  1  2  1  0  0  0  0
  1  5  1  0  0  0  0
  1  8  1  0  0  0  0
  1 15  1  0  0  0  0
  2  3  1  0  0  0  0
  3  4  1  0  0  0  0
  5  6  1  0  0  0  0
  6  7  1  0  0  0  0
  8  9  1  0  0  0  0
  9 10  1  0  0  0  0
 11 16  2  0  0  0  0
 11 12  1  0  0  0  0
 12 13  2  0  0  0  0
 13 14  1  0  0  0  0
 14 15  2  0  0  0  0
 15 16  1  0  0  0  0
M  END
> <ID>
10119

> <Formula>
C12H20O3Si

> <FW>
240.3709

> <DSSTox_CID>
24462

> <DSSTox_RID>
80246

> <DSSTox_GSID>
44462

> <DSSTox_FileID_Sort>
4928

> <TS_ChemName>
Triethoxy(phenyl)silane

> <TS_ChemName_Synonyms>
Triethoxy(phenyl)silane (Silane, triethoxyphenyl-)

> <TS_CASRN>
780-69-8

> <CASRN_ChemName_Relationship>
primary

> <TS_Description>
single chemical compound

> <ChemNote>


> <STRUCTURE_Shown>
tested chemical

> <STRUCTURE_Formula>
C12H20O3Si

> <STRUCTURE_MW>
240.3709

> <STRUCTURE_ChemType>
organometallic

> <STRUCTURE_DefinedOrganicForm>


> <STRUCTURE_IUPAC>
triethoxy(phenyl)silane

> <STRUCTURE_SMILES>
CCO[Si](OCC)(OCC)c1ccccc1

> <STRUCTURE_SMILES_Desalt>
CCO[Si](OCC)(OCC)c1ccccc1

> <Substance_modify_yyyymmdd>
20091116

$$$$
