781-73-7
ChemmineR-0915142007XD

 16 18  0  0  0  0  0  0  0  0  1 V2000
    8.0797   -4.0357    0.0000 C   0  0  0  0  0  0  0  0  0  0  0  0
    0.0000   -0.6657    0.0000 C   0  0  0  0  0  0  0  0  0  0  0  0
    0.0000   -1.9887    0.0000 C   0  0  0  0  0  0  0  0  0  0  0  0
    1.1483    0.0000    0.0000 C   0  0  0  0  0  0  0  0  0  0  0  0
    1.1483   -2.6544    0.0000 C   0  0  0  0  0  0  0  0  0  0  0  0
    5.4336   -3.7611    0.0000 C   0  0  0  0  0  0  0  0  0  0  0  0
    4.1106   -3.6196    0.0000 C   0  0  0  0  0  0  0  0  0  0  0  0
    5.6749   -1.4645    0.0000 C   0  0  0  0  0  0  0  0  0  0  0  0
    3.5697   -0.2496    0.0000 C   0  0  0  0  0  0  0  0  0  0  0  0
    7.5389   -2.8208    0.0000 C   0  0  0  0  0  0  0  0  0  0  0  0
    6.2158   -2.6794    0.0000 C   0  0  0  0  0  0  0  0  0  0  0  0
    2.3049   -0.6657    0.0000 C   0  0  0  0  0  0  0  0  0  0  0  0
    4.3519   -1.3230    0.0000 C   0  0  0  0  0  0  0  0  0  0  0  0
    2.3049   -1.9887    0.0000 C   0  0  0  0  0  0  0  0  0  0  0  0
    3.5697   -2.4048    0.0000 C   0  0  0  0  0  0  0  0  0  0  0  0
    8.3210   -1.7474    0.0000 O   0  0  0  0  0  0  0  0  0  0  0  0
  1 10  1  0  0  0  0
  2  3  2  0  0  0  0
  2  4  1  0  0  0  0
  3  5  1  0  0  0  0
  4 12  2  0  0  0  0
  5 14  2  0  0  0  0
  6  7  2  0  0  0  0
  6 11  1  0  0  0  0
  7 15  1  0  0  0  0
  8 11  2  0  0  0  0
  8 13  1  0  0  0  0
  9 12  1  0  0  0  0
  9 13  1  0  0  0  0
 10 11  1  0  0  0  0
 10 16  2  0  0  0  0
 12 14  1  0  0  0  0
 13 15  2  0  0  0  0
 14 15  1  0  0  0  0
M  END
> <ID>
14221

> <Formula>
C15H12O

> <FW>
208.2552

> <DSSTox_CID>
29316

> <DSSTox_RID>
83432

> <DSSTox_GSID>
49357

> <DSSTox_FileID_Sort>
8107

> <TS_ChemName>
2-Acetylfluorene

> <TS_ChemName_Synonyms>


> <TS_CASRN>
781-73-7

> <CASRN_ChemName_Relationship>
primary

> <TS_Description>
single chemical compound

> <ChemNote>


> <STRUCTURE_Shown>
tested chemical

> <STRUCTURE_Formula>
C15H12O

> <STRUCTURE_MW>
208.2552

> <STRUCTURE_ChemType>
defined organic

> <STRUCTURE_DefinedOrganicForm>
parent

> <STRUCTURE_IUPAC>
1-(9H-fluoren-2-yl)ethanone

> <STRUCTURE_SMILES>
CC(=O)c1ccc2c3ccccc3Cc2c1

> <STRUCTURE_SMILES_Desalt>
CC(=O)c1ccc2c3ccccc3Cc2c1

> <Substance_modify_yyyymmdd>
20111204

$$$$
