78218-09-4
ChemmineR-0915142007XD

 17 18  0  0  0  0  0  0  0  0  1 V2000
    0.0000   -1.9927    0.0000 O   0  0  0  0  0  0  0  0  0  0  0  0
    1.1548   -1.3247    0.0000 C   0  0  0  0  0  0  0  0  0  0  0  0
    1.1548    0.0000    0.0000 O   0  0  0  0  0  0  0  0  0  0  0  0
    2.3097   -1.9927    0.0000 C   0  0  0  0  0  0  0  0  0  0  0  0
    3.4532   -1.3247    0.0000 C   0  0  0  0  0  0  0  0  0  0  0  0
    4.6081   -1.9927    0.0000 C   0  0  0  0  0  0  0  0  0  0  0  0
    4.6081   -3.3173    0.0000 C   0  0  0  0  0  0  0  0  0  0  0  0
    5.7629   -3.9853    0.0000 O   0  0  0  0  0  0  0  0  0  0  0  0
    6.9177   -3.3173    0.0000 C   0  0  0  0  0  0  0  0  0  0  0  0
    8.0613   -3.9853    0.0000 C   0  0  0  0  0  0  0  0  0  0  0  0
    9.2161   -3.3173    0.0000 N   0  0  0  0  0  0  0  0  0  0  0  0
    9.3520   -1.9927    0.0000 C   0  0  0  0  0  0  0  0  0  0  0  0
   10.6540   -1.7209    0.0000 C   0  0  0  0  0  0  0  0  0  0  0  0
   11.3220   -2.8758    0.0000 N   0  0  0  0  0  0  0  0  0  0  0  0
   10.4276   -3.8608    0.0000 C   0  0  0  0  0  0  0  0  0  0  0  0
    3.4532   -3.9853    0.0000 C   0  0  0  0  0  0  0  0  0  0  0  0
    2.3097   -3.3173    0.0000 C   0  0  0  0  0  0  0  0  0  0  0  0
  1  2  1  0  0  0  0
  2  3  2  0  0  0  0
  2  4  1  0  0  0  0
  4  5  2  0  0  0  0
  4 17  1  0  0  0  0
  5  6  1  0  0  0  0
  6  7  2  0  0  0  0
  7  8  1  0  0  0  0
  7 16  1  0  0  0  0
  8  9  1  0  0  0  0
  9 10  1  0  0  0  0
 10 11  1  0  0  0  0
 11 12  1  0  0  0  0
 11 15  1  0  0  0  0
 12 13  2  0  0  0  0
 13 14  1  0  0  0  0
 14 15  2  0  0  0  0
 16 17  2  0  0  0  0
M  END
> <ID>
11088

> <Formula>
C12H12N2O3

> <FW>
232.2353

> <DSSTox_CID>
25639

> <DSSTox_RID>
81020

> <DSSTox_GSID>
45639

> <DSSTox_FileID_Sort>
5701

> <TS_ChemName>
Dazoxiben

> <TS_ChemName_Synonyms>


> <TS_CASRN>
78218-09-4

> <CASRN_ChemName_Relationship>
primary

> <TS_Description>
single chemical compound

> <ChemNote>


> <STRUCTURE_Shown>
tested chemical

> <STRUCTURE_Formula>
C12H12N2O3

> <STRUCTURE_MW>
232.2353

> <STRUCTURE_ChemType>
defined organic

> <STRUCTURE_DefinedOrganicForm>
parent

> <STRUCTURE_IUPAC>
4-[2-(1H-imidazol-1-yl)ethoxy]benzoic acid

> <STRUCTURE_SMILES>
O=C(O)c2ccc(OCCn1ccnc1)cc2

> <STRUCTURE_SMILES_Desalt>
O=C(O)c2ccc(OCCn1ccnc1)cc2

> <Substance_modify_yyyymmdd>
20100107

$$$$
