78266-06-5
ChemmineR-0915142007XD

 23 23  0  0  0  0  0  0  0  0  1 V2000
    0.0000    0.0000    0.0000 C    0  0  0  0  0  0  0  0  0  0  0  0
    0.6657   -1.1498    0.0000 C    0  0  0  0  0  0  0  0  0  0  0  0
    1.9970   -1.1498    0.0000 C    0  0  0  0  0  0  0  0  0  0  0  0
    2.6626    0.0000    0.0000 Br   0  0  0  0  0  0  0  0  0  0  0  0
    2.6626   -2.2995    0.0000 C    0  0  0  0  0  0  0  0  0  0  0  0
    1.9970   -3.4580    0.0000 C    0  0  0  0  0  0  0  0  0  0  0  0
    2.6626   -4.6077    0.0000 N    0  0  0  0  0  0  0  0  0  0  0  0
    3.9939   -4.6077    0.0000 C    0  0  0  0  0  0  0  0  0  0  0  0
    4.6510   -5.7575    0.0000 O    0  0  0  0  0  0  0  0  0  0  0  0
    4.6510   -3.4580    0.0000 C    0  0  0  0  0  0  0  0  0  0  0  0
    5.9823   -3.4580    0.0000 N    0  0  0  0  0  0  0  0  0  0  0  0
    6.6479   -2.2995    0.0000 C    0  0  0  0  0  0  0  0  0  0  0  0
    5.9823   -1.1498    0.0000 C    0  0  0  0  0  0  0  0  0  0  0  0
    6.6479    0.0000    0.0000 O    0  0  0  0  0  0  0  0  0  0  0  0
    4.6510   -1.1498    0.0000 O    0  0  0  0  0  0  0  0  0  0  0  0
    6.6479   -4.6077    0.0000 C    0  0  0  0  0  0  0  0  0  0  0  0
    7.9792   -4.6077    0.0000 C    0  0  0  0  0  0  0  0  0  0  0  0
    8.6449   -3.4580    0.0000 O    0  0  0  0  0  0  0  0  0  0  0  0
    8.6449   -5.7575    0.0000 O    0  0  0  0  0  0  0  0  0  0  0  0
    0.6657   -3.4580    0.0000 C    0  0  0  0  0  0  0  0  0  0  0  0
    0.0000   -2.2995    0.0000 C    0  0  0  0  0  0  0  0  0  0  0  0
    0.0000   -4.6077    0.0000 C    0  0  0  0  0  0  0  0  0  0  0  0
    3.9939   -2.2995    0.0000 C    0  0  0  0  0  0  0  0  0  0  0  0
  1  2  1  0  0  0  0
  2  3  2  0  0  0  0
  2 21  1  0  0  0  0
  3  4  1  0  0  0  0
  3  5  1  0  0  0  0
  5  6  2  0  0  0  0
  5 23  1  0  0  0  0
  6  7  1  0  0  0  0
  6 20  1  0  0  0  0
  7  8  1  0  0  0  0
  8  9  2  0  0  0  0
  8 10  1  0  0  0  0
 10 11  1  0  0  0  0
 11 12  1  0  0  0  0
 11 16  1  0  0  0  0
 12 13  1  0  0  0  0
 13 14  1  0  0  0  0
 13 15  2  0  0  0  0
 16 17  1  0  0  0  0
 17 18  1  0  0  0  0
 17 19  2  0  0  0  0
 20 21  2  0  0  0  0
 20 22  1  0  0  0  0
M  END
> <ID>
12057

> <Formula>
C15H19BrN2O5

> <FW>
387.2258

> <DSSTox_CID>
26891

> <DSSTox_RID>
81994

> <DSSTox_GSID>
46891

> <DSSTox_FileID_Sort>
6675

> <TS_ChemName>
Mebrofenin

> <TS_ChemName_Synonyms>


> <TS_CASRN>
78266-06-5

> <CASRN_ChemName_Relationship>
primary

> <TS_Description>
single chemical compound

> <ChemNote>


> <STRUCTURE_Shown>
tested chemical

> <STRUCTURE_Formula>
C15H19BrN2O5

> <STRUCTURE_MW>
387.2258

> <STRUCTURE_ChemType>
defined organic

> <STRUCTURE_DefinedOrganicForm>
parent

> <STRUCTURE_IUPAC>
2,2'-({2-[(3-bromo-2,4,6-trimethylphenyl)amino]-2-oxoethyl}imino)diacetic acid

> <STRUCTURE_SMILES>
Cc1cc(C)c(Br)c(C)c1NC(=O)CN(CC(=O)O)CC(=O)O

> <STRUCTURE_SMILES_Desalt>
Cc1cc(C)c(Br)c(C)c1NC(=O)CN(CC(=O)O)CC(=O)O

> <Substance_modify_yyyymmdd>
20110727

$$$$
