78281-72-8
ChemmineR-0915142007XD

 19 20  0  0  0  0  0  0  0  0  1 V2000
    6.9145   -2.0007    0.0000 C   0  0  0  0  0  0  0  0  0  0  0  0
    6.9145   -3.3277    0.0000 C   0  0  0  0  0  0  0  0  0  0  0  0
    5.7638   -3.9808    0.0000 C   0  0  0  0  0  0  0  0  0  0  0  0
    4.6027   -3.3277    0.0000 C   0  0  0  0  0  0  0  0  0  0  0  0
    4.6027   -2.0007    0.0000 C   0  0  0  0  0  0  0  0  0  0  0  0
    5.7638   -1.3269    0.0000 C   0  0  0  0  0  0  0  0  0  0  0  0
    9.2159   -2.0007    0.0000 C   0  0  0  0  0  0  0  0  0  0  0  0
   10.3666   -1.3269    0.0000 N   0  0  0  0  0  0  0  0  0  0  0  0
    8.0652   -1.3269    0.0000 C   0  0  0  0  0  0  0  0  0  0  0  0
    9.2159   -3.3277    0.0000 O   0  0  0  0  0  0  0  0  0  0  0  0
    5.7638    0.0000    0.0000 N   0  0  0  0  0  0  0  0  0  0  0  0
    3.4521   -1.3269    0.0000 C   0  0  0  0  0  0  0  0  0  0  0  0
    3.4521    0.0000    0.0000 O   0  0  0  0  0  0  0  0  0  0  0  0
    2.3014   -2.0007    0.0000 C   0  0  0  0  0  0  0  0  0  0  0  0
    2.3014   -3.3277    0.0000 C   0  0  0  0  0  0  0  0  0  0  0  0
    1.1507   -1.3269    0.0000 C   0  0  0  0  0  0  0  0  0  0  0  0
    1.1507   -3.9808    0.0000 C   0  0  0  0  0  0  0  0  0  0  0  0
    0.0000   -2.0007    0.0000 C   0  0  0  0  0  0  0  0  0  0  0  0
    0.0000   -3.3277    0.0000 C   0  0  0  0  0  0  0  0  0  0  0  0
  1  2  1  0  0  0  0
  1  6  2  0  0  0  0
  1  9  1  0  0  0  0
  2  3  2  0  0  0  0
  3  4  1  0  0  0  0
  4  5  2  0  0  0  0
  5  6  1  0  0  0  0
  5 12  1  0  0  0  0
  6 11  1  0  0  0  0
  7  8  1  0  0  0  0
  7 10  2  0  0  0  0
  7  9  1  0  0  0  0
 12 13  2  0  0  0  0
 12 14  1  0  0  0  0
 14 15  2  0  0  0  0
 14 16  1  0  0  0  0
 15 17  1  0  0  0  0
 16 18  2  0  0  0  0
 17 19  2  0  0  0  0
 18 19  1  0  0  0  0
M  END
> <ID>
13635

> <Formula>
C15H14N2O2

> <FW>
254.2839

> <DSSTox_CID>
28564

> <DSSTox_RID>
82836

> <DSSTox_GSID>
48638

> <DSSTox_FileID_Sort>
7513

> <TS_ChemName>
Nepafenac

> <TS_ChemName_Synonyms>


> <TS_CASRN>
78281-72-8

> <CASRN_ChemName_Relationship>
primary

> <TS_Description>
single chemical compound

> <ChemNote>


> <STRUCTURE_Shown>
tested chemical

> <STRUCTURE_Formula>
C15H14N2O2

> <STRUCTURE_MW>
254.2839

> <STRUCTURE_ChemType>
defined organic

> <STRUCTURE_DefinedOrganicForm>
parent

> <STRUCTURE_IUPAC>
2-(2-amino-3-benzoylphenyl)acetamide

> <STRUCTURE_SMILES>
Nc1c(cccc1CC(N)=O)C(=O)c2ccccc2

> <STRUCTURE_SMILES_Desalt>
Nc1c(cccc1CC(N)=O)C(=O)c2ccccc2

> <Substance_modify_yyyymmdd>
20111015

$$$$
