78416-81-6
ChemmineR-0915142007XD

 31 33  0  0  0  0  0  0  0  0  1 V2000
    5.7241  -10.6420    0.0000 Cl   0  0  0  0  0  0  0  0  0  0  0  0
   11.5174   -5.3210    0.0000 C    0  0  0  0  0  0  0  0  0  0  0  0
   10.3656   -5.9890    0.0000 O    0  0  0  0  0  0  0  0  0  0  0  0
    9.2139   -5.3210    0.0000 C    0  0  0  0  0  0  0  0  0  0  0  0
    8.0622   -5.9890    0.0000 C    0  0  0  0  0  0  0  0  0  0  0  0
    8.0622   -7.3135    0.0000 O    0  0  0  0  0  0  0  0  0  0  0  0
    9.2139   -7.9815    0.0000 C    0  0  0  0  0  0  0  0  0  0  0  0
    6.9104   -5.3210    0.0000 C    0  0  0  0  0  0  0  0  0  0  0  0
    6.9104   -3.9965    0.0000 C    0  0  0  0  0  0  0  0  0  0  0  0
    8.0622   -3.3285    0.0000 C    0  0  0  0  0  0  0  0  0  0  0  0
    9.2139   -3.9965    0.0000 C    0  0  0  0  0  0  0  0  0  0  0  0
    8.0622   -1.9925    0.0000 C    0  0  0  0  0  0  0  0  0  0  0  0
    6.9104   -1.3360    0.0000 C    0  0  0  0  0  0  0  0  0  0  0  0
    5.7587   -1.9925    0.0000 N    0  0  0  0  0  0  0  0  0  0  0  0
    4.6069   -1.3360    0.0000 C    0  0  0  0  0  0  0  0  0  0  0  0
    4.6069    0.0000    0.0000 O    0  0  0  0  0  0  0  0  0  0  0  0
    3.4552   -1.9925    0.0000 N    0  0  0  0  0  0  0  0  0  0  0  0
    2.3035   -1.3360    0.0000 C    0  0  0  0  0  0  0  0  0  0  0  0
    3.4552   -3.3285    0.0000 C    0  0  0  0  0  0  0  0  0  0  0  0
    4.6069   -3.9965    0.0000 C    0  0  0  0  0  0  0  0  0  0  0  0
    5.7587   -3.3285    0.0000 C    0  0  0  0  0  0  0  0  0  0  0  0
    2.3035   -3.9965    0.0000 N    0  0  0  0  0  0  0  0  0  0  0  0
    2.3035   -5.3210    0.0000 C    0  0  0  0  0  0  0  0  0  0  0  0
    3.4552   -5.9890    0.0000 C    0  0  0  0  0  0  0  0  0  0  0  0
    4.6069   -5.3210    0.0000 C    0  0  0  0  0  0  0  0  0  0  0  0
    3.4552   -7.3135    0.0000 C    0  0  0  0  0  0  0  0  0  0  0  0
    2.3035   -7.9815    0.0000 C    0  0  0  0  0  0  0  0  0  0  0  0
    2.3035   -9.3175    0.0000 C    0  0  0  0  0  0  0  0  0  0  0  0
    1.1517   -7.3135    0.0000 C    0  0  0  0  0  0  0  0  0  0  0  0
    1.1517   -5.9890    0.0000 C    0  0  0  0  0  0  0  0  0  0  0  0
    0.0000   -5.3210    0.0000 C    0  0  0  0  0  0  0  0  0  0  0  0
  2  3  1  0  0  0  0
  3  4  1  0  0  0  0
  4  5  2  0  0  0  0
  4 11  1  0  0  0  0
  5  6  1  0  0  0  0
  5  8  1  0  0  0  0
  6  7  1  0  0  0  0
  8  9  2  0  0  0  0
  9 10  1  0  0  0  0
  9 21  1  0  0  0  0
 10 11  2  0  0  0  0
 10 12  1  0  0  0  0
 12 13  1  0  0  0  0
 13 14  1  0  0  0  0
 14 15  1  0  0  0  0
 14 21  1  0  0  0  0
 15 16  2  0  0  0  0
 15 17  1  0  0  0  0
 17 18  1  0  0  0  0
 17 19  1  0  0  0  0
 19 20  1  0  0  0  0
 19 22  2  0  0  0  0
 20 21  2  0  0  0  0
 22 23  1  0  0  0  0
 23 24  2  0  0  0  0
 23 30  1  0  0  0  0
 24 25  1  0  0  0  0
 24 26  1  0  0  0  0
 26 27  2  0  0  0  0
 27 28  1  0  0  0  0
 27 29  1  0  0  0  0
 29 30  2  0  0  0  0
 30 31  1  0  0  0  0
M  END
> <ID>
11212

> <Formula>
C24H28ClN3O3

> <FW>
441.9504 (36.4609+405.4895)

> <DSSTox_CID>
25806

> <DSSTox_RID>
81144

> <DSSTox_GSID>
45806

> <DSSTox_FileID_Sort>
5825

> <TS_ChemName>
Trequinsin hydrochloride

> <TS_ChemName_Synonyms>


> <TS_CASRN>
78416-81-6

> <CASRN_ChemName_Relationship>
primary

> <TS_Description>
single chemical compound

> <ChemNote>
parent [79855-88-2]

> <STRUCTURE_Shown>
tested chemical

> <STRUCTURE_Formula>
C24H28ClN3O3

> <STRUCTURE_MW>
441.9504

> <STRUCTURE_ChemType>
defined organic

> <STRUCTURE_DefinedOrganicForm>
complex

> <STRUCTURE_IUPAC>
(2E)-9,10-dimethoxy-3-methyl-2-[(2,4,6-trimethylphenyl)imino]-2,3,6,7-tetrahydro-4H-pyrimido[6,1-a]isoquinolin-4-one hydrochloride (1:1)

> <STRUCTURE_SMILES>
Cl.Cc4cc(C)cc(C)c4\N=C2/C=C1c3cc(OC)c(OC)cc3CCN1C(=O)N2C

> <STRUCTURE_SMILES_Desalt>
Cc4cc(C)cc(C)c4\N=C2/C=C1c3cc(OC)c(OC)cc3CCN1C(=O)N2C

> <Substance_modify_yyyymmdd>
20110909

$$$$
