78439-06-2
ChemmineR-0915142007XD

 44 42  0  0  1  0  0  0  0  0  2 V2000
    6.3667   -5.5305    0.0000 C   0  0  0  0  0  0  0  0  0  0  0  0
    7.7163   -6.8801    0.0000 N   0  0  0  0  0  0  0  0  0  0  0  0
    6.3667   -6.8801    0.0000 C   0  0  0  0  0  0  0  0  0  0  0  0
    7.7163   -5.5305    0.0000 C   0  0  0  0  0  0  0  0  0  0  0  0
    8.8752   -7.5696    0.0000 C   0  0  0  0  0  0  0  0  0  0  0  0
    5.0317   -5.5305    0.0000 N   0  0  0  0  0  0  0  0  0  0  0  0
    2.9926   -4.4449    0.0000 C   0  0  0  0  0  0  0  0  0  0  0  0
    8.8752   -4.8703    0.0000 S   0  0  0  0  0  0  0  0  0  0  0  0
   10.0634   -6.8801    0.0000 C   0  0  0  0  0  0  0  0  0  0  0  0
    4.3716   -4.4449    0.0000 C   0  0  0  0  0  0  0  0  0  0  0  0
    8.8752   -8.9045    0.0000 C   0  0  0  0  0  0  0  0  0  0  0  0
   10.0634   -5.5305    0.0000 C   0  0  0  0  0  0  0  0  0  0  0  0
    5.4278   -7.8190    0.0000 O   0  0  0  0  0  0  0  0  0  0  0  0
   11.1930   -7.5696    0.0000 C   0  0  0  0  0  0  0  0  0  0  0  0
    5.0317   -3.2273    0.0000 O   0  0  0  0  0  0  0  0  0  0  0  0
    7.6869   -9.5500    0.0000 O   0  0  0  0  0  0  0  0  0  0  0  0
   10.0194   -9.5500    0.0000 O   0  5  0  0  0  0  0  0  0  0  0  0
   12.3666   -6.9094    0.0000 N   0  3  0  0  0  0  0  0  0  0  0  0
   12.3666   -5.5745    0.0000 C   0  0  0  0  0  0  0  0  0  0  0  0
   13.4961   -7.5842    0.0000 C   0  0  0  0  0  0  0  0  0  0  0  0
   13.5108   -4.9144    0.0000 C   0  0  0  0  0  0  0  0  0  0  0  0
   14.6697   -6.9241    0.0000 C   0  0  0  0  0  0  0  0  0  0  0  0
   14.6697   -5.5892    0.0000 C   0  0  0  0  0  0  0  0  0  0  0  0
    2.3178   -5.5452    0.0000 N   0  0  0  0  0  0  0  0  0  0  0  0
    2.2151   -3.3594    0.0000 C   0  0  0  0  0  0  0  0  0  0  0  0
    0.8949   -3.3594    0.0000 C   0  0  0  0  0  0  0  0  0  0  0  0
    0.4988   -2.0831    0.0000 S   0  0  0  0  0  0  0  0  0  0  0  0
    2.6112   -2.1124    0.0000 N   0  0  0  0  0  0  0  0  0  0  0  0
    1.5697   -1.3203    0.0000 C   0  0  0  0  0  0  0  0  0  0  0  0
    1.5697    0.0000    0.0000 N   0  0  0  0  0  0  0  0  0  0  0  0
    2.9633   -6.7187    0.0000 O   0  0  0  0  0  0  0  0  0  0  0  0
    2.2885   -7.8336    0.0000 C   0  0  0  0  0  0  0  0  0  0  0  0
    1.1882   -7.1295    0.0000 C   0  0  0  0  0  0  0  0  0  0  0  0
    1.1882   -5.8239    0.0000 O   0  0  0  0  0  0  0  0  0  0  0  0
    0.0000   -7.7456    0.0000 O   0  0  0  0  0  0  0  0  0  0  0  0
    3.3887   -8.5231    0.0000 C   0  0  0  0  0  0  0  0  0  0  0  0
    1.5697   -8.9485    0.0000 C   0  0  0  0  0  0  0  0  0  0  0  0
    7.7309   -4.2836    0.0000 H   0  0  0  0  0  0  0  0  0  0  0  0
    6.3667   -4.1955    0.0000 H   0  0  0  0  0  0  0  0  0  0  0  0
    6.0586  -10.9143    0.0000 O   0  0  0  0  0  0  0  0  0  0  0  0
    3.8728  -10.9730    0.0000 O   0  0  0  0  0  0  0  0  0  0  0  0
    8.1564  -10.8703    0.0000 O   0  0  0  0  0  0  0  0  0  0  0  0
    1.5110  -11.0170    0.0000 O   0  0  0  0  0  0  0  0  0  0  0  0
   10.5622  -10.9730    0.0000 O   0  0  0  0  0  0  0  0  0  0  0  0
  1  3  1  0  0  0  0
  1  4  1  0  0  0  0
  1  6  1  1  0  0  0
  1 39  1  6  0  0  0
  2  4  1  0  0  0  0
  2  5  1  0  0  0  0
  2  3  1  0  0  0  0
  3 13  2  0  0  0  0
  4  8  1  0  0  0  0
  4 38  1  6  0  0  0
  5 11  1  0  0  0  0
  5  9  2  0  0  0  0
  6 10  1  0  0  0  0
  7 10  1  0  0  0  0
  7 24  2  0  0  0  0
  7 25  1  0  0  0  0
  8 12  1  0  0  0  0
  9 12  1  0  0  0  0
  9 14  1  0  0  0  0
 10 15  2  0  0  0  0
 11 16  2  0  0  0  0
 11 17  1  0  0  0  0
 14 18  1  0  0  0  0
 18 19  1  0  0  0  0
 18 20  2  0  0  0  0
 19 21  2  0  0  0  0
 20 22  1  0  0  0  0
 21 23  1  0  0  0  0
 22 23  2  0  0  0  0
 24 31  1  0  0  0  0
 25 26  2  0  0  0  0
 25 28  1  0  0  0  0
 26 27  1  0  0  0  0
 27 29  1  0  0  0  0
 28 29  2  0  0  0  0
 29 30  1  0  0  0  0
 31 32  1  0  0  0  0
 32 33  1  0  0  0  0
 32 36  1  0  0  0  0
 32 37  1  0  0  0  0
 33 34  2  0  0  0  0
 33 35  1  0  0  0  0
M  END
> <ID>
11060

> <Formula>
C22H32N6O12S2

> <FW>
636.6525 (546.5761+18.0153+18.0153+18.0153+18.0153+18.0153)

> <DSSTox_CID>
25599

> <DSSTox_RID>
80992

> <DSSTox_GSID>
45599

> <DSSTox_FileID_Sort>
5673

> <TS_ChemName>
Ceftazidime pentahydrate

> <TS_ChemName_Synonyms>


> <TS_CASRN>
78439-06-2

> <CASRN_ChemName_Relationship>
primary

> <TS_Description>
single chemical compound

> <ChemNote>
stereochem; parent [72558-82-8]

> <STRUCTURE_Shown>
tested chemical

> <STRUCTURE_Formula>
C22H32N6O12S2

> <STRUCTURE_MW>
636.6525

> <STRUCTURE_ChemType>
defined organic

> <STRUCTURE_DefinedOrganicForm>
salt

> <STRUCTURE_IUPAC>
(6R,7R)-7-{[(2Z)-2-(2-amino-1,3-thiazol-4-yl)-2-{[(2-carboxypropan-2-yl)oxy]imino}acetyl]amino}-8-oxo-3-(pyridinium-1-ylmethyl)-5-thia-1-azabicyclo[4.2.0]oct-2-ene-2-carboxylate pentahydrate

> <STRUCTURE_SMILES>
O.O.O.O.O.O=C(O)C(C)(C)O\N=C(\c1csc(N)n1)C(=O)N[C@@H]4C(=O)N3C(=C(C[n+]2ccccc2)CS[C@@H]34)C([O-])=O

> <STRUCTURE_SMILES_Desalt>
O=C(O)C(C)(C)O\N=C(\c1csc(N)n1)C(=O)N[C@@H]4C(=O)N3C(=C(C[n+]2ccccc2)CS[C@@H]34)C(=O)O

> <Substance_modify_yyyymmdd>
20100107

$$$$
