78473-71-9
ChemmineR-0915142007XD

 22 24  0  0  1  0  0  0  0  0  1 V2000
    4.3518   -4.6572    0.0000 C   0  0  0  0  0  0  0  0  0  0  0  0
    4.7663   -3.3811    0.0000 C   0  0  0  0  0  0  0  0  0  0  0  0
    5.4425   -5.4425    0.0000 O   0  0  0  0  0  0  0  0  0  0  0  0
    6.1078   -3.3811    0.0000 C   0  0  0  0  0  0  0  0  0  0  0  0
    6.5005   -4.6572    0.0000 C   0  0  0  0  0  0  0  0  0  0  0  0
    4.0028   -2.3122    0.0000 C   0  0  0  0  0  0  0  0  0  0  0  0
    6.8931   -2.3232    0.0000 C   0  0  0  0  0  0  0  0  0  0  0  0
    3.0866   -5.0608    0.0000 O   0  0  0  0  0  0  0  0  0  0  0  0
    2.6613   -2.3122    0.0000 C   0  0  0  0  0  0  0  0  0  0  0  0
    8.2128   -2.3232    0.0000 C   0  0  0  0  0  0  0  0  0  0  0  0
    2.0069   -1.1561    0.0000 C   0  0  0  0  0  0  0  0  0  0  0  0
    8.9000   -1.1998    0.0000 C   0  0  0  0  0  0  0  0  0  0  0  0
   10.2306   -1.1998    0.0000 C   0  0  0  0  0  0  0  0  0  0  0  0
    0.6762   -1.1561    0.0000 C   0  0  0  0  0  0  0  0  0  0  0  0
   10.9068   -0.0654    0.0000 O   0  0  0  0  0  0  0  0  0  0  0  0
    0.0000    0.0000    0.0000 O   0  0  0  0  0  0  0  0  0  0  0  0
   10.1979   -3.5011    0.0000 C   0  0  0  0  0  0  0  0  0  0  0  0
    0.6544   -3.4466    0.0000 C   0  0  0  0  0  0  0  0  0  0  0  0
    1.9959   -3.4466    0.0000 C   0  0  0  0  0  0  0  0  0  0  0  0
    8.8782   -3.5011    0.0000 C   0  0  0  0  0  0  0  0  0  0  0  0
   10.8959   -2.3559    0.0000 C   0  0  0  0  0  0  0  0  0  0  0  0
    0.0000   -2.3122    0.0000 C   0  0  0  0  0  0  0  0  0  0  0  0
  1  2  1  0  0  0  0
  1  3  1  0  0  0  0
  1  8  2  0  0  0  0
  2  4  1  0  0  0  0
  2  6  1  6  0  0  0
  3  5  1  0  0  0  0
  4  7  1  1  0  0  0
  4  5  1  0  0  0  0
  6  9  1  0  0  0  0
  7 10  1  0  0  0  0
  9 11  2  0  0  0  0
  9 19  1  0  0  0  0
 10 12  1  0  0  0  0
 10 20  2  0  0  0  0
 11 14  1  0  0  0  0
 12 13  2  0  0  0  0
 13 15  1  0  0  0  0
 13 21  1  0  0  0  0
 14 16  1  0  0  0  0
 14 22  2  0  0  0  0
 17 20  1  0  0  0  0
 17 21  2  0  0  0  0
 18 19  2  0  0  0  0
 18 22  1  0  0  0  0
M  END
> <ID>
13244

> <Formula>
C18H18O4

> <FW>
298.3331

> <DSSTox_CID>
28157

> <DSSTox_RID>
82719

> <DSSTox_GSID>
48183

> <DSSTox_FileID_Sort>
7396

> <TS_ChemName>
Enterolactone

> <TS_ChemName_Synonyms>


> <TS_CASRN>
78473-71-9

> <CASRN_ChemName_Relationship>
primary

> <TS_Description>
single chemical compound

> <ChemNote>
stereochem

> <STRUCTURE_Shown>
tested chemical

> <STRUCTURE_Formula>
C18H18O4

> <STRUCTURE_MW>
298.3331

> <STRUCTURE_ChemType>
defined organic

> <STRUCTURE_DefinedOrganicForm>
parent

> <STRUCTURE_IUPAC>
(3R,4R)-3,4-bis(3-hydroxybenzyl)dihydrofuran-2(3H)-one

> <STRUCTURE_SMILES>
Oc1cccc(c1)C[C@H]3C(=O)OC[C@@H]3Cc2cc(O)ccc2

> <STRUCTURE_SMILES_Desalt>
Oc1cccc(c1)C[C@H]3C(=O)OC[C@@H]3Cc2cc(O)ccc2

> <Substance_modify_yyyymmdd>
20110620

$$$$
