78491-02-8
ChemmineR-0915142007XD

 19 19  0  0  0  0  0  0  0  0  1 V2000
    3.4656   -1.3301    0.0000 C   0  0  0  0  0  0  0  0  0  0  0  0
    3.4656    0.0000    0.0000 O   0  0  0  0  0  0  0  0  0  0  0  0
    4.6184   -2.0025    0.0000 N   0  0  0  0  0  0  0  0  0  0  0  0
    2.3055   -2.0025    0.0000 N   0  0  0  0  0  0  0  0  0  0  0  0
    5.2761   -5.3721    0.0000 N   0  0  0  0  0  0  0  0  0  0  0  0
    3.5395   -4.1011    0.0000 N   0  0  0  0  0  0  0  0  0  0  0  0
    3.9460   -5.3721    0.0000 C   0  0  0  0  0  0  0  0  0  0  0  0
    5.6899   -4.1011    0.0000 C   0  0  0  0  0  0  0  0  0  0  0  0
    4.6184   -3.3326    0.0000 C   0  0  0  0  0  0  0  0  0  0  0  0
    6.0593   -6.4436    0.0000 C   0  0  0  0  0  0  0  0  0  0  0  0
    7.3894   -6.3180    0.0000 O   0  0  0  0  0  0  0  0  0  0  0  0
    2.2759   -3.7021    0.0000 C   0  0  0  0  0  0  0  0  0  0  0  0
    1.2858   -4.5814    0.0000 O   0  0  0  0  0  0  0  0  0  0  0  0
    3.1775   -6.4436    0.0000 O   0  0  0  0  0  0  0  0  0  0  0  0
    6.9535   -3.7021    0.0000 O   0  0  0  0  0  0  0  0  0  0  0  0
    5.7711   -1.3301    0.0000 C   0  0  0  0  0  0  0  0  0  0  0  0
    5.7711    0.0000    0.0000 O   0  0  0  0  0  0  0  0  0  0  0  0
    1.1528   -1.3301    0.0000 C   0  0  0  0  0  0  0  0  0  0  0  0
    0.0000   -2.0025    0.0000 O   0  0  0  0  0  0  0  0  0  0  0  0
  1  2  2  0  0  0  0
  1  3  1  0  0  0  0
  1  4  1  0  0  0  0
  3  9  1  0  0  0  0
  3 16  1  0  0  0  0
  4 18  1  0  0  0  0
  5  7  1  0  0  0  0
  5  8  1  0  0  0  0
  5 10  1  0  0  0  0
  6  7  1  0  0  0  0
  6  9  1  0  0  0  0
  6 12  1  0  0  0  0
  7 14  2  0  0  0  0
  8  9  1  0  0  0  0
  8 15  2  0  0  0  0
 10 11  1  0  0  0  0
 12 13  1  0  0  0  0
 16 17  1  0  0  0  0
 18 19  1  0  0  0  0
M  END
> <ID>
6048

> <Formula>
C8H14N4O7

> <FW>
278.2194

> <DSSTox_CID>
9559

> <DSSTox_RID>
78776

> <DSSTox_GSID>
29559

> <DSSTox_FileID_Sort>
3458

> <TS_ChemName>
Diazolidinyl urea

> <TS_ChemName_Synonyms>
Diazolidinyl urea (Urea, N-[1,3-bis(hydroxymethyl)-2,5-dioxo-4-imidazolidinyl]-N,N'-bis(hydroxymethyl)-)

> <TS_CASRN>
78491-02-8

> <CASRN_ChemName_Relationship>
primary

> <TS_Description>
single chemical compound

> <ChemNote>


> <STRUCTURE_Shown>
tested chemical

> <STRUCTURE_Formula>
C8H14N4O7

> <STRUCTURE_MW>
278.2194

> <STRUCTURE_ChemType>
defined organic

> <STRUCTURE_DefinedOrganicForm>
parent

> <STRUCTURE_IUPAC>
1-[1,3-bis(hydroxymethyl)-2,5-dioxoimidazolidin-4-yl]-1,3-bis(hydroxymethyl)urea

> <STRUCTURE_SMILES>
OCN1C(=O)N(CO)C(=O)C1N(CO)C(=O)NCO

> <STRUCTURE_SMILES_Desalt>
OCN1C(=O)N(CO)C(=O)C1N(CO)C(=O)NCO

> <Substance_modify_yyyymmdd>
20080429

$$$$
