78587-05-0
ChemmineR-0915142007XD

 23 25  0  0  1  0  0  0  0  0  1 V2000
    6.3391   -3.9196    0.0000 N    0  0  0  0  0  0  0  0  0  0  0  0
    6.7504   -2.6372    0.0000 C    0  0  0  0  0  0  0  0  0  0  0  0
    7.5004   -4.5366    0.0000 C    0  0  0  0  0  0  0  0  0  0  0  0
    5.6858   -1.8509    0.0000 S    0  0  0  0  0  0  0  0  0  0  0  0
    5.0084   -3.9196    0.0000 C    0  0  0  0  0  0  0  0  0  0  0  0
    4.5970   -2.6372    0.0000 C    0  0  0  0  0  0  0  0  0  0  0  0
    8.6497   -3.8470    0.0000 N    0  0  0  0  0  0  0  0  0  0  0  0
    8.0206   -2.2259    0.0000 O    0  0  0  0  0  0  0  0  0  0  0  0
    7.5004   -5.8673    0.0000 O    0  0  0  0  0  0  0  0  0  0  0  0
    3.4478   -1.9840    0.0000 C    0  0  0  0  0  0  0  0  0  0  0  0
    3.4478   -0.6533    0.0000 C    0  0  0  0  0  0  0  0  0  0  0  0
    2.2864   -2.6614    0.0000 C    0  0  0  0  0  0  0  0  0  0  0  0
    1.1372   -0.6533    0.0000 C    0  0  0  0  0  0  0  0  0  0  0  0
    9.8111   -4.5366    0.0000 C    0  0  0  0  0  0  0  0  0  0  0  0
    4.2341   -4.9721    0.0000 C    0  0  0  0  0  0  0  0  0  0  0  0
    1.1372   -1.9840    0.0000 C    0  0  0  0  0  0  0  0  0  0  0  0
    2.2864    0.0000    0.0000 C    0  0  0  0  0  0  0  0  0  0  0  0
    0.0000    0.0000    0.0000 Cl   0  0  0  0  0  0  0  0  0  0  0  0
   10.9603   -3.8470    0.0000 C    0  0  0  0  0  0  0  0  0  0  0  0
    9.8111   -5.8673    0.0000 C    0  0  0  0  0  0  0  0  0  0  0  0
   10.9603   -6.5084    0.0000 C    0  0  0  0  0  0  0  0  0  0  0  0
   12.0975   -4.5366    0.0000 C    0  0  0  0  0  0  0  0  0  0  0  0
   12.0975   -5.8673    0.0000 C    0  0  0  0  0  0  0  0  0  0  0  0
  1  2  1  0  0  0  0
  1  3  1  0  0  0  0
  1  5  1  0  0  0  0
  2  4  1  0  0  0  0
  2  8  2  0  0  0  0
  3  7  1  0  0  0  0
  3  9  2  0  0  0  0
  4  6  1  0  0  0  0
  5  6  1  0  0  0  0
  5 15  1  1  0  0  0
  6 10  1  6  0  0  0
  7 14  1  0  0  0  0
 10 11  2  0  0  0  0
 10 12  1  0  0  0  0
 11 17  1  0  0  0  0
 12 16  2  0  0  0  0
 13 16  1  0  0  0  0
 13 18  1  0  0  0  0
 13 17  2  0  0  0  0
 14 19  1  0  0  0  0
 14 20  1  0  0  0  0
 19 22  1  0  0  0  0
 20 21  1  0  0  0  0
 21 23  1  0  0  0  0
 22 23  1  0  0  0  0
M  END
> <ID>
3608

> <Formula>
C17H21ClN2O2S

> <FW>
352.8788

> <DSSTox_CID>
4299

> <DSSTox_RID>
77359

> <DSSTox_GSID>
24299

> <DSSTox_FileID_Sort>
2042

> <TS_ChemName>
Hexythiazox

> <TS_ChemName_Synonyms>
Hexythiazox (Savey)

> <TS_CASRN>
78587-05-0

> <CASRN_ChemName_Relationship>
primary

> <TS_Description>
single chemical compound

> <ChemNote>
relative stereochem

> <STRUCTURE_Shown>
tested chemical

> <STRUCTURE_Formula>
C17H21ClN2O2S

> <STRUCTURE_MW>
352.8788

> <STRUCTURE_ChemType>
defined organic

> <STRUCTURE_DefinedOrganicForm>
parent

> <STRUCTURE_IUPAC>
(4S,5S)-5-(4-chlorophenyl)-N-cyclohexyl-4-methyl-2-oxo-1,3-thiazolidine-3-carboxamide

> <STRUCTURE_SMILES>
Clc1ccc(cc1)[C@@H]2SC(=O)N([C@H]2C)C(=O)NC3CCCCC3

> <STRUCTURE_SMILES_Desalt>
Clc1ccc(cc1)[C@@H]2SC(=O)N([C@H]2C)C(=O)NC3CCCCC3

> <Substance_modify_yyyymmdd>
20080429

$$$$
