78590-17-7
ChemmineR-0915142007XD

 31 31  0  0  1  0  0  0  0  0  2 V2000
    4.7956   -3.6865    0.0000 C    0  0  0  0  0  0  0  0  0  0  0  0
    8.2459   -1.6738    0.0000 C    0  0  0  0  0  0  0  0  0  0  0  0
    4.7956   -5.0215    0.0000 C    0  0  0  0  0  0  0  0  0  0  0  0
    5.9354   -3.0088    0.0000 C    0  0  0  0  0  0  0  0  0  0  0  0
    8.2459   -3.0088    0.0000 C    0  0  0  0  0  0  0  0  0  0  0  0
    7.1163   -3.6865    0.0000 C    0  0  0  0  0  0  0  0  0  0  0  0
    5.9354   -5.6787    0.0000 C    0  0  0  0  0  0  0  0  0  0  0  0
    9.4987   -1.2733    0.0000 C    0  0  0  0  0  0  0  0  0  0  0  0
    7.0855   -1.0269    0.0000 C    0  0  0  0  0  0  0  0  0  0  0  0
    7.1163   -5.0420    0.0000 C    0  0  0  0  0  0  0  0  0  0  0  0
    5.9354   -1.6738    0.0000 C    0  0  0  0  0  0  0  0  0  0  0  0
    3.6352   -3.0088    0.0000 C    0  0  0  0  0  0  0  0  0  0  0  0
    9.4987   -3.4298    0.0000 C    0  0  0  0  0  0  0  0  0  0  0  0
    3.6352   -5.6787    0.0000 C    0  0  0  0  0  0  0  0  0  0  0  0
   10.2689   -2.3310    0.0000 C    0  0  0  0  0  0  0  0  0  0  0  0
    9.9300    0.0000    0.0000 O    0  0  0  0  0  0  0  0  0  0  0  0
    2.4748   -3.6865    0.0000 C    0  0  0  0  0  0  0  0  0  0  0  0
    2.4748   -5.0215    0.0000 C    0  0  0  0  0  0  0  0  0  0  0  0
    4.7956   -2.3618    0.0000 C    0  0  0  0  0  0  0  0  0  0  0  0
    8.2459   -0.3902    0.0000 C    0  0  0  0  0  0  0  0  0  0  0  0
    1.3350   -5.6787    0.0000 O    0  0  0  0  0  0  0  0  0  0  0  0
    7.1163   -2.3618    0.0000 H    0  0  0  0  0  0  0  0  0  0  0  0
    8.2459   -4.3437    0.0000 H    0  0  0  0  0  0  0  0  0  0  0  0
    5.9354   -4.3437    0.0000 H    0  0  0  0  0  0  0  0  0  0  0  0
    1.3350   -7.0034    0.0000 S    0  0  0  0  0  0  0  0  0  0  0  0
    2.6596   -7.0034    0.0000 O    0  0  0  0  0  0  0  0  0  0  0  0
    0.0000   -7.0034    0.0000 O    0  0  0  0  0  0  0  0  0  0  0  0
    1.3350   -8.3383    0.0000 O    0  5  0  0  0  0  0  0  0  0  0  0
    3.1834   -8.3178    0.0000 Na   0  3  0  0  0  0  0  0  0  0  0  0
    8.1330   -6.9007    0.0000 O    0  0  0  0  0  0  0  0  0  0  0  0
    5.2474   -6.9007    0.0000 O    0  0  0  0  0  0  0  0  0  0  0  0
  1  3  1  0  0  0  0
  1  4  1  0  0  0  0
  1 12  1  0  0  0  0
  1 19  1  1  0  0  0
  2  9  1  0  0  0  0
  2  8  1  0  0  0  0
  2 20  1  1  0  0  0
  2  5  1  0  0  0  0
  3  7  2  0  0  0  0
  3 14  1  0  0  0  0
  4  6  1  0  0  0  0
  4 11  1  0  0  0  0
  4 24  1  6  0  0  0
  5  6  1  0  0  0  0
  5 13  1  0  0  0  0
  5 23  1  6  0  0  0
  6 10  1  0  0  0  0
  6 22  1  1  0  0  0
  7 10  1  0  0  0  0
  8 16  2  0  0  0  0
  8 15  1  0  0  0  0
  9 11  1  0  0  0  0
 12 17  1  0  0  0  0
 13 15  1  0  0  0  0
 14 18  1  0  0  0  0
 17 18  1  0  0  0  0
 18 21  1  1  0  0  0
 21 25  1  0  0  0  0
 25 26  2  0  0  0  0
 25 27  2  0  0  0  0
 25 28  1  0  0  0  0
M  END
> <ID>
11174

> <Formula>
C19H31NaO7S

> <FW>
426.5000 (367.4802+22.9892+18.0153+18.0153)

> <DSSTox_CID>
25764

> <DSSTox_RID>
81106

> <DSSTox_GSID>
45764

> <DSSTox_FileID_Sort>
5787

> <TS_ChemName>
Sodium prasterone sulfate dihydrate

> <TS_ChemName_Synonyms>


> <TS_CASRN>
78590-17-7

> <CASRN_ChemName_Relationship>
primary

> <TS_Description>
single chemical compound

> <ChemNote>
stereochem; parent  [651-48-9]

> <STRUCTURE_Shown>
tested chemical

> <STRUCTURE_Formula>
C19H31NaO7S

> <STRUCTURE_MW>
426.5

> <STRUCTURE_ChemType>
defined organic

> <STRUCTURE_DefinedOrganicForm>
salt complex

> <STRUCTURE_IUPAC>
sodium (3beta)-17-oxoandrost-5-en-3-yl sulfate hydrate (1:1:2)

> <STRUCTURE_SMILES>
[Na+].O.O.[O-]S(=O)(=O)O[C@H]4CC[C@@]2(C)C(=CC[C@H]1[C@@H]3CCC(=O)[C@@]3(C)CC[C@@H]12)C4

> <STRUCTURE_SMILES_Desalt>
O=S(=O)(O)O[C@H]4CC[C@@]2(C)C(=CC[C@H]1[C@@H]3CCC(=O)[C@@]3(C)CC[C@@H]12)C4

> <Substance_modify_yyyymmdd>
20110826

$$$$
