78613-35-1
ChemmineR-0915142007XD

 23 24  0  0  1  0  0  0  0  0  1 V2000
    3.4730   -0.7057    0.0000 N   0  0  0  0  0  0  0  0  0  0  0  0
    1.1761   -2.0340    0.0000 O   0  0  0  0  0  0  0  0  0  0  0  0
   11.5396   -2.6704    0.0000 C   0  0  0  0  0  0  0  0  0  0  0  0
   10.3635   -2.0201    0.0000 C   0  0  0  0  0  0  0  0  0  0  0  0
    2.3384   -0.0415    0.0000 C   0  0  0  0  0  0  0  0  0  0  0  0
    3.4730   -2.0340    0.0000 C   0  0  0  0  0  0  0  0  0  0  0  0
    4.6214   -0.0138    0.0000 C   0  0  0  0  0  0  0  0  0  0  0  0
    1.1761   -0.7057    0.0000 C   0  0  0  0  0  0  0  0  0  0  0  0
    2.3384   -2.6704    0.0000 C   0  0  0  0  0  0  0  0  0  0  0  0
   10.3635   -0.6918    0.0000 C   0  0  0  0  0  0  0  0  0  0  0  0
    9.2151   -2.6704    0.0000 C   0  0  0  0  0  0  0  0  0  0  0  0
    8.0667   -0.6918    0.0000 C   0  0  0  0  0  0  0  0  0  0  0  0
    6.9044    0.0000    0.0000 C   0  0  0  0  0  0  0  0  0  0  0  0
    5.7698   -0.6918    0.0000 C   0  0  0  0  0  0  0  0  0  0  0  0
    8.0667   -2.0063    0.0000 C   0  0  0  0  0  0  0  0  0  0  0  0
    9.2151   -0.0138    0.0000 C   0  0  0  0  0  0  0  0  0  0  0  0
   12.7019   -3.3484    0.0000 C   0  0  0  0  0  0  0  0  0  0  0  0
   10.8755   -3.8189    0.0000 C   0  0  0  0  0  0  0  0  0  0  0  0
   12.2038   -1.5220    0.0000 C   0  0  0  0  0  0  0  0  0  0  0  0
    0.0000   -0.0415    0.0000 C   0  0  0  0  0  0  0  0  0  0  0  0
    2.3384   -3.9987    0.0000 C   0  0  0  0  0  0  0  0  0  0  0  0
    5.7836   -2.0201    0.0000 C   0  0  0  0  0  0  0  0  0  0  0  0
   13.8365   -2.6704    0.0000 C   0  0  0  0  0  0  0  0  0  0  0  0
  1  5  1  0  0  0  0
  1  6  1  0  0  0  0
  1  7  1  0  0  0  0
  2  9  1  0  0  0  0
  2  8  1  0  0  0  0
  3  4  1  0  0  0  0
  3 17  1  0  0  0  0
  3 18  1  0  0  0  0
  3 19  1  0  0  0  0
  4 10  2  0  0  0  0
  4 11  1  0  0  0  0
  5  8  1  0  0  0  0
  6  9  1  0  0  0  0
  7 14  1  0  0  0  0
  8 20  1  6  0  0  0
  9 21  1  6  0  0  0
 10 16  1  0  0  0  0
 11 15  2  0  0  0  0
 12 13  1  0  0  0  0
 12 15  1  0  0  0  0
 12 16  2  0  0  0  0
 13 14  1  0  0  0  0
 14 22  1  0  0  0  0
 17 23  1  0  0  0  0
M  END
> <ID>
11888

> <Formula>
C21H35NO

> <FW>
317.5087

> <DSSTox_CID>
26690

> <DSSTox_RID>
81824

> <DSSTox_GSID>
46690

> <DSSTox_FileID_Sort>
6505

> <TS_ChemName>
Amorolfine

> <TS_ChemName_Synonyms>


> <TS_CASRN>
78613-35-1

> <CASRN_ChemName_Relationship>
primary

> <TS_Description>
single chemical compound

> <ChemNote>
stereochem

> <STRUCTURE_Shown>
tested chemical

> <STRUCTURE_Formula>
C21H35NO

> <STRUCTURE_MW>
317.5087

> <STRUCTURE_ChemType>
defined organic

> <STRUCTURE_DefinedOrganicForm>
parent

> <STRUCTURE_IUPAC>
(2R,6S)-2,6-dimethyl-4-{2-methyl-3-[4-(2-methylbutan-2-yl)phenyl]propyl}morpholine

> <STRUCTURE_SMILES>
C[C@H]2CN(CC(C)Cc1ccc(cc1)C(C)(C)CC)C[C@@H](C)O2

> <STRUCTURE_SMILES_Desalt>
C[C@H]2CN(CC(C)Cc1ccc(cc1)C(C)(C)CC)C[C@@H](C)O2

> <Substance_modify_yyyymmdd>
20110805

$$$$
