78649-41-9
ChemmineR-0915142007XD

 31 31  0  0  0  0  0  0  0  0  1 V2000
    8.0816   -3.9923    0.0000 C   0  0  0  0  0  0  0  0  0  0  0  0
    6.9501   -3.3458    0.0000 C   0  0  0  0  0  0  0  0  0  0  0  0
    9.2615   -3.3458    0.0000 C   0  0  0  0  0  0  0  0  0  0  0  0
    8.0816   -5.3500    0.0000 N   0  0  0  0  0  0  0  0  0  0  0  0
    6.9501   -2.0042    0.0000 C   0  0  0  0  0  0  0  0  0  0  0  0
    5.8187   -3.9923    0.0000 I   0  0  0  0  0  0  0  0  0  0  0  0
    9.2615   -2.0042    0.0000 C   0  0  0  0  0  0  0  0  0  0  0  0
   10.4091   -3.9923    0.0000 I   0  0  0  0  0  0  0  0  0  0  0  0
    6.9501   -5.9965    0.0000 C   0  0  0  0  0  0  0  0  0  0  0  0
    9.2615   -5.9965    0.0000 C   0  0  0  0  0  0  0  0  0  0  0  0
    8.0816   -1.3577    0.0000 C   0  0  0  0  0  0  0  0  0  0  0  0
    5.8187   -1.3577    0.0000 C   0  0  0  0  0  0  0  0  0  0  0  0
   10.4091   -1.3577    0.0000 C   0  0  0  0  0  0  0  0  0  0  0  0
    5.8187   -5.3500    0.0000 C   0  0  0  0  0  0  0  0  0  0  0  0
    6.9501   -7.3381    0.0000 O   0  0  0  0  0  0  0  0  0  0  0  0
    8.0816    0.0000    0.0000 I   0  0  0  0  0  0  0  0  0  0  0  0
    4.6388   -2.0042    0.0000 N   0  0  0  0  0  0  0  0  0  0  0  0
    5.8187    0.0000    0.0000 O   0  0  0  0  0  0  0  0  0  0  0  0
   11.5890   -2.0042    0.0000 N   0  0  0  0  0  0  0  0  0  0  0  0
   10.4091    0.0000    0.0000 O   0  0  0  0  0  0  0  0  0  0  0  0
    4.6388   -5.9965    0.0000 O   0  0  0  0  0  0  0  0  0  0  0  0
    3.5074   -1.3577    0.0000 C   0  0  0  0  0  0  0  0  0  0  0  0
   12.7204   -1.3577    0.0000 C   0  0  0  0  0  0  0  0  0  0  0  0
    2.3275   -2.0042    0.0000 C   0  0  0  0  0  0  0  0  0  0  0  0
   13.9003   -2.0042    0.0000 C   0  0  0  0  0  0  0  0  0  0  0  0
    1.1799   -1.3577    0.0000 C   0  0  0  0  0  0  0  0  0  0  0  0
    2.3275   -3.3458    0.0000 O   0  0  0  0  0  0  0  0  0  0  0  0
   15.0317   -1.3577    0.0000 C   0  0  0  0  0  0  0  0  0  0  0  0
   13.9003   -3.3458    0.0000 O   0  0  0  0  0  0  0  0  0  0  0  0
    0.0000   -2.0042    0.0000 O   0  0  0  0  0  0  0  0  0  0  0  0
   16.1631   -2.0042    0.0000 O   0  0  0  0  0  0  0  0  0  0  0  0
  1  2  1  0  0  0  0
  1  3  2  0  0  0  0
  1  4  1  0  0  0  0
  2  5  2  0  0  0  0
  2  6  1  0  0  0  0
  3  7  1  0  0  0  0
  3  8  1  0  0  0  0
  4  9  1  0  0  0  0
  4 10  1  0  0  0  0
  5 11  1  0  0  0  0
  5 12  1  0  0  0  0
  7 13  1  0  0  0  0
  7 11  2  0  0  0  0
  9 14  1  0  0  0  0
  9 15  2  0  0  0  0
 11 16  1  0  0  0  0
 12 17  1  0  0  0  0
 12 18  2  0  0  0  0
 13 19  1  0  0  0  0
 13 20  2  0  0  0  0
 14 21  1  0  0  0  0
 17 22  1  0  0  0  0
 19 23  1  0  0  0  0
 22 24  1  0  0  0  0
 23 25  1  0  0  0  0
 24 26  1  0  0  0  0
 24 27  1  0  0  0  0
 25 28  1  0  0  0  0
 25 29  1  0  0  0  0
 26 30  1  0  0  0  0
 28 31  1  0  0  0  0
M  END
> <ID>
14045

> <Formula>
C17H22I3N3O8

> <FW>
777.0853

> <DSSTox_CID>
28987

> <DSSTox_RID>
83252

> <DSSTox_GSID>
49061

> <DSSTox_FileID_Sort>
7927

> <TS_ChemName>
Iomeprol

> <TS_ChemName_Synonyms>


> <TS_CASRN>
78649-41-9

> <CASRN_ChemName_Relationship>
primary

> <TS_Description>
single chemical compound

> <ChemNote>


> <STRUCTURE_Shown>
tested chemical

> <STRUCTURE_Formula>
C17H22I3N3O8

> <STRUCTURE_MW>
777.0853

> <STRUCTURE_ChemType>
defined organic

> <STRUCTURE_DefinedOrganicForm>
parent

> <STRUCTURE_IUPAC>
N,N'-bis(2,3-dihydroxypropyl)-5-[(hydroxyacetyl)(methyl)amino]-2,4,6-triiodobenzene-1,3-dicarboxamide

> <STRUCTURE_SMILES>
Ic1c(c(I)c(c(I)c1N(C)C(=O)CO)C(=O)NCC(O)CO)C(=O)NCC(O)CO

> <STRUCTURE_SMILES_Desalt>
Ic1c(c(I)c(c(I)c1N(C)C(=O)CO)C(=O)NCC(O)CO)C(=O)NCC(O)CO

> <Substance_modify_yyyymmdd>
20111204

$$$$
