78712-43-3
ChemmineR-0915142007XD

 18 18  0  0  0  0  0  0  0  0  1 V2000
    0.7638   -1.5726    0.0000 N    0  0  0  0  0  0  0  0  0  0  0  0
    2.0444   -3.3025    0.0000 N    0  0  0  0  0  0  0  0  0  0  0  0
    2.0444   -1.9770    0.0000 C    0  0  0  0  0  0  0  0  0  0  0  0
   10.0648   -1.2918    0.0000 C    0  0  0  0  0  0  0  0  0  0  0  0
    8.9190   -1.9995    0.0000 C    0  0  0  0  0  0  0  0  0  0  0  0
    7.7845   -1.2918    0.0000 C    0  0  0  0  0  0  0  0  0  0  0  0
    0.0000   -2.6398    0.0000 C    0  0  0  0  0  0  0  0  0  0  0  0
    0.7638   -3.7069    0.0000 C    0  0  0  0  0  0  0  0  0  0  0  0
   11.2330   -1.9658    0.0000 O    0  0  0  0  0  0  0  0  0  0  0  0
    3.1789   -3.9765    0.0000 C    0  0  0  0  0  0  0  0  0  0  0  0
    6.6387   -1.9770    0.0000 C    0  0  0  0  0  0  0  0  0  0  0  0
    4.3247   -3.3025    0.0000 C    0  0  0  0  0  0  0  0  0  0  0  0
   10.0648    0.0000    0.0000 O    0  0  0  0  0  0  0  0  0  0  0  0
    5.4929   -1.3143    0.0000 C    0  0  0  0  0  0  0  0  0  0  0  0
    6.6387   -3.3025    0.0000 C    0  0  0  0  0  0  0  0  0  0  0  0
    4.3247   -1.9770    0.0000 C    0  0  0  0  0  0  0  0  0  0  0  0
    5.4929   -3.9765    0.0000 C    0  0  0  0  0  0  0  0  0  0  0  0
    8.9976   -3.2688    0.0000 Cl   0  0  0  0  0  0  0  0  0  0  0  0
  1  3  2  0  0  0  0
  1  7  1  0  0  0  0
  2  3  1  0  0  0  0
  2 10  1  0  0  0  0
  2  8  1  0  0  0  0
  4  5  1  0  0  0  0
  4  9  2  0  0  0  0
  4 13  1  0  0  0  0
  5  6  2  0  0  0  0
  6 11  1  0  0  0  0
  7  8  2  0  0  0  0
 10 12  1  0  0  0  0
 11 15  2  0  0  0  0
 11 14  1  0  0  0  0
 12 16  1  0  0  0  0
 12 17  2  0  0  0  0
 14 16  2  0  0  0  0
 15 17  1  0  0  0  0
M  END
> <ID>
10988

> <Formula>
C13H13ClN2O2

> <FW>
264.7075 (228.2466+36.4609)

> <DSSTox_CID>
25506

> <DSSTox_RID>
80920

> <DSSTox_GSID>
45506

> <DSSTox_FileID_Sort>
5601

> <TS_ChemName>
Ozagrel hydrochloride

> <TS_ChemName_Synonyms>


> <TS_CASRN>
78712-43-3

> <CASRN_ChemName_Relationship>
primary

> <TS_Description>
single chemical compound

> <ChemNote>
stereochem; parent [82571-53-7]

> <STRUCTURE_Shown>
tested chemical

> <STRUCTURE_Formula>
C13H13ClN2O2

> <STRUCTURE_MW>
264.7075

> <STRUCTURE_ChemType>
defined organic

> <STRUCTURE_DefinedOrganicForm>
complex

> <STRUCTURE_IUPAC>
(2E)-3-[4-(1H-imidazol-1-ylmethyl)phenyl]prop-2-enoic acid hydrochloride (1:1)

> <STRUCTURE_SMILES>
Cl.O=C(O)/C=C/c2ccc(Cn1ccnc1)cc2

> <STRUCTURE_SMILES_Desalt>
O=C(O)/C=C/c2ccc(Cn1ccnc1)cc2

> <Substance_modify_yyyymmdd>
20100107

$$$$
