78755-81-4
ChemmineR-0915142007XD

 22 24  0  0  0  0  0  0  0  0  1 V2000
    1.9993   -5.2506    0.0000 C   0  0  0  0  0  0  0  0  0  0  0  0
    1.3328   -4.0995    0.0000 C   0  0  0  0  0  0  0  0  0  0  0  0
    0.0000   -4.0995    0.0000 F   0  0  0  0  0  0  0  0  0  0  0  0
    1.9993   -2.9484    0.0000 C   0  0  0  0  0  0  0  0  0  0  0  0
    3.3220   -2.9484    0.0000 C   0  0  0  0  0  0  0  0  0  0  0  0
    3.9884   -4.0995    0.0000 C   0  0  0  0  0  0  0  0  0  0  0  0
    3.3220   -5.2506    0.0000 C   0  0  0  0  0  0  0  0  0  0  0  0
    5.3213   -4.3115    0.0000 N   0  0  0  0  0  0  0  0  0  0  0  0
    6.2603   -3.3725    0.0000 C   0  0  0  0  0  0  0  0  0  0  0  0
    6.1795   -2.0598    0.0000 C   0  0  0  0  0  0  0  0  0  0  0  0
    5.0789   -1.3126    0.0000 N   0  0  0  0  0  0  0  0  0  0  0  0
    5.2809    0.0000    0.0000 C   0  0  0  0  0  0  0  0  0  0  0  0
    3.8269   -1.6862    0.0000 C   0  0  0  0  0  0  0  0  0  0  0  0
    2.8878   -0.7472    0.0000 O   0  0  0  0  0  0  0  0  0  0  0  0
    7.4417   -4.0490    0.0000 C   0  0  0  0  0  0  0  0  0  0  0  0
    8.6534   -3.4836    0.0000 C   0  0  0  0  0  0  0  0  0  0  0  0
    9.7439   -4.2409    0.0000 O   0  0  0  0  0  0  0  0  0  0  0  0
    8.7745   -2.1507    0.0000 O   0  0  0  0  0  0  0  0  0  0  0  0
    9.9761   -1.5954    0.0000 C   0  0  0  0  0  0  0  0  0  0  0  0
   10.0973   -0.2726    0.0000 C   0  0  0  0  0  0  0  0  0  0  0  0
    7.1893   -5.3415    0.0000 N   0  0  0  0  0  0  0  0  0  0  0  0
    5.8665   -5.5030    0.0000 C   0  0  0  0  0  0  0  0  0  0  0  0
  1  2  2  0  0  0  0
  1  7  1  0  0  0  0
  2  3  1  0  0  0  0
  2  4  1  0  0  0  0
  4  5  2  0  0  0  0
  5  6  1  0  0  0  0
  5 13  1  0  0  0  0
  6  7  2  0  0  0  0
  6  8  1  0  0  0  0
  8  9  1  0  0  0  0
  8 22  1  0  0  0  0
  9 10  1  0  0  0  0
  9 15  2  0  0  0  0
 10 11  1  0  0  0  0
 11 12  1  0  0  0  0
 11 13  1  0  0  0  0
 13 14  2  0  0  0  0
 15 16  1  0  0  0  0
 15 21  1  0  0  0  0
 16 17  2  0  0  0  0
 16 18  1  0  0  0  0
 18 19  1  0  0  0  0
 19 20  1  0  0  0  0
 21 22  2  0  0  0  0
M  END
> <ID>
2756

> <Formula>
C15H14FN3O3

> <FW>
303.2884

> <DSSTox_CID>
3064

> <DSSTox_RID>
76860

> <DSSTox_GSID>
23064

> <DSSTox_FileID_Sort>
1544

> <TS_ChemName>
Flumazenil

> <TS_ChemName_Synonyms>


> <TS_CASRN>
78755-81-4

> <CASRN_ChemName_Relationship>
primary

> <TS_Description>
single chemical compound

> <ChemNote>


> <STRUCTURE_Shown>
tested chemical

> <STRUCTURE_Formula>
C15H14FN3O3

> <STRUCTURE_MW>
303.2884

> <STRUCTURE_ChemType>
defined organic

> <STRUCTURE_DefinedOrganicForm>
parent

> <STRUCTURE_IUPAC>
ethyl 8-fluoro-5-methyl-6-oxo-5,6-dihydro-4H-imidazo[1,5-a][1,4]benzodiazepine-3-carboxylate

> <STRUCTURE_SMILES>
O=C(OCC)c3ncn2c3CN(C)C(=O)c1cc(F)ccc12

> <STRUCTURE_SMILES_Desalt>
O=C(OCC)c3ncn2c3CN(C)C(=O)c1cc(F)ccc12

> <Substance_modify_yyyymmdd>
20080429

$$$$
