78761-38-3
ChemmineR-0915142007XD

 14 14  0  0  0  0  0  0  0  0  1 V2000
    5.7534   -1.3269    0.0000 C   0  0  0  0  0  0  0  0  0  0  0  0
    4.6027   -1.9904    0.0000 C   0  0  0  0  0  0  0  0  0  0  0  0
    3.4624   -1.3269    0.0000 C   0  0  0  0  0  0  0  0  0  0  0  0
    6.9249   -1.9904    0.0000 O   0  0  0  0  0  0  0  0  0  0  0  0
    1.1507   -3.9911    0.0000 C   0  0  0  0  0  0  0  0  0  0  0  0
    0.0000   -3.3173    0.0000 C   0  0  0  0  0  0  0  0  0  0  0  0
    0.0000   -1.9904    0.0000 C   0  0  0  0  0  0  0  0  0  0  0  0
    1.1507   -1.3269    0.0000 C   0  0  0  0  0  0  0  0  0  0  0  0
    2.3117   -1.9904    0.0000 C   0  0  0  0  0  0  0  0  0  0  0  0
    2.3117   -3.3173    0.0000 C   0  0  0  0  0  0  0  0  0  0  0  0
    8.0548   -1.3269    0.0000 C   0  0  0  0  0  0  0  0  0  0  0  0
    8.0548    0.0000    0.0000 O   0  0  0  0  0  0  0  0  0  0  0  0
    9.2159   -1.9904    0.0000 C   0  0  0  0  0  0  0  0  0  0  0  0
   10.3665   -1.3269    0.0000 C   0  0  0  0  0  0  0  0  0  0  0  0
  1  2  1  0  0  0  0
  1  4  1  0  0  0  0
  2  3  2  0  0  0  0
  3  9  1  0  0  0  0
  4 11  1  0  0  0  0
  5 10  2  0  0  0  0
  5  6  1  0  0  0  0
  6  7  2  0  0  0  0
  7  8  1  0  0  0  0
  8  9  2  0  0  0  0
  9 10  1  0  0  0  0
 11 12  2  0  0  0  0
 11 13  1  0  0  0  0
 13 14  1  0  0  0  0
M  END
> <ID>
12728

> <Formula>
C12H14O2

> <FW>
190.2384

> <DSSTox_CID>
27606

> <DSSTox_RID>
82449

> <DSSTox_GSID>
47606

> <DSSTox_FileID_Sort>
7130

> <TS_ChemName>
(2E)-3-Phenylprop-2-en-1-yl propanoate

> <TS_ChemName_Synonyms>
trans-Cinnamyl propionate

> <TS_CASRN>
78761-38-3

> <CASRN_ChemName_Relationship>
primary

> <TS_Description>
single chemical compound

> <ChemNote>
stereochem

> <STRUCTURE_Shown>
tested chemical

> <STRUCTURE_Formula>
C12H14O2

> <STRUCTURE_MW>
190.2384

> <STRUCTURE_ChemType>
defined organic

> <STRUCTURE_DefinedOrganicForm>
parent

> <STRUCTURE_IUPAC>
(2E)-3-phenylprop-2-en-1-yl propanoate

> <STRUCTURE_SMILES>
CCC(=O)OC\C=C\c1ccccc1

> <STRUCTURE_SMILES_Desalt>
CCC(=O)OC\C=C\c1ccccc1

> <Substance_modify_yyyymmdd>
20101021

$$$$
