78834-75-0
ChemmineR-0915142007XD

 13 12  0  0  0  0  0  0  0  0  1 V2000
    1.9973   -5.7577    0.0000 C    0  0  0  0  0  0  0  0  0  0  0  0
    3.3288   -5.7577    0.0000 C    0  0  0  0  0  0  0  0  0  0  0  0
    3.9872   -4.6091    0.0000 O    0  0  0  0  0  0  0  0  0  0  0  0
    5.3187   -4.6091    0.0000 C    0  0  0  0  0  0  0  0  0  0  0  0
    5.9845   -5.7577    0.0000 O    0  0  0  0  0  0  0  0  0  0  0  0
    5.9845   -3.4531    0.0000 C    0  0  0  0  0  0  0  0  0  0  0  0
    7.3160   -3.4531    0.0000 O    0  0  0  0  0  0  0  0  0  0  0  0
    5.3187   -2.3045    0.0000 C    0  0  0  0  0  0  0  0  0  0  0  0
    3.9872   -2.3045    0.0000 C    0  0  0  0  0  0  0  0  0  0  0  0
    3.3288   -1.1486    0.0000 C    0  0  0  0  0  0  0  0  0  0  0  0
    1.9973   -1.1486    0.0000 C    0  0  0  0  0  0  0  0  0  0  0  0
    1.3315    0.0000    0.0000 C    0  0  0  0  0  0  0  0  0  0  0  0
    0.0000    0.0000    0.0000 Cl   0  0  0  0  0  0  0  0  0  0  0  0
  1  2  1  0  0  0  0
  2  3  1  0  0  0  0
  3  4  1  0  0  0  0
  4  5  2  0  0  0  0
  4  6  1  0  0  0  0
  6  7  2  0  0  0  0
  6  8  1  0  0  0  0
  8  9  1  0  0  0  0
  9 10  1  0  0  0  0
 10 11  1  0  0  0  0
 11 12  1  0  0  0  0
 12 13  1  0  0  0  0
M  END
> <ID>
16231

> <Formula>
C9H15ClO3

> <FW>
206.6666

> <DSSTox_CID>
31622

> <DSSTox_RID>
97506

> <DSSTox_GSID>
57833

> <DSSTox_FileID_Sort>
8573

> <TS_ChemName>
Ethyl 7-chloro-2-oxoheptanoate

> <TS_ChemName_Synonyms>


> <TS_CASRN>
78834-75-0

> <CASRN_ChemName_Relationship>
primary

> <TS_Description>
single chemical compound

> <ChemNote>


> <STRUCTURE_Shown>
tested chemical

> <STRUCTURE_Formula>
C9H15ClO3

> <STRUCTURE_MW>
206.6666

> <STRUCTURE_ChemType>
defined organic

> <STRUCTURE_DefinedOrganicForm>
parent

> <STRUCTURE_IUPAC>
ethyl 7-chloro-2-oxoheptanoate

> <STRUCTURE_SMILES>
O=C(CCCCCCl)C(=O)OCC

> <STRUCTURE_SMILES_Desalt>
O=C(CCCCCCl)C(=O)OCC

> <Substance_modify_yyyymmdd>
20131018

$$$$
