78919-13-8
ChemmineR-0915142007XD

 26 27  0  0  1  0  0  0  0  0  1 V2000
    6.4095   -4.0220    0.0000 C   0  0  0  0  0  0  0  0  0  0  0  0
    5.0795   -4.0220    0.0000 C   0  0  0  0  0  0  0  0  0  0  0  0
    6.8261   -5.2879    0.0000 C   0  0  0  0  0  0  0  0  0  0  0  0
    6.8261   -2.7721    0.0000 C   0  0  0  0  0  0  0  0  0  0  0  0
    4.6629   -2.7721    0.0000 C   0  0  0  0  0  0  0  0  0  0  0  0
    4.6629   -5.2879    0.0000 C   0  0  0  0  0  0  0  0  0  0  0  0
    5.7365   -6.0730    0.0000 C   0  0  0  0  0  0  0  0  0  0  0  0
    7.9798   -6.0410    0.0000 C   0  0  0  0  0  0  0  0  0  0  0  0
    5.7365   -2.0030    0.0000 C   0  0  0  0  0  0  0  0  0  0  0  0
    5.7365   -7.4030    0.0000 O   0  0  0  0  0  0  0  0  0  0  0  0
    9.1336   -5.3840    0.0000 C   0  0  0  0  0  0  0  0  0  0  0  0
    5.7365   -0.6730    0.0000 C   0  0  0  0  0  0  0  0  0  0  0  0
   10.2873   -6.0410    0.0000 C   0  0  0  0  0  0  0  0  0  0  0  0
    4.5828    0.0000    0.0000 C   0  0  0  0  0  0  0  0  0  0  0  0
   11.4410   -5.3840    0.0000 C   0  0  0  0  0  0  0  0  0  0  0  0
   10.2873   -7.3709    0.0000 O   0  0  0  0  0  0  0  0  0  0  0  0
    3.4611   -0.6730    0.0000 C   0  0  0  0  0  0  0  0  0  0  0  0
   12.5787   -6.0410    0.0000 C   0  0  0  0  0  0  0  0  0  0  0  0
   11.4410   -4.0540    0.0000 C   0  0  0  0  0  0  0  0  0  0  0  0
    2.3074    0.0000    0.0000 C   0  0  0  0  0  0  0  0  0  0  0  0
   13.7324   -5.3840    0.0000 C   0  0  0  0  0  0  0  0  0  0  0  0
    1.1537   -0.6730    0.0000 C   0  0  0  0  0  0  0  0  0  0  0  0
   14.8701   -4.7110    0.0000 C   0  0  0  0  0  0  0  0  0  0  0  0
    0.0000    0.0000    0.0000 O   0  0  0  0  0  0  0  0  0  0  0  0
    1.1537   -2.0030    0.0000 O   0  0  0  0  0  0  0  0  0  0  0  0
   16.0238   -4.0540    0.0000 C   0  0  0  0  0  0  0  0  0  0  0  0
  1  2  1  0  0  0  0
  1  3  1  0  0  0  0
  1  4  1  6  0  0  0
  2  5  1  6  0  0  0
  2  6  1  0  0  0  0
  3  7  1  0  0  0  0
  3  8  1  0  0  0  0
  4  9  1  0  0  0  0
  5  9  1  0  0  0  0
  6  7  1  0  0  0  0
  7 10  1  6  0  0  0
  8 11  2  0  0  0  0
  9 12  2  0  0  0  0
 11 13  1  0  0  0  0
 12 14  1  0  0  0  0
 13 15  1  0  0  0  0
 13 16  1  6  0  0  0
 14 17  1  0  0  0  0
 15 18  1  0  0  0  0
 15 19  1  0  0  0  0
 17 20  1  0  0  0  0
 18 21  1  0  0  0  0
 20 22  1  0  0  0  0
 21 23  3  0  0  0  0
 22 24  1  0  0  0  0
 22 25  2  0  0  0  0
 23 26  1  0  0  0  0
M  END
> <ID>
8066

> <Formula>
C22H32O4

> <FW>
360.4871

> <DSSTox_CID>
21046

> <DSSTox_RID>
79616

> <DSSTox_GSID>
41046

> <DSSTox_FileID_Sort>
4298

> <TS_ChemName>
Iloprost

> <TS_ChemName_Synonyms>


> <TS_CASRN>
78919-13-8

> <CASRN_ChemName_Relationship>
primary

> <TS_Description>
single chemical compound

> <ChemNote>
stereochem

> <STRUCTURE_Shown>
tested chemical

> <STRUCTURE_Formula>
C22H32O4

> <STRUCTURE_MW>
360.4871

> <STRUCTURE_ChemType>
defined organic

> <STRUCTURE_DefinedOrganicForm>
parent

> <STRUCTURE_IUPAC>
(5E)-5-[(3aS,5R,6aS)-5-hydroxy-4-[(1E,3S)-3-hydroxy-4-methyloct-1-en-6-yn-1-yl]hexahydropentalen-2(1H)-ylidene]pentanoic acid

> <STRUCTURE_SMILES>
O[C@@H]2C[C@@H]1C/C(C[C@@H]1C2/C=C/[C@@H](O)C(C)CC#CC)=C\CCCC(=O)O

> <STRUCTURE_SMILES_Desalt>
O[C@@H]2C[C@@H]1C/C(C[C@@H]1C2/C=C/[C@@H](O)C(C)CC#CC)=C\CCCC(=O)O

> <Substance_modify_yyyymmdd>
20080429

$$$$
