78967-07-4
ChemmineR-0915142007XD

 25 27  0  0  0  0  0  0  0  0  1 V2000
    4.8049    0.0000    0.0000 O   0  0  0  0  0  0  0  0  0  0  0  0
    5.8577   -0.8040    0.0000 C   0  0  0  0  0  0  0  0  0  0  0  0
    5.4557   -2.0483    0.0000 C   0  0  0  0  0  0  0  0  0  0  0  0
    4.1253   -2.0483    0.0000 C   0  0  0  0  0  0  0  0  0  0  0  0
    3.7137   -0.8040    0.0000 N   0  0  0  0  0  0  0  0  0  0  0  0
    3.3500   -3.1394    0.0000 C   0  0  0  0  0  0  0  0  0  0  0  0
    4.0009   -4.2880    0.0000 C   0  0  0  0  0  0  0  0  0  0  0  0
    3.3500   -5.4270    0.0000 C   0  0  0  0  0  0  0  0  0  0  0  0
    2.0196   -5.4270    0.0000 C   0  0  0  0  0  0  0  0  0  0  0  0
    1.3304   -4.2880    0.0000 C   0  0  0  0  0  0  0  0  0  0  0  0
    2.0196   -3.1394    0.0000 C   0  0  0  0  0  0  0  0  0  0  0  0
    1.3304   -6.5947    0.0000 O   0  0  0  0  0  0  0  0  0  0  0  0
    0.0000   -6.5947    0.0000 C   0  0  0  0  0  0  0  0  0  0  0  0
    6.2214   -3.1394    0.0000 C   0  0  0  0  0  0  0  0  0  0  0  0
    7.5710   -3.1394    0.0000 C   0  0  0  0  0  0  0  0  0  0  0  0
    8.2410   -4.2880    0.0000 C   0  0  0  0  0  0  0  0  0  0  0  0
    7.5710   -5.4270    0.0000 C   0  0  0  0  0  0  0  0  0  0  0  0
    6.2214   -5.4270    0.0000 C   0  0  0  0  0  0  0  0  0  0  0  0
    5.5706   -4.2880    0.0000 C   0  0  0  0  0  0  0  0  0  0  0  0
    8.2410   -6.5947    0.0000 O   0  0  0  0  0  0  0  0  0  0  0  0
    9.5714   -6.5947    0.0000 C   0  0  0  0  0  0  0  0  0  0  0  0
    7.0063   -0.1723    0.0000 C   0  0  0  0  0  0  0  0  0  0  0  0
    8.1644   -0.8519    0.0000 C   0  0  0  0  0  0  0  0  0  0  0  0
    8.1644   -2.1727    0.0000 O   0  0  0  0  0  0  0  0  0  0  0  0
    9.3034   -0.1723    0.0000 O   0  0  0  0  0  0  0  0  0  0  0  0
  1  2  1  0  0  0  0
  1  5  1  0  0  0  0
  2 22  1  0  0  0  0
  2  3  2  0  0  0  0
  3 14  1  0  0  0  0
  3  4  1  0  0  0  0
  4  6  1  0  0  0  0
  4  5  2  0  0  0  0
  6  7  2  0  0  0  0
  6 11  1  0  0  0  0
  7  8  1  0  0  0  0
  8  9  2  0  0  0  0
  9 12  1  0  0  0  0
  9 10  1  0  0  0  0
 10 11  2  0  0  0  0
 12 13  1  0  0  0  0
 14 15  1  0  0  0  0
 14 19  2  0  0  0  0
 15 16  2  0  0  0  0
 16 17  1  0  0  0  0
 17 18  2  0  0  0  0
 17 20  1  0  0  0  0
 18 19  1  0  0  0  0
 20 21  1  0  0  0  0
 22 23  1  0  0  0  0
 23 24  1  0  0  0  0
 23 25  2  0  0  0  0
M  END
> <ID>
11912

> <Formula>
C19H17NO5

> <FW>
339.342

> <DSSTox_CID>
26716

> <DSSTox_RID>
81848

> <DSSTox_GSID>
46716

> <DSSTox_FileID_Sort>
6529

> <TS_ChemName>
Mofezolac

> <TS_ChemName_Synonyms>


> <TS_CASRN>
78967-07-4

> <CASRN_ChemName_Relationship>
primary

> <TS_Description>
single chemical compound

> <ChemNote>


> <STRUCTURE_Shown>
tested chemical

> <STRUCTURE_Formula>
C19H17NO5

> <STRUCTURE_MW>
339.342

> <STRUCTURE_ChemType>
defined organic

> <STRUCTURE_DefinedOrganicForm>
parent

> <STRUCTURE_IUPAC>
[3,4-bis(4-methoxyphenyl)-1,2-oxazol-5-yl]acetic acid

> <STRUCTURE_SMILES>
O=C(O)Cc2onc(c1ccc(OC)cc1)c2c3ccc(OC)cc3

> <STRUCTURE_SMILES_Desalt>
O=C(O)Cc2onc(c1ccc(OC)cc1)c2c3ccc(OC)cc3

> <Substance_modify_yyyymmdd>
20110804

$$$$
