78995-09-2
ChemmineR-0915142007XD

 27 28  0  0  1  0  0  0  0  0  1 V2000
    3.7550   -7.0119    0.0000 Cl   0  0  0  0  0  0  0  0  0  0  0  0
    3.4485   -3.3208    0.0000 N    0  0  0  0  0  0  0  0  0  0  0  0
    3.4485   -1.9925    0.0000 C    0  0  0  0  0  0  0  0  0  0  0  0
    6.9481   -5.2749    0.0000 N    0  0  0  0  0  0  0  0  0  0  0  0
    4.6619   -3.9977    0.0000 C    0  0  0  0  0  0  0  0  0  0  0  0
    5.8241   -3.3080    0.0000 C    0  0  0  0  0  0  0  0  0  0  0  0
    4.6619   -5.3005    0.0000 C    0  0  0  0  0  0  0  0  0  0  0  0
    2.2990   -1.3283    0.0000 O    0  0  0  0  0  0  0  0  0  0  0  0
    2.2990   -3.9849    0.0000 C    0  0  0  0  0  0  0  0  0  0  0  0
    5.8369   -5.9518    0.0000 C    0  0  0  0  0  0  0  0  0  0  0  0
    6.9481   -3.9466    0.0000 C    0  0  0  0  0  0  0  0  0  0  0  0
    8.1487   -5.9518    0.0000 C    0  0  0  0  0  0  0  0  0  0  0  0
    9.3237   -5.2749    0.0000 C    0  0  0  0  0  0  0  0  0  0  0  0
   10.4604   -5.9008    0.0000 C    0  0  0  0  0  0  0  0  0  0  0  0
    4.5980   -1.3283    0.0000 C    0  0  0  0  0  0  0  0  0  0  0  0
    1.1495   -3.3208    0.0000 C    0  0  0  0  0  0  0  0  0  0  0  0
    2.2990   -5.3005    0.0000 C    0  0  0  0  0  0  0  0  0  0  0  0
   10.4604   -7.2291    0.0000 C    0  0  0  0  0  0  0  0  0  0  0  0
   11.6227   -5.2238    0.0000 C    0  0  0  0  0  0  0  0  0  0  0  0
    0.0000   -3.9849    0.0000 C    0  0  0  0  0  0  0  0  0  0  0  0
    1.1495   -5.9774    0.0000 C    0  0  0  0  0  0  0  0  0  0  0  0
   11.6227   -7.8804    0.0000 C    0  0  0  0  0  0  0  0  0  0  0  0
   12.7722   -5.8880    0.0000 C    0  0  0  0  0  0  0  0  0  0  0  0
    0.0000   -5.3005    0.0000 C    0  0  0  0  0  0  0  0  0  0  0  0
   12.7722   -7.1907    0.0000 C    0  0  0  0  0  0  0  0  0  0  0  0
    4.5980    0.0000    0.0000 C    0  0  0  0  0  0  0  0  0  0  0  0
    5.7986   -1.9797    0.0000 C    0  0  0  0  0  0  0  0  0  0  0  0
  2  3  1  0  0  0  0
  5  2  1  6  0  0  0
  2  9  1  0  0  0  0
  3  8  2  0  0  0  0
  3 15  1  0  0  0  0
  4 10  1  0  0  0  0
  4 12  1  0  0  0  0
  4 11  1  0  0  0  0
  5  6  1  0  0  0  0
  5  7  1  0  0  0  0
  6 11  1  0  0  0  0
  6 27  1  1  0  0  0
  7 10  1  0  0  0  0
  9 16  1  0  0  0  0
  9 17  2  0  0  0  0
 12 13  1  0  0  0  0
 13 14  1  0  0  0  0
 14 18  1  0  0  0  0
 14 19  2  0  0  0  0
 15 26  1  0  0  0  0
 16 20  2  0  0  0  0
 17 21  1  0  0  0  0
 18 22  2  0  0  0  0
 19 23  1  0  0  0  0
 20 24  1  0  0  0  0
 21 24  2  0  0  0  0
 22 25  1  0  0  0  0
 23 25  2  0  0  0  0
M  END
> <ID>
13920

> <Formula>
C23H31ClN2O

> <FW>
386.9580 (36.4609+350.4971)

> <DSSTox_CID>
28857

> <DSSTox_RID>
83126

> <DSSTox_GSID>
48931

> <DSSTox_FileID_Sort>
7803

> <TS_ChemName>
(dl)-trans-3-Methylfentanyl hydrochloride

> <TS_ChemName_Synonyms>
(?)-trans-3-Methylfentanyl hydrochloride

> <TS_CASRN>
78995-09-2

> <CASRN_ChemName_Relationship>
primary

> <TS_Description>
single chemical compound

> <ChemNote>
relative stereochem; parent [78995-17-2]

> <STRUCTURE_Shown>
tested chemical

> <STRUCTURE_Formula>
C23H31ClN2O

> <STRUCTURE_MW>
386.958

> <STRUCTURE_ChemType>
defined organic

> <STRUCTURE_DefinedOrganicForm>
complex

> <STRUCTURE_IUPAC>
N-[(3S,4S)-3-methyl-1-(2-phenylethyl)piperidin-4-yl]-N-phenylpropanamide hydrochloride (1:1)

> <STRUCTURE_SMILES>
Cl.CCC(=O)N([C@H]2CCN(CCc1ccccc1)C[C@@H]2C)c3ccccc3

> <STRUCTURE_SMILES_Desalt>
CCC(=O)N([C@H]2CCN(CCc1ccccc1)C[C@@H]2C)c3ccccc3

> <Substance_modify_yyyymmdd>
20111204

$$$$
