79-16-3
ChemmineR-0915142007XD

  5  4  0  0  0  0  0  0  0  0  1 V2000
    1.1541   -1.3308    0.0000 C   0  0  0  0  0  0  0  0  0  0  0  0
    1.1541    0.0000    0.0000 O   0  0  0  0  0  0  0  0  0  0  0  0
    0.0000   -1.9893    0.0000 C   0  0  0  0  0  0  0  0  0  0  0  0
    2.3116   -1.9893    0.0000 N   0  0  0  0  0  0  0  0  0  0  0  0
    3.4657   -1.3308    0.0000 C   0  0  0  0  0  0  0  0  0  0  0  0
  1  2  2  0  0  0  0
  1  4  1  0  0  0  0
  1  3  1  0  0  0  0
  4  5  1  0  0  0  0
M  END
> <ID>
12315

> <Formula>
C3H7NO

> <FW>
73.0938

> <DSSTox_CID>
27167

> <DSSTox_RID>
82168

> <DSSTox_GSID>
47167

> <DSSTox_FileID_Sort>
6849

> <TS_ChemName>
N-Methylacetamide

> <TS_ChemName_Synonyms>


> <TS_CASRN>
79-16-3

> <CASRN_ChemName_Relationship>
primary

> <TS_Description>
single chemical compound

> <ChemNote>


> <STRUCTURE_Shown>
tested chemical

> <STRUCTURE_Formula>
C3H7NO

> <STRUCTURE_MW>
73.0938

> <STRUCTURE_ChemType>
defined organic

> <STRUCTURE_DefinedOrganicForm>
parent

> <STRUCTURE_IUPAC>
N-methylacetamide

> <STRUCTURE_SMILES>
CC(=O)NC

> <STRUCTURE_SMILES_Desalt>
CC(=O)NC

> <Substance_modify_yyyymmdd>
20100503

$$$$
