79-22-1
ChemmineR-0915142007XD

  5  4  0  0  0  0  0  0  0  0  1 V2000
    2.3007   -1.9967    0.0000 O    0  0  0  0  0  0  0  0  0  0  0  0
    0.0000   -1.9967    0.0000 Cl   0  0  0  0  0  0  0  0  0  0  0  0
    1.1538   -1.3334    0.0000 C    0  0  0  0  0  0  0  0  0  0  0  0
    1.1538    0.0000    0.0000 O    0  0  0  0  0  0  0  0  0  0  0  0
    3.4545   -1.3334    0.0000 C    0  0  0  0  0  0  0  0  0  0  0  0
  1  3  1  0  0  0  0
  1  5  1  0  0  0  0
  2  3  1  0  0  0  0
  3  4  2  0  0  0  0
M  END
> <ID>
3551

> <Formula>
C2H3ClO2

> <FW>
94.497

> <DSSTox_CID>
4185

> <DSSTox_RID>
77321

> <DSSTox_GSID>
24185

> <DSSTox_FileID_Sort>
2004

> <TS_ChemName>
Methyl chlorocarbonate

> <TS_ChemName_Synonyms>


> <TS_CASRN>
79-22-1

> <CASRN_ChemName_Relationship>
primary

> <TS_Description>
single chemical compound

> <ChemNote>


> <STRUCTURE_Shown>
tested chemical

> <STRUCTURE_Formula>
C2H3ClO2

> <STRUCTURE_MW>
94.497

> <STRUCTURE_ChemType>
defined organic

> <STRUCTURE_DefinedOrganicForm>
parent

> <STRUCTURE_IUPAC>
methyl carbonochloridate

> <STRUCTURE_SMILES>
ClC(=O)OC

> <STRUCTURE_SMILES_Desalt>
ClC(=O)OC

> <Substance_modify_yyyymmdd>
20080429

$$$$
