79-29-8
ChemmineR-0915142007XD

  6  5  0  0  0  0  0  0  0  0  1 V2000
    1.9943   -1.1509    0.0000 C   0  0  0  0  0  0  0  0  0  0  0  0
    1.3307   -2.3053    0.0000 C   0  0  0  0  0  0  0  0  0  0  0  0
    1.9943   -3.4563    0.0000 C   0  0  0  0  0  0  0  0  0  0  0  0
    0.0000   -2.3053    0.0000 C   0  0  0  0  0  0  0  0  0  0  0  0
    1.3307    0.0000    0.0000 C   0  0  0  0  0  0  0  0  0  0  0  0
    3.3250   -1.1509    0.0000 C   0  0  0  0  0  0  0  0  0  0  0  0
  1  2  1  0  0  0  0
  1  5  1  0  0  0  0
  1  6  1  0  0  0  0
  2  3  1  0  0  0  0
  2  4  1  0  0  0  0
M  END
> <ID>
4023

> <Formula>
C6H14

> <FW>
86.1754

> <DSSTox_CID>
5112

> <DSSTox_RID>
77670

> <DSSTox_GSID>
25112

> <DSSTox_FileID_Sort>
2353

> <TS_ChemName>
2,3-Dimethylbutane

> <TS_ChemName_Synonyms>


> <TS_CASRN>
79-29-8

> <CASRN_ChemName_Relationship>
primary

> <TS_Description>
single chemical compound

> <ChemNote>


> <STRUCTURE_Shown>
tested chemical

> <STRUCTURE_Formula>
C6H14

> <STRUCTURE_MW>
86.1754

> <STRUCTURE_ChemType>
defined organic

> <STRUCTURE_DefinedOrganicForm>
parent

> <STRUCTURE_IUPAC>
2,3-dimethylbutane

> <STRUCTURE_SMILES>
CC(C)C(C)C

> <STRUCTURE_SMILES_Desalt>
CC(C)C(C)C

> <Substance_modify_yyyymmdd>
20080429

$$$$
