79-27-6
ChemmineR-0915142007XD

  6  5  0  0  0  0  0  0  0  0  1 V2000
    1.9943   -1.1509    0.0000 C    0  0  0  0  0  0  0  0  0  0  0  0
    3.3250   -1.1509    0.0000 Br   0  0  0  0  0  0  0  0  0  0  0  0
    1.3307    0.0000    0.0000 Br   0  0  0  0  0  0  0  0  0  0  0  0
    1.3307   -2.3053    0.0000 C    0  0  0  0  0  0  0  0  0  0  0  0
    1.9943   -3.4563    0.0000 Br   0  0  0  0  0  0  0  0  0  0  0  0
    0.0000   -2.3053    0.0000 Br   0  0  0  0  0  0  0  0  0  0  0  0
  1  2  1  0  0  0  0
  1  3  1  0  0  0  0
  1  4  1  0  0  0  0
  4  5  1  0  0  0  0
  4  6  1  0  0  0  0
M  END
> <ID>
4533

> <Formula>
C2H2Br4

> <FW>
345.6533

> <DSSTox_CID>
6083

> <DSSTox_RID>
78010

> <DSSTox_GSID>
26083

> <DSSTox_FileID_Sort>
2693

> <TS_ChemName>
1,1,2,2-Tetrabromoethane

> <TS_ChemName_Synonyms>


> <TS_CASRN>
79-27-6

> <CASRN_ChemName_Relationship>
primary

> <TS_Description>
single chemical compound

> <ChemNote>


> <STRUCTURE_Shown>
tested chemical

> <STRUCTURE_Formula>
C2H2Br4

> <STRUCTURE_MW>
345.6533

> <STRUCTURE_ChemType>
defined organic

> <STRUCTURE_DefinedOrganicForm>
parent

> <STRUCTURE_IUPAC>
1,1,2,2-tetrabromoethane

> <STRUCTURE_SMILES>
BrC(Br)C(Br)Br

> <STRUCTURE_SMILES_Desalt>
BrC(Br)C(Br)Br

> <Substance_modify_yyyymmdd>
20080429

$$$$
