79-36-7
ChemmineR-0915142007XD

  6  5  0  0  0  0  0  0  0  0  1 V2000
    1.3307    0.0000    0.0000 O    0  0  0  0  0  0  0  0  0  0  0  0
    1.9943   -1.1509    0.0000 C    0  0  0  0  0  0  0  0  0  0  0  0
    1.3307   -2.3053    0.0000 C    0  0  0  0  0  0  0  0  0  0  0  0
    1.9943   -3.4563    0.0000 Cl   0  0  0  0  0  0  0  0  0  0  0  0
    0.0000   -2.3053    0.0000 Cl   0  0  0  0  0  0  0  0  0  0  0  0
    3.3250   -1.1509    0.0000 Cl   0  0  0  0  0  0  0  0  0  0  0  0
  1  2  2  0  0  0  0
  2  3  1  0  0  0  0
  2  6  1  0  0  0  0
  3  4  1  0  0  0  0
  3  5  1  0  0  0  0
M  END
> <ID>
3940

> <Formula>
C2HCl3O

> <FW>
147.3877

> <DSSTox_CID>
4965

> <DSSTox_RID>
77600

> <DSSTox_GSID>
24965

> <DSSTox_FileID_Sort>
2283

> <TS_ChemName>
Dichloroacetyl chloride

> <TS_ChemName_Synonyms>


> <TS_CASRN>
79-36-7

> <CASRN_ChemName_Relationship>
primary

> <TS_Description>
single chemical compound

> <ChemNote>


> <STRUCTURE_Shown>
tested chemical

> <STRUCTURE_Formula>
C2HCl3O

> <STRUCTURE_MW>
147.3877

> <STRUCTURE_ChemType>
defined organic

> <STRUCTURE_DefinedOrganicForm>
parent

> <STRUCTURE_IUPAC>
dichloroacetyl chloride

> <STRUCTURE_SMILES>
ClC(Cl)C(Cl)=O

> <STRUCTURE_SMILES_Desalt>
ClC(Cl)C(Cl)=O

> <Substance_modify_yyyymmdd>
20080429

$$$$
