79-41-4
ChemmineR-0915142007XD

  6  5  0  0  0  0  0  0  0  0  1 V2000
    3.3250   -1.1509    0.0000 C   0  0  0  0  0  0  0  0  0  0  0  0
    1.9943   -1.1509    0.0000 C   0  0  0  0  0  0  0  0  0  0  0  0
    1.3307    0.0000    0.0000 C   0  0  0  0  0  0  0  0  0  0  0  0
    1.3307   -2.3053    0.0000 C   0  0  0  0  0  0  0  0  0  0  0  0
    1.9943   -3.4563    0.0000 O   0  0  0  0  0  0  0  0  0  0  0  0
    0.0000   -2.3053    0.0000 O   0  0  0  0  0  0  0  0  0  0  0  0
  1  2  1  0  0  0  0
  2  3  2  0  0  0  0
  2  4  1  0  0  0  0
  4  5  1  0  0  0  0
  4  6  2  0  0  0  0
M  END
> <ID>
4254

> <Formula>
C4H6O2

> <FW>
86.0892

> <DSSTox_CID>
5542

> <DSSTox_RID>
77824

> <DSSTox_GSID>
25542

> <DSSTox_FileID_Sort>
2507

> <TS_ChemName>
Methacrylic acid

> <TS_ChemName_Synonyms>
Methacrylic acid (2-Propenoic acid, 2-methyl-)

> <TS_CASRN>
79-41-4

> <CASRN_ChemName_Relationship>
primary

> <TS_Description>
single chemical compound

> <ChemNote>


> <STRUCTURE_Shown>
tested chemical

> <STRUCTURE_Formula>
C4H6O2

> <STRUCTURE_MW>
86.0892

> <STRUCTURE_ChemType>
defined organic

> <STRUCTURE_DefinedOrganicForm>
parent

> <STRUCTURE_IUPAC>
2-methylprop-2-enoic acid

> <STRUCTURE_SMILES>
C=C(C)C(=O)O

> <STRUCTURE_SMILES_Desalt>
C=C(C)C(=O)O

> <Substance_modify_yyyymmdd>
20080429

$$$$
