79-57-2
ChemmineR-0915142007XD

 35 38  0  0  1  0  0  0  0  0  1 V2000
    6.9050   -3.9837    0.0000 C   0  0  0  0  0  0  0  0  0  0  0  0
    4.6072   -3.9837    0.0000 C   0  0  0  0  0  0  0  0  0  0  0  0
    6.9050   -2.6558    0.0000 C   0  0  0  0  0  0  0  0  0  0  0  0
    9.2260   -3.9837    0.0000 C   0  0  0  0  0  0  0  0  0  0  0  0
    5.7619   -4.6418    0.0000 C   0  0  0  0  0  0  0  0  0  0  0  0
    4.6072   -2.6558    0.0000 C   0  0  0  0  0  0  0  0  0  0  0  0
    8.0713   -4.6418    0.0000 C   0  0  0  0  0  0  0  0  0  0  0  0
    9.2260   -2.6558    0.0000 C   0  0  0  0  0  0  0  0  0  0  0  0
    3.4756   -4.6418    0.0000 C   0  0  0  0  0  0  0  0  0  0  0  0
    3.4756   -1.9976    0.0000 C   0  0  0  0  0  0  0  0  0  0  0  0
    8.0713   -1.9976    0.0000 C   0  0  0  0  0  0  0  0  0  0  0  0
    5.7619   -1.9976    0.0000 C   0  0  0  0  0  0  0  0  0  0  0  0
    2.2978   -3.9837    0.0000 C   0  0  0  0  0  0  0  0  0  0  0  0
    2.2978   -2.6558    0.0000 C   0  0  0  0  0  0  0  0  0  0  0  0
   10.3691   -4.6418    0.0000 C   0  0  0  0  0  0  0  0  0  0  0  0
    8.0713   -0.6582    0.0000 N   0  0  0  0  0  0  0  0  0  0  0  0
    8.0713   -5.9697    0.0000 O   0  0  0  0  0  0  0  0  0  0  0  0
    3.4756   -5.9697    0.0000 O   0  0  0  0  0  0  0  0  0  0  0  0
    1.1547   -4.6418    0.0000 C   0  0  0  0  0  0  0  0  0  0  0  0
    6.9050   -5.3231    0.0000 O   0  0  0  0  0  0  0  0  0  0  0  0
   10.3691   -5.9813    0.0000 O   0  0  0  0  0  0  0  0  0  0  0  0
    5.7619   -5.9697    0.0000 O   0  0  0  0  0  0  0  0  0  0  0  0
   10.3922   -1.9976    0.0000 O   0  0  0  0  0  0  0  0  0  0  0  0
    5.7619   -0.6697    0.0000 O   0  0  0  0  0  0  0  0  0  0  0  0
   11.5469   -3.9837    0.0000 N   0  0  0  0  0  0  0  0  0  0  0  0
    1.1547   -1.9976    0.0000 C   0  0  0  0  0  0  0  0  0  0  0  0
    1.1547   -5.9697    0.0000 O   0  0  0  0  0  0  0  0  0  0  0  0
    0.0000   -2.6558    0.0000 C   0  0  0  0  0  0  0  0  0  0  0  0
    0.0000   -3.9837    0.0000 C   0  0  0  0  0  0  0  0  0  0  0  0
    9.2260    0.0000    0.0000 C   0  0  0  0  0  0  0  0  0  0  0  0
    6.9050    0.0000    0.0000 C   0  0  0  0  0  0  0  0  0  0  0  0
    6.9050   -1.3163    0.0000 H   0  0  0  0  0  0  0  0  0  0  0  0
    4.6072   -1.3279    0.0000 H   0  0  0  0  0  0  0  0  0  0  0  0
    2.8174   -0.8314    0.0000 O   0  0  0  0  0  0  0  0  0  0  0  0
    4.1453   -0.8660    0.0000 C   0  0  0  0  0  0  0  0  0  0  0  0
  1  3  1  0  0  0  0
  1  5  1  0  0  0  0
  1  7  1  0  0  0  0
  1 20  1  6  0  0  0
  2  5  2  0  0  0  0
  2  6  1  0  0  0  0
  2  9  1  0  0  0  0
  3 11  1  0  0  0  0
  3 12  1  0  0  0  0
  3 32  1  6  0  0  0
  4  7  1  0  0  0  0
  4  8  2  0  0  0  0
  4 15  1  0  0  0  0
  5 22  1  0  0  0  0
  6 10  1  0  0  0  0
  6 12  1  0  0  0  0
  6 33  1  6  0  0  0
  7 17  2  0  0  0  0
  8 23  1  0  0  0  0
  8 11  1  0  0  0  0
  9 13  1  0  0  0  0
  9 18  2  0  0  0  0
 10 14  1  0  0  0  0
 10 34  1  1  0  0  0
 10 35  1  6  0  0  0
 11 16  1  6  0  0  0
 12 24  1  6  0  0  0
 13 14  2  0  0  0  0
 13 19  1  0  0  0  0
 14 26  1  0  0  0  0
 15 21  2  0  0  0  0
 15 25  1  0  0  0  0
 16 30  1  0  0  0  0
 16 31  1  0  0  0  0
 19 27  1  0  0  0  0
 19 29  2  0  0  0  0
 26 28  2  0  0  0  0
 28 29  1  0  0  0  0
M  END
> <ID>
6703

> <Formula>
C22H24N2O9

> <FW>
460.434

> <DSSTox_CID>
14260

> <DSSTox_RID>
79133

> <DSSTox_GSID>
34260

> <DSSTox_FileID_Sort>
3815

> <TS_ChemName>
Oxytetracycline

> <TS_ChemName_Synonyms>
Oxytetracycline (2-Naphthacenecarboxamide, 4-(dimethylamino)-1,4,4a,5,5a,6,11,12a-octahydro-3,5,6,10,12,12a-hexahydroxy-6-methyl-1,11-dioxo-, (4S-(4.alpha.,4a.alpha.,5.alpha.,5a.alpha.,6.beta.,12a.alpha.))-)

> <TS_CASRN>
79-57-2

> <CASRN_ChemName_Relationship>
primary

> <TS_Description>
single chemical compound

> <ChemNote>
automers; stereochem

> <STRUCTURE_Shown>
tested chemical

> <STRUCTURE_Formula>
C22H24N2O9

> <STRUCTURE_MW>
460.434

> <STRUCTURE_ChemType>
defined organic

> <STRUCTURE_DefinedOrganicForm>
parent

> <STRUCTURE_IUPAC>
(4S,4aR,5S,5aR,6S,12aS)-4-(dimethylamino)-3,5,6,10,12,12a-hexahydroxy-6-methyl-1,11-dioxo-1,4,4a,5,5a,6,11,12a-octahydrotetracene-2-carboxamide

> <STRUCTURE_SMILES>
NC(=O)C=3C(=O)[C@@]4(O)C(O)=C2C(=O)c1c(O)cccc1[C@@](C)(O)[C@H]2[C@H](O)[C@H]4[C@@H](C=3O)N(C)C

> <STRUCTURE_SMILES_Desalt>
NC(=O)C=3C(=O)[C@@]4(O)C(O)=C2C(=O)c1c(O)cccc1[C@@](C)(O)[C@H]2[C@H](O)[C@H]4[C@@H](C=3O)N(C)C

> <Substance_modify_yyyymmdd>
20080429

$$$$
