79-64-1
ChemmineR-0915142007XD

 28 31  0  0  1  0  0  0  0  0  1 V2000
    3.5577   -3.8230    0.0000 C   0  0  0  0  0  0  0  0  0  0  0  0
    3.5577   -5.1617    0.0000 C   0  0  0  0  0  0  0  0  0  0  0  0
    5.8973   -3.8230    0.0000 C   0  0  0  0  0  0  0  0  0  0  0  0
    7.0671   -1.7487    0.0000 C   0  0  0  0  0  0  0  0  0  0  0  0
    4.7154   -3.1476    0.0000 C   0  0  0  0  0  0  0  0  0  0  0  0
    7.0671   -3.1476    0.0000 C   0  0  0  0  0  0  0  0  0  0  0  0
    8.3696   -1.3628    0.0000 C   0  0  0  0  0  0  0  0  0  0  0  0
    5.8973   -5.1617    0.0000 C   0  0  0  0  0  0  0  0  0  0  0  0
    2.3758   -5.8491    0.0000 C   0  0  0  0  0  0  0  0  0  0  0  0
    4.7154   -5.8491    0.0000 C   0  0  0  0  0  0  0  0  0  0  0  0
    9.5876   -1.3628    0.0000 C   0  0  0  0  0  0  0  0  0  0  0  0
    5.8973   -1.0975    0.0000 C   0  0  0  0  0  0  0  0  0  0  0  0
    4.7154   -1.7487    0.0000 C   0  0  0  0  0  0  0  0  0  0  0  0
    2.3758   -3.1476    0.0000 C   0  0  0  0  0  0  0  0  0  0  0  0
   10.8298   -1.3628    0.0000 C   0  0  0  0  0  0  0  0  0  0  0  0
    8.3696   -3.5456    0.0000 C   0  0  0  0  0  0  0  0  0  0  0  0
    1.1939   -5.1617    0.0000 C   0  0  0  0  0  0  0  0  0  0  0  0
    9.1655   -2.4602    0.0000 C   0  0  0  0  0  0  0  0  0  0  0  0
    0.0000   -5.8611    0.0000 O   0  0  0  0  0  0  0  0  0  0  0  0
    1.1939   -3.8230    0.0000 C   0  0  0  0  0  0  0  0  0  0  0  0
    8.3696    0.0000    0.0000 O   0  0  0  0  0  0  0  0  0  0  0  0
    3.5577   -2.4723    0.0000 C   0  0  0  0  0  0  0  0  0  0  0  0
    7.0671   -0.4100    0.0000 C   0  0  0  0  0  0  0  0  0  0  0  0
   12.0599   -1.3628    0.0000 C   0  0  0  0  0  0  0  0  0  0  0  0
    4.7154   -6.8500    0.0000 C   0  0  0  0  0  0  0  0  0  0  0  0
    5.8973   -2.4964    0.0000 H   0  0  0  0  0  0  0  0  0  0  0  0
    4.7154   -4.4622    0.0000 H   0  0  0  0  0  0  0  0  0  0  0  0
    7.0671   -4.4622    0.0000 H   0  0  0  0  0  0  0  0  0  0  0  0
  1  2  1  0  0  0  0
  1  5  1  0  0  0  0
  1 14  1  0  0  0  0
  1 22  1  1  0  0  0
  2  9  2  0  0  0  0
  2 10  1  0  0  0  0
  3  5  1  0  0  0  0
  3  6  1  0  0  0  0
  3  8  1  0  0  0  0
  3 26  1  1  0  0  0
  4 12  1  0  0  0  0
  4  7  1  0  0  0  0
  4 23  1  1  0  0  0
  4  6  1  0  0  0  0
  5 13  1  0  0  0  0
  5 27  1  6  0  0  0
  6 16  1  0  0  0  0
  6 28  1  6  0  0  0
  7 11  1  0  0  0  0
  7 21  1  1  0  0  0
  7 18  1  0  0  0  0
  8 10  1  0  0  0  0
  9 17  1  0  0  0  0
 10 25  1  6  0  0  0
 11 15  3  0  0  0  0
 12 13  1  0  0  0  0
 14 20  1  0  0  0  0
 15 24  1  0  0  0  0
 16 18  1  0  0  0  0
 17 20  1  0  0  0  0
 17 19  2  0  0  0  0
M  END
> <ID>
16232

> <Formula>
C23H32O2

> <FW>
340.499

> <DSSTox_CID>
31623

> <DSSTox_RID>
97507

> <DSSTox_GSID>
57834

> <DSSTox_FileID_Sort>
8574

> <TS_ChemName>
Dimethisteron

> <TS_ChemName_Synonyms>


> <TS_CASRN>
79-64-1

> <CASRN_ChemName_Relationship>
primary

> <TS_Description>
single chemical compound

> <ChemNote>


> <STRUCTURE_Shown>
tested chemical

> <STRUCTURE_Formula>
C23H32O2

> <STRUCTURE_MW>
340.499

> <STRUCTURE_ChemType>
defined organic

> <STRUCTURE_DefinedOrganicForm>
parent

> <STRUCTURE_IUPAC>
(6S,8R,9S,10R,13S,14S,17S)-17-hydroxy-6,10,13-trimethyl-17-(prop-1-yn-1-yl)-1,2,6,7,8,9,10,11,12,13,14,15,16,17-tetradecahydro-3H-cyclopenta[a]phenanthren-3-one (non-preferred name)

> <STRUCTURE_SMILES>
C[C@H]3C[C@@H]2[C@H](CC[C@@]1(C)[C@H]2CC[C@@]1(O)C#CC)[C@@]4(C)CCC(=O)C=C34

> <STRUCTURE_SMILES_Desalt>
C[C@H]3C[C@@H]2[C@H](CC[C@@]1(C)[C@H]2CC[C@@]1(O)C#CC)[C@@]4(C)CCC(=O)C=C34

> <Substance_modify_yyyymmdd>
20131121

$$$$
