79-69-6
ChemmineR-0915142007XD

 15 15  0  0  0  0  0  0  0  0  1 V2000
    3.4661   -1.9876    0.0000 C   0  0  0  0  0  0  0  0  0  0  0  0
    2.3107   -1.3331    0.0000 C   0  0  0  0  0  0  0  0  0  0  0  0
    4.6134   -1.3331    0.0000 C   0  0  0  0  0  0  0  0  0  0  0  0
    3.4661   -3.3207    0.0000 C   0  0  0  0  0  0  0  0  0  0  0  0
    2.3107   -3.9913    0.0000 C   0  0  0  0  0  0  0  0  0  0  0  0
    5.7688   -1.9876    0.0000 C   0  0  0  0  0  0  0  0  0  0  0  0
    1.1715   -1.9876    0.0000 C   0  0  0  0  0  0  0  0  0  0  0  0
    1.1715   -3.3207    0.0000 C   0  0  0  0  0  0  0  0  0  0  0  0
    6.9080   -1.3331    0.0000 C   0  0  0  0  0  0  0  0  0  0  0  0
    6.9080    0.0000    0.0000 O   0  0  0  0  0  0  0  0  0  0  0  0
    2.9975   -0.1777    0.0000 C   0  0  0  0  0  0  0  0  0  0  0  0
    1.6482   -0.1777    0.0000 C   0  0  0  0  0  0  0  0  0  0  0  0
    4.6134   -3.9913    0.0000 C   0  0  0  0  0  0  0  0  0  0  0  0
    0.0000   -1.3331    0.0000 C   0  0  0  0  0  0  0  0  0  0  0  0
    8.0795   -1.9876    0.0000 C   0  0  0  0  0  0  0  0  0  0  0  0
  1  2  1  0  0  0  0
  1  3  1  0  0  0  0
  1  4  1  0  0  0  0
  2  7  1  0  0  0  0
  2 11  1  0  0  0  0
  2 12  1  0  0  0  0
  3  6  2  0  0  0  0
  4  5  2  0  0  0  0
  4 13  1  0  0  0  0
  5  8  1  0  0  0  0
  6  9  1  0  0  0  0
  7 14  1  0  0  0  0
  7  8  1  0  0  0  0
  9 10  2  0  0  0  0
  9 15  1  0  0  0  0
M  END
> <ID>
12196

> <Formula>
C14H22O

> <FW>
206.3239

> <DSSTox_CID>
27042

> <DSSTox_RID>
82063

> <DSSTox_GSID>
47042

> <DSSTox_FileID_Sort>
6744

> <TS_ChemName>
alpha-Irone

> <TS_ChemName_Synonyms>
Irone

> <TS_CASRN>
79-69-6

> <CASRN_ChemName_Relationship>
primary

> <TS_Description>
mixture or formulation

> <ChemNote>
mixture of isomers, predominately alpha; structure shown alpha; stereochem

> <STRUCTURE_Shown>
representative isomer in mixture

> <STRUCTURE_Formula>
C14H22O

> <STRUCTURE_MW>
206.3239

> <STRUCTURE_ChemType>
defined organic

> <STRUCTURE_DefinedOrganicForm>
parent

> <STRUCTURE_IUPAC>
(3E)-4-(2,5,6,6-tetramethylcyclohex-2-en-1-yl)but-3-en-2-one

> <STRUCTURE_SMILES>
CC1CC=C(C)C(/C=C/C(C)=O)C1(C)C

> <STRUCTURE_SMILES_Desalt>
CC1CC=C(C)C(/C=C/C(C)=O)C1(C)C

> <Substance_modify_yyyymmdd>
20100429

$$$$
