79-74-3
ChemmineR-0915142007XD

 18 18  0  0  0  0  0  0  0  0  1 V2000
    5.7865   -2.0211    0.0000 C   0  0  0  0  0  0  0  0  0  0  0  0
    3.4885   -3.3501    0.0000 C   0  0  0  0  0  0  0  0  0  0  0  0
    3.4885   -2.0027    0.0000 C   0  0  0  0  0  0  0  0  0  0  0  0
    5.7865   -3.3501    0.0000 C   0  0  0  0  0  0  0  0  0  0  0  0
    4.6329   -1.3659    0.0000 C   0  0  0  0  0  0  0  0  0  0  0  0
    4.6329   -4.0238    0.0000 C   0  0  0  0  0  0  0  0  0  0  0  0
    2.3257   -4.0238    0.0000 C   0  0  0  0  0  0  0  0  0  0  0  0
    6.9216   -1.3474    0.0000 C   0  0  0  0  0  0  0  0  0  0  0  0
    4.6329   -0.0461    0.0000 O   0  0  0  0  0  0  0  0  0  0  0  0
    4.6329   -5.3251    0.0000 O   0  0  0  0  0  0  0  0  0  0  0  0
    1.1721   -3.3316    0.0000 C   0  0  0  0  0  0  0  0  0  0  0  0
    8.0753   -1.9842    0.0000 C   0  0  0  0  0  0  0  0  0  0  0  0
    2.3257   -5.3527    0.0000 C   0  0  0  0  0  0  0  0  0  0  0  0
    6.9216    0.0000    0.0000 C   0  0  0  0  0  0  0  0  0  0  0  0
    0.0000   -4.0053    0.0000 C   0  0  0  0  0  0  0  0  0  0  0  0
    9.2289   -1.3013    0.0000 C   0  0  0  0  0  0  0  0  0  0  0  0
    7.5769   -2.4826    0.0000 C   0  0  0  0  0  0  0  0  0  0  0  0
    1.6520   -2.8702    0.0000 C   0  0  0  0  0  0  0  0  0  0  0  0
  1  4  2  0  0  0  0
  1  5  1  0  0  0  0
  1  8  1  0  0  0  0
  2  3  1  0  0  0  0
  2  7  1  0  0  0  0
  2  6  2  0  0  0  0
  3  5  2  0  0  0  0
  4  6  1  0  0  0  0
  5  9  1  0  0  0  0
  6 10  1  0  0  0  0
  7 11  1  0  0  0  0
  7 13  1  0  0  0  0
  7 18  1  0  0  0  0
  8 12  1  0  0  0  0
  8 14  1  0  0  0  0
  8 17  1  0  0  0  0
 11 15  1  0  0  0  0
 12 16  1  0  0  0  0
M  END
> <ID>
10639

> <Formula>
C16H26O2

> <FW>
250.3764

> <DSSTox_CID>
24992

> <DSSTox_RID>
80637

> <DSSTox_GSID>
44992

> <DSSTox_FileID_Sort>
5319

> <TS_ChemName>
2,5-Bis(2-methylbutan-2-yl)benzene-1,4-diol

> <TS_ChemName_Synonyms>
2,5-Bis(2-methylbutan-2-yl)benzene-1,4-diol (1,4-Benzenediol, 2,5-bis(1,1-dimethylpropyl)-)

> <TS_CASRN>
79-74-3

> <CASRN_ChemName_Relationship>
primary

> <TS_Description>
single chemical compound

> <ChemNote>


> <STRUCTURE_Shown>
tested chemical

> <STRUCTURE_Formula>
C16H26O2

> <STRUCTURE_MW>
250.3764

> <STRUCTURE_ChemType>
defined organic

> <STRUCTURE_DefinedOrganicForm>
parent

> <STRUCTURE_IUPAC>
2,5-bis(2-methylbutan-2-yl)benzene-1,4-diol

> <STRUCTURE_SMILES>
Oc1cc(c(O)cc1C(C)(C)CC)C(C)(C)CC

> <STRUCTURE_SMILES_Desalt>
Oc1cc(c(O)cc1C(C)(C)CC)C(C)(C)CC

> <Substance_modify_yyyymmdd>
20091116

$$$$
