79-78-7
ChemmineR-0915142007XD

 17 17  0  0  0  0  0  0  0  0  1 V2000
    3.4604   -1.3158    0.0000 C   0  0  0  0  0  0  0  0  0  0  0  0
    4.6207   -1.9892    0.0000 C   0  0  0  0  0  0  0  0  0  0  0  0
    2.3104   -1.9892    0.0000 C   0  0  0  0  0  0  0  0  0  0  0  0
    5.7604   -1.3158    0.0000 C   0  0  0  0  0  0  0  0  0  0  0  0
    1.1500   -1.3158    0.0000 C   0  0  0  0  0  0  0  0  0  0  0  0
    2.3104   -3.3257    0.0000 C   0  0  0  0  0  0  0  0  0  0  0  0
    6.9104   -1.9892    0.0000 C   0  0  0  0  0  0  0  0  0  0  0  0
    5.7604    0.0000    0.0000 O   0  0  0  0  0  0  0  0  0  0  0  0
    0.4766   -0.1761    0.0000 C   0  0  0  0  0  0  0  0  0  0  0  0
    1.8131   -0.1761    0.0000 C   0  0  0  0  0  0  0  0  0  0  0  0
    0.0000   -1.9892    0.0000 C   0  0  0  0  0  0  0  0  0  0  0  0
    3.4604   -3.9784    0.0000 C   0  0  0  0  0  0  0  0  0  0  0  0
    1.1500   -3.9784    0.0000 C   0  0  0  0  0  0  0  0  0  0  0  0
    8.0500   -1.3158    0.0000 C   0  0  0  0  0  0  0  0  0  0  0  0
    0.0000   -3.3257    0.0000 C   0  0  0  0  0  0  0  0  0  0  0  0
    9.2104   -1.9892    0.0000 C   0  0  0  0  0  0  0  0  0  0  0  0
   10.3604   -1.3158    0.0000 C   0  0  0  0  0  0  0  0  0  0  0  0
  1  2  2  0  0  0  0
  1  3  1  0  0  0  0
  2  4  1  0  0  0  0
  3  5  1  0  0  0  0
  3  6  1  0  0  0  0
  4  7  1  0  0  0  0
  4  8  2  0  0  0  0
  5  9  1  0  0  0  0
  5 10  1  0  0  0  0
  5 11  1  0  0  0  0
  6 12  1  0  0  0  0
  6 13  2  0  0  0  0
  7 14  1  0  0  0  0
 11 15  1  0  0  0  0
 13 15  1  0  0  0  0
 14 16  1  0  0  0  0
 16 17  2  0  0  0  0
M  END
> <ID>
12713

> <Formula>
C16H24O

> <FW>
232.3612

> <DSSTox_CID>
27591

> <DSSTox_RID>
82438

> <DSSTox_GSID>
47591

> <DSSTox_FileID_Sort>
7119

> <TS_ChemName>
Allyl Ionone

> <TS_ChemName_Synonyms>


> <TS_CASRN>
79-78-7

> <CASRN_ChemName_Relationship>
primary

> <TS_Description>
single chemical compound

> <ChemNote>
stereochem

> <STRUCTURE_Shown>
tested chemical

> <STRUCTURE_Formula>
C16H24O

> <STRUCTURE_MW>
232.3612

> <STRUCTURE_ChemType>
defined organic

> <STRUCTURE_DefinedOrganicForm>
parent

> <STRUCTURE_IUPAC>
(1E)-1-(2,6,6-trimethylcyclohex-2-en-1-yl)hepta-1,6-dien-3-one

> <STRUCTURE_SMILES>
CC1(C)CCC=C(C)C1/C=C/C(=O)CCC=C

> <STRUCTURE_SMILES_Desalt>
CC1(C)CCC=C(C)C1/C=C/C(=O)CCC=C

> <Substance_modify_yyyymmdd>
20100930

$$$$
