79-94-7
ChemmineR-0915142007XD

 21 22  0  0  0  0  0  0  0  0  1 V2000
    2.3028   -5.3224    0.0000 C    0  0  0  0  0  0  0  0  0  0  0  0
    2.3028   -6.6492    0.0000 C    0  0  0  0  0  0  0  0  0  0  0  0
    0.9760   -5.3224    0.0000 C    0  0  0  0  0  0  0  0  0  0  0  0
    2.3028   -3.9880    0.0000 C    0  0  0  0  0  0  0  0  0  0  0  0
    1.1514   -3.3246    0.0000 C    0  0  0  0  0  0  0  0  0  0  0  0
    1.1514   -1.9978    0.0000 C    0  0  0  0  0  0  0  0  0  0  0  0
    0.0000   -1.3268    0.0000 Br   0  0  0  0  0  0  0  0  0  0  0  0
    2.3028   -1.3268    0.0000 C    0  0  0  0  0  0  0  0  0  0  0  0
    2.3028    0.0000    0.0000 O    0  0  0  0  0  0  0  0  0  0  0  0
    3.4542   -1.9978    0.0000 C    0  0  0  0  0  0  0  0  0  0  0  0
    4.6057   -1.3268    0.0000 Br   0  0  0  0  0  0  0  0  0  0  0  0
    3.4542   -3.3246    0.0000 C    0  0  0  0  0  0  0  0  0  0  0  0
    3.6372   -5.3224    0.0000 C    0  0  0  0  0  0  0  0  0  0  0  0
    4.3006   -4.1710    0.0000 C    0  0  0  0  0  0  0  0  0  0  0  0
    5.6274   -4.1710    0.0000 C    0  0  0  0  0  0  0  0  0  0  0  0
    6.2985   -3.0196    0.0000 Br   0  0  0  0  0  0  0  0  0  0  0  0
    6.2985   -5.3224    0.0000 C    0  0  0  0  0  0  0  0  0  0  0  0
    7.6253   -5.3224    0.0000 O    0  0  0  0  0  0  0  0  0  0  0  0
    5.6274   -6.4738    0.0000 C    0  0  0  0  0  0  0  0  0  0  0  0
    6.2985   -7.6253    0.0000 Br   0  0  0  0  0  0  0  0  0  0  0  0
    4.3006   -6.4738    0.0000 C    0  0  0  0  0  0  0  0  0  0  0  0
  1  2  1  0  0  0  0
  1  3  1  0  0  0  0
  1  4  1  0  0  0  0
  1 13  1  0  0  0  0
  4  5  2  0  0  0  0
  4 12  1  0  0  0  0
  5  6  1  0  0  0  0
  6  7  1  0  0  0  0
  6  8  2  0  0  0  0
  8  9  1  0  0  0  0
  8 10  1  0  0  0  0
 10 11  1  0  0  0  0
 10 12  2  0  0  0  0
 13 14  2  0  0  0  0
 13 21  1  0  0  0  0
 14 15  1  0  0  0  0
 15 16  1  0  0  0  0
 15 17  2  0  0  0  0
 17 18  1  0  0  0  0
 17 19  1  0  0  0  0
 19 20  1  0  0  0  0
 19 21  2  0  0  0  0
M  END
> <ID>
4531

> <Formula>
C15H12Br4O2

> <FW>
543.8706

> <DSSTox_CID>
6081

> <DSSTox_RID>
78008

> <DSSTox_GSID>
26081

> <DSSTox_FileID_Sort>
2691

> <TS_ChemName>
3,3',5,5'-Tetrabromobisphenol A

> <TS_ChemName_Synonyms>
3,3’,5,5’-Tetrabromobisphenol A (Tetrabromobisphenol A) (Phenol, 4,4'-(1-methylethylidene)bis[2,6-dibromo-) (TBBPA)

> <TS_CASRN>
79-94-7

> <CASRN_ChemName_Relationship>
primary

> <TS_Description>
single chemical compound

> <ChemNote>


> <STRUCTURE_Shown>
tested chemical

> <STRUCTURE_Formula>
C15H12Br4O2

> <STRUCTURE_MW>
543.8706

> <STRUCTURE_ChemType>
defined organic

> <STRUCTURE_DefinedOrganicForm>
parent

> <STRUCTURE_IUPAC>
4,4'-propane-2,2-diylbis(2,6-dibromophenol)

> <STRUCTURE_SMILES>
Brc1cc(cc(Br)c1O)C(C)(C)c2cc(Br)c(O)c(Br)c2

> <STRUCTURE_SMILES_Desalt>
Brc1cc(cc(Br)c1O)C(C)(C)c2cc(Br)c(O)c(Br)c2

> <Substance_modify_yyyymmdd>
20080429

$$$$
