79-95-8
ChemmineR-0915142007XD

 21 22  0  0  0  0  0  0  0  0  1 V2000
    0.0000   -1.3268    0.0000 Cl   0  0  0  0  0  0  0  0  0  0  0  0
    1.1514   -1.9978    0.0000 C    0  0  0  0  0  0  0  0  0  0  0  0
    2.3028   -1.3268    0.0000 C    0  0  0  0  0  0  0  0  0  0  0  0
    2.3028    0.0000    0.0000 O    0  0  0  0  0  0  0  0  0  0  0  0
    3.4542   -1.9978    0.0000 C    0  0  0  0  0  0  0  0  0  0  0  0
    4.6057   -1.3268    0.0000 Cl   0  0  0  0  0  0  0  0  0  0  0  0
    3.4542   -3.3246    0.0000 C    0  0  0  0  0  0  0  0  0  0  0  0
    1.1514   -3.3246    0.0000 C    0  0  0  0  0  0  0  0  0  0  0  0
    2.3028   -3.9880    0.0000 C    0  0  0  0  0  0  0  0  0  0  0  0
    2.3028   -5.3224    0.0000 C    0  0  0  0  0  0  0  0  0  0  0  0
    3.6372   -5.3224    0.0000 C    0  0  0  0  0  0  0  0  0  0  0  0
    4.3006   -4.1710    0.0000 C    0  0  0  0  0  0  0  0  0  0  0  0
    5.6274   -4.1710    0.0000 C    0  0  0  0  0  0  0  0  0  0  0  0
    6.2985   -3.0196    0.0000 Cl   0  0  0  0  0  0  0  0  0  0  0  0
    6.2985   -5.3224    0.0000 C    0  0  0  0  0  0  0  0  0  0  0  0
    7.6253   -5.3224    0.0000 O    0  0  0  0  0  0  0  0  0  0  0  0
    4.3006   -6.4738    0.0000 C    0  0  0  0  0  0  0  0  0  0  0  0
    5.6274   -6.4738    0.0000 C    0  0  0  0  0  0  0  0  0  0  0  0
    6.2985   -7.6253    0.0000 Cl   0  0  0  0  0  0  0  0  0  0  0  0
    2.3028   -6.6492    0.0000 C    0  0  0  0  0  0  0  0  0  0  0  0
    0.9760   -5.3224    0.0000 C    0  0  0  0  0  0  0  0  0  0  0  0
  1  2  1  0  0  0  0
  2  3  2  0  0  0  0
  2  8  1  0  0  0  0
  3  4  1  0  0  0  0
  3  5  1  0  0  0  0
  5  6  1  0  0  0  0
  5  7  2  0  0  0  0
  7  9  1  0  0  0  0
  8  9  2  0  0  0  0
  9 10  1  0  0  0  0
 10 11  1  0  0  0  0
 10 20  1  0  0  0  0
 10 21  1  0  0  0  0
 11 12  2  0  0  0  0
 11 17  1  0  0  0  0
 12 13  1  0  0  0  0
 13 14  1  0  0  0  0
 13 15  2  0  0  0  0
 15 16  1  0  0  0  0
 15 18  1  0  0  0  0
 17 18  2  0  0  0  0
 18 19  1  0  0  0  0
M  END
> <ID>
1677

> <Formula>
C15H12Cl4O2

> <FW>
366.0666

> <DSSTox_CID>
1770

> <DSSTox_RID>
76316

> <DSSTox_GSID>
21770

> <DSSTox_FileID_Sort>
1000

> <TS_ChemName>
2,2',6,6'-Tetrachlorobisphenol A

> <TS_ChemName_Synonyms>
2,2',6,6'-Tetrachlorobisphenol A  (4,4'-isopropylidenebis(2,6-dichlorophenol))

> <TS_CASRN>
79-95-8

> <CASRN_ChemName_Relationship>
primary

> <TS_Description>
single chemical compound

> <ChemNote>


> <STRUCTURE_Shown>
tested chemical

> <STRUCTURE_Formula>
C15H12Cl4O2

> <STRUCTURE_MW>
366.0666

> <STRUCTURE_ChemType>
defined organic

> <STRUCTURE_DefinedOrganicForm>
parent

> <STRUCTURE_IUPAC>
4,4'-propane-2,2-diylbis(2,6-dichlorophenol)

> <STRUCTURE_SMILES>
Clc1cc(cc(Cl)c1O)C(C)(C)c2cc(Cl)c(O)c(Cl)c2

> <STRUCTURE_SMILES_Desalt>
Clc1cc(cc(Cl)c1O)C(C)(C)c2cc(Cl)c(O)c(Cl)c2

> <Substance_modify_yyyymmdd>
20080429

$$$$
