79069-94-6
ChemmineR-0915142007XD

 20 22  0  0  0  0  0  0  0  0  1 V2000
    9.0614   -0.7532    0.0000 C   0  0  0  0  0  0  0  0  0  0  0  0
    7.9772    0.0000    0.0000 S   0  0  0  0  0  0  0  0  0  0  0  0
    8.6392   -2.0542    0.0000 C   0  0  0  0  0  0  0  0  0  0  0  0
    6.9273   -0.7532    0.0000 C   0  0  0  0  0  0  0  0  0  0  0  0
    7.3039   -2.0542    0.0000 N   0  0  0  0  0  0  0  0  0  0  0  0
    9.4266   -3.0813    0.0000 C   0  0  0  0  0  0  0  0  0  0  0  0
    8.7533   -4.2454    0.0000 C   0  0  0  0  0  0  0  0  0  0  0  0
   10.7276   -3.0813    0.0000 C   0  0  0  0  0  0  0  0  0  0  0  0
    9.4266   -5.3866    0.0000 C   0  0  0  0  0  0  0  0  0  0  0  0
   11.4124   -4.2454    0.0000 C   0  0  0  0  0  0  0  0  0  0  0  0
   10.7276   -5.3866    0.0000 C   0  0  0  0  0  0  0  0  0  0  0  0
    5.7404   -0.1484    0.0000 N   0  0  0  0  0  0  0  0  0  0  0  0
    4.5992   -0.8331    0.0000 C   0  0  0  0  0  0  0  0  0  0  0  0
    3.4579   -0.1484    0.0000 C   0  0  0  0  0  0  0  0  0  0  0  0
    2.3281   -0.8331    0.0000 C   0  0  0  0  0  0  0  0  0  0  0  0
    1.1412   -0.1484    0.0000 C   0  0  0  0  0  0  0  0  0  0  0  0
    2.3281   -2.1683    0.0000 C   0  0  0  0  0  0  0  0  0  0  0  0
    0.0000   -0.8331    0.0000 C   0  0  0  0  0  0  0  0  0  0  0  0
    1.1412   -2.8074    0.0000 C   0  0  0  0  0  0  0  0  0  0  0  0
    0.0000   -2.1683    0.0000 C   0  0  0  0  0  0  0  0  0  0  0  0
  1  2  1  0  0  0  0
  1  3  2  0  0  0  0
  2  4  1  0  0  0  0
  3  5  1  0  0  0  0
  3  6  1  0  0  0  0
  4  5  2  0  0  0  0
  4 12  1  0  0  0  0
  6  7  1  0  0  0  0
  6  8  2  0  0  0  0
  7  9  2  0  0  0  0
  8 10  1  0  0  0  0
  9 11  1  0  0  0  0
 10 11  2  0  0  0  0
 12 13  1  0  0  0  0
 13 14  1  0  0  0  0
 14 15  1  0  0  0  0
 15 16  1  0  0  0  0
 15 17  2  0  0  0  0
 16 18  2  0  0  0  0
 17 19  1  0  0  0  0
 18 20  1  0  0  0  0
 19 20  2  0  0  0  0
M  END
> <ID>
13688

> <Formula>
C17H16N2S

> <FW>
280.3873

> <DSSTox_CID>
28621

> <DSSTox_RID>
82891

> <DSSTox_GSID>
48695

> <DSSTox_FileID_Sort>
7568

> <TS_ChemName>
Fanetizole

> <TS_ChemName_Synonyms>


> <TS_CASRN>
79069-94-6

> <CASRN_ChemName_Relationship>
primary

> <TS_Description>
single chemical compound

> <ChemNote>


> <STRUCTURE_Shown>
tested chemical

> <STRUCTURE_Formula>
C17H16N2S

> <STRUCTURE_MW>
280.3873

> <STRUCTURE_ChemType>
defined organic

> <STRUCTURE_DefinedOrganicForm>
parent

> <STRUCTURE_IUPAC>
4-phenyl-N-(2-phenylethyl)-1,3-thiazol-2-amine

> <STRUCTURE_SMILES>
C(CNc1nc(cs1)c2ccccc2)c3ccccc3

> <STRUCTURE_SMILES_Desalt>
C(CNc1nc(cs1)c2ccccc2)c3ccccc3

> <Substance_modify_yyyymmdd>
20111204

$$$$
