79094-20-5
ChemmineR-0915142007XD

 23 24  0  0  0  0  0  0  0  0  1 V2000
   14.5772   -3.8047    0.0000 O    0  0  0  0  0  0  0  0  0  0  0  0
   13.2507   -3.8047    0.0000 C    0  0  0  0  0  0  0  0  0  0  0  0
   12.5802   -4.9563    0.0000 O    0  0  0  0  0  0  0  0  0  0  0  0
   12.5802   -2.6676    0.0000 C    0  0  0  0  0  0  0  0  0  0  0  0
   11.2536   -2.6676    0.0000 C    0  0  0  0  0  0  0  0  0  0  0  0
   10.5831   -3.8047    0.0000 C    0  0  0  0  0  0  0  0  0  0  0  0
    9.2565   -3.8047    0.0000 C    0  0  0  0  0  0  0  0  0  0  0  0
    8.6006   -2.6676    0.0000 C    0  0  0  0  0  0  0  0  0  0  0  0
    7.2595   -2.6676    0.0000 C    0  0  0  0  0  0  0  0  0  0  0  0
    6.6035   -1.5015    0.0000 C    0  0  0  0  0  0  0  0  0  0  0  0
    5.2770   -1.5015    0.0000 N    0  0  0  0  0  0  0  0  0  0  0  0
    4.6064   -2.6676    0.0000 S    0  0  0  0  0  0  0  0  0  0  0  0
    3.9359   -3.8047    0.0000 O    0  0  0  0  0  0  0  0  0  0  0  0
    5.7580   -3.3236    0.0000 O    0  0  0  0  0  0  0  0  0  0  0  0
    3.4548   -1.9825    0.0000 C    0  0  0  0  0  0  0  0  0  0  0  0
    2.2886   -2.6676    0.0000 C    0  0  0  0  0  0  0  0  0  0  0  0
    1.1516   -1.9825    0.0000 C    0  0  0  0  0  0  0  0  0  0  0  0
    1.1516   -0.6560    0.0000 C    0  0  0  0  0  0  0  0  0  0  0  0
    0.0000    0.0000    0.0000 Cl   0  0  0  0  0  0  0  0  0  0  0  0
    2.2886    0.0000    0.0000 C    0  0  0  0  0  0  0  0  0  0  0  0
    3.4548   -0.6560    0.0000 C    0  0  0  0  0  0  0  0  0  0  0  0
    9.2565   -1.5015    0.0000 C    0  0  0  0  0  0  0  0  0  0  0  0
   10.5831   -1.5015    0.0000 C    0  0  0  0  0  0  0  0  0  0  0  0
  1  2  1  0  0  0  0
  2  3  2  0  0  0  0
  2  4  1  0  0  0  0
  4  5  1  0  0  0  0
  5  6  2  0  0  0  0
  5 23  1  0  0  0  0
  6  7  1  0  0  0  0
  7  8  2  0  0  0  0
  8  9  1  0  0  0  0
  8 22  1  0  0  0  0
  9 10  1  0  0  0  0
 10 11  1  0  0  0  0
 11 12  1  0  0  0  0
 12 13  2  0  0  0  0
 12 14  2  0  0  0  0
 12 15  1  0  0  0  0
 15 16  2  0  0  0  0
 15 21  1  0  0  0  0
 16 17  1  0  0  0  0
 17 18  2  0  0  0  0
 18 19  1  0  0  0  0
 18 20  1  0  0  0  0
 20 21  2  0  0  0  0
 22 23  2  0  0  0  0
M  END
> <ID>
11736

> <Formula>
C16H16ClNO4S

> <FW>
353.8205

> <DSSTox_CID>
26501

> <DSSTox_RID>
81670

> <DSSTox_GSID>
46501

> <DSSTox_FileID_Sort>
6351

> <TS_ChemName>
Daltroban

> <TS_ChemName_Synonyms>


> <TS_CASRN>
79094-20-5

> <CASRN_ChemName_Relationship>
primary

> <TS_Description>
single chemical compound

> <ChemNote>


> <STRUCTURE_Shown>
tested chemical

> <STRUCTURE_Formula>
C16H16ClNO4S

> <STRUCTURE_MW>
353.8205

> <STRUCTURE_ChemType>
defined organic

> <STRUCTURE_DefinedOrganicForm>
parent

> <STRUCTURE_IUPAC>
[4-(2-{[(4-chlorophenyl)sulfonyl]amino}ethyl)phenyl]acetic acid

> <STRUCTURE_SMILES>
O=S(=O)(NCCc1ccc(CC(=O)O)cc1)c2ccc(Cl)cc2

> <STRUCTURE_SMILES_Desalt>
O=S(=O)(NCCc1ccc(CC(=O)O)cc1)c2ccc(Cl)cc2

> <Substance_modify_yyyymmdd>
20110812

$$$$
