791-28-6
ChemmineR-0915142007XD

 20 22  0  0  0  0  0  0  0  0  1 V2000
    5.1422   -5.9886    0.0000 C   0  0  0  0  0  0  0  0  0  0  0  0
    5.1422   -7.3220    0.0000 C   0  0  0  0  0  0  0  0  0  0  0  0
    3.9924   -7.9847    0.0000 C   0  0  0  0  0  0  0  0  0  0  0  0
    2.8426   -7.3220    0.0000 C   0  0  0  0  0  0  0  0  0  0  0  0
    2.8426   -5.9886    0.0000 C   0  0  0  0  0  0  0  0  0  0  0  0
    3.9924   -5.3258    0.0000 C   0  0  0  0  0  0  0  0  0  0  0  0
    3.9924   -3.9924    0.0000 P   0  0  0  0  0  0  0  0  0  0  0  0
    5.3258   -3.9924    0.0000 O   0  0  0  0  0  0  0  0  0  0  0  0
    2.6589   -3.9924    0.0000 C   0  0  0  0  0  0  0  0  0  0  0  0
    1.9962   -5.1422    0.0000 C   0  0  0  0  0  0  0  0  0  0  0  0
    0.6627   -5.1422    0.0000 C   0  0  0  0  0  0  0  0  0  0  0  0
    0.0000   -3.9924    0.0000 C   0  0  0  0  0  0  0  0  0  0  0  0
    0.6627   -2.8426    0.0000 C   0  0  0  0  0  0  0  0  0  0  0  0
    1.9962   -2.8426    0.0000 C   0  0  0  0  0  0  0  0  0  0  0  0
    3.9924   -2.6589    0.0000 C   0  0  0  0  0  0  0  0  0  0  0  0
    2.8426   -1.9962    0.0000 C   0  0  0  0  0  0  0  0  0  0  0  0
    2.8426   -0.6627    0.0000 C   0  0  0  0  0  0  0  0  0  0  0  0
    3.9924    0.0000    0.0000 C   0  0  0  0  0  0  0  0  0  0  0  0
    5.1422   -0.6627    0.0000 C   0  0  0  0  0  0  0  0  0  0  0  0
    5.1422   -1.9962    0.0000 C   0  0  0  0  0  0  0  0  0  0  0  0
  1  2  2  0  0  0  0
  1  6  1  0  0  0  0
  2  3  1  0  0  0  0
  3  4  2  0  0  0  0
  4  5  1  0  0  0  0
  5  6  2  0  0  0  0
  6  7  1  0  0  0  0
  7  8  2  0  0  0  0
  7  9  1  0  0  0  0
  7 15  1  0  0  0  0
  9 10  2  0  0  0  0
  9 14  1  0  0  0  0
 10 11  1  0  0  0  0
 11 12  2  0  0  0  0
 12 13  1  0  0  0  0
 13 14  2  0  0  0  0
 15 16  2  0  0  0  0
 15 20  1  0  0  0  0
 16 17  1  0  0  0  0
 17 18  2  0  0  0  0
 18 19  1  0  0  0  0
 19 20  2  0  0  0  0
M  END
> <ID>
1962

> <Formula>
C18H15OP

> <FW>
278.2849

> <DSSTox_CID>
2121

> <DSSTox_RID>
76495

> <DSSTox_GSID>
22121

> <DSSTox_FileID_Sort>
1179

> <TS_ChemName>
Triphenylphosphine oxide

> <TS_ChemName_Synonyms>


> <TS_CASRN>
791-28-6

> <CASRN_ChemName_Relationship>
primary

> <TS_Description>
single chemical compound

> <ChemNote>


> <STRUCTURE_Shown>
tested chemical

> <STRUCTURE_Formula>
C18H15OP

> <STRUCTURE_MW>
278.2849

> <STRUCTURE_ChemType>
defined organic

> <STRUCTURE_DefinedOrganicForm>
parent

> <STRUCTURE_IUPAC>
triphenylphosphane oxide

> <STRUCTURE_SMILES>
O=P(c1ccccc1)(c2ccccc2)c3ccccc3

> <STRUCTURE_SMILES_Desalt>
O=P(c1ccccc1)(c2ccccc2)c3ccccc3

> <Substance_modify_yyyymmdd>
20080429

$$$$
