792188-85-3
ChemmineR-0915142007XD

 21 19  0  0  0  0  0  0  0  0  2 V2000
    9.4246   -0.6675    0.0000 O   0  0  0  0  0  0  0  0  0  0  0  0
    8.7571   -1.8155    0.0000 S   0  0  0  0  0  0  0  0  0  0  0  0
    8.0763   -2.9502    0.0000 O   0  0  0  0  0  0  0  0  0  0  0  0
    7.5957   -1.1614    0.0000 C   0  0  0  0  0  0  0  0  0  0  0  0
    6.9149   -2.2961    0.0000 F   0  0  0  0  0  0  0  0  0  0  0  0
    8.2499    0.0000    0.0000 F   0  0  0  0  0  0  0  0  0  0  0  0
    6.4344   -0.4806    0.0000 F   0  0  0  0  0  0  0  0  0  0  0  0
    9.9052   -2.4696    0.0000 N   0  5  0  0  0  0  0  0  0  0  0  0
   10.3590   -0.6675    0.0000 O   0  0  0  0  0  0  0  0  0  0  0  0
   11.0265   -1.8155    0.0000 S   0  0  0  0  0  0  0  0  0  0  0  0
   11.7340   -2.9502    0.0000 O   0  0  0  0  0  0  0  0  0  0  0  0
   12.2146   -1.1614    0.0000 C   0  0  0  0  0  0  0  0  0  0  0  0
   11.5338    0.0000    0.0000 F   0  0  0  0  0  0  0  0  0  0  0  0
   12.8554   -2.2961    0.0000 F   0  0  0  0  0  0  0  0  0  0  0  0
   13.3493   -0.4806    0.0000 F   0  0  0  0  0  0  0  0  0  0  0  0
    2.3094   -1.2548    0.0000 C   0  0  0  0  0  0  0  0  0  0  0  0
    2.3094   -2.5898    0.0000 S   0  3  0  0  0  0  0  0  0  0  0  0
    3.4708   -3.2572    0.0000 C   0  0  0  0  0  0  0  0  0  0  0  0
    4.6189   -2.5898    0.0000 C   0  0  0  0  0  0  0  0  0  0  0  0
    1.1614   -3.2572    0.0000 C   0  0  0  0  0  0  0  0  0  0  0  0
    0.0000   -2.5898    0.0000 C   0  0  0  0  0  0  0  0  0  0  0  0
  1  2  2  0  0  0  0
  2  3  2  0  0  0  0
  2  4  1  0  0  0  0
  2  8  1  0  0  0  0
  4  5  1  0  0  0  0
  4  6  1  0  0  0  0
  4  7  1  0  0  0  0
  8 10  1  0  0  0  0
  9 10  2  0  0  0  0
 10 11  2  0  0  0  0
 10 12  1  0  0  0  0
 12 13  1  0  0  0  0
 12 14  1  0  0  0  0
 12 15  1  0  0  0  0
 16 17  1  0  0  0  0
 17 18  1  0  0  0  0
 17 20  1  0  0  0  0
 18 19  1  0  0  0  0
 20 21  1  0  0  0  0
M  END
> <ID>
13029

> <Formula>
C7H13F6NO4S3

> <FW>
385.3678 (280.1467+105.2212)

> <DSSTox_CID>
27930

> <DSSTox_RID>
82683

> <DSSTox_GSID>
47954

> <DSSTox_FileID_Sort>
7360

> <TS_ChemName>
Diethylmethylsulfonium bis(trifluoromethylsulfonyl)imide

> <TS_ChemName_Synonyms>


> <TS_CASRN>
792188-85-3

> <CASRN_ChemName_Relationship>
primary

> <TS_Description>
single chemical compound

> <ChemNote>
sulfonium; parent [44388-12-7]

> <STRUCTURE_Shown>
tested chemical

> <STRUCTURE_Formula>
C7H13F6NO4S3

> <STRUCTURE_MW>
385.3678

> <STRUCTURE_ChemType>
defined organic

> <STRUCTURE_DefinedOrganicForm>
salt

> <STRUCTURE_IUPAC>
diethyl(methyl)sulfonium bis[(trifluoromethyl)sulfonyl]azanide

> <STRUCTURE_SMILES>
FC(F)(F)S(=O)(=O)[N-]S(=O)(=O)C(F)(F)F.CC[S+](C)CC

> <STRUCTURE_SMILES_Desalt>
O=S(=O)(NS(=O)(=O)C(F)(F)F)C(F)(F)F

> <Substance_modify_yyyymmdd>
20110418

$$$$
