79278-88-9
ChemmineR-0915142007XD

 25 26  0  0  0  0  0  0  0  0  1 V2000
    4.6112   -1.9909    0.0000 C    0  0  0  0  0  0  0  0  0  0  0  0
    5.7672   -2.6588    0.0000 C    0  0  0  0  0  0  0  0  0  0  0  0
    6.9233   -1.9909    0.0000 C    0  0  0  0  0  0  0  0  0  0  0  0
    4.6112   -0.6551    0.0000 O    0  0  0  0  0  0  0  0  0  0  0  0
    3.4552   -2.6588    0.0000 N    0  0  0  0  0  0  0  0  0  0  0  0
    0.0000   -1.9909    0.0000 C    0  0  0  0  0  0  0  0  0  0  0  0
    0.0000   -0.6551    0.0000 C    0  0  0  0  0  0  0  0  0  0  0  0
    1.1560    0.0000    0.0000 C    0  0  0  0  0  0  0  0  0  0  0  0
    2.3120   -0.6551    0.0000 C    0  0  0  0  0  0  0  0  0  0  0  0
    2.3120   -1.9909    0.0000 C    0  0  0  0  0  0  0  0  0  0  0  0
    1.1560   -2.6588    0.0000 C    0  0  0  0  0  0  0  0  0  0  0  0
    3.4552   -6.6407    0.0000 N    0  0  0  0  0  0  0  0  0  0  0  0
    2.3120   -5.9728    0.0000 C    0  0  0  0  0  0  0  0  0  0  0  0
    4.6112   -5.9728    0.0000 C    0  0  0  0  0  0  0  0  0  0  0  0
    2.3120   -4.6498    0.0000 C    0  0  0  0  0  0  0  0  0  0  0  0
    4.6112   -4.6498    0.0000 C    0  0  0  0  0  0  0  0  0  0  0  0
    3.4552   -3.9818    0.0000 C    0  0  0  0  0  0  0  0  0  0  0  0
    3.4552   -7.9765    0.0000 C    0  0  0  0  0  0  0  0  0  0  0  0
    4.6112   -8.6316    0.0000 C    0  0  0  0  0  0  0  0  0  0  0  0
    5.6902  -10.7510    0.0000 S    0  0  0  0  0  0  0  0  0  0  0  0
    5.2663  -12.0097    0.0000 C    0  0  0  0  0  0  0  0  0  0  0  0
    4.6112   -9.9674    0.0000 C    0  0  0  0  0  0  0  0  0  0  0  0
    3.5451  -10.7510    0.0000 C    0  0  0  0  0  0  0  0  0  0  0  0
    3.9433  -12.0097    0.0000 C    0  0  0  0  0  0  0  0  0  0  0  0
    3.2625  -12.8446    0.0000 Cl   0  0  0  0  0  0  0  0  0  0  0  0
  1  2  1  0  0  0  0
  1  5  1  0  0  0  0
  1  4  2  0  0  0  0
  2  3  1  0  0  0  0
  5 10  1  0  0  0  0
  5 17  1  0  0  0  0
  6 11  2  0  0  0  0
  6  7  1  0  0  0  0
  7  8  2  0  0  0  0
  8  9  1  0  0  0  0
  9 10  2  0  0  0  0
 10 11  1  0  0  0  0
 12 13  1  0  0  0  0
 12 14  1  0  0  0  0
 12 18  1  0  0  0  0
 13 15  1  0  0  0  0
 14 16  1  0  0  0  0
 15 17  1  0  0  0  0
 16 17  1  0  0  0  0
 18 19  1  0  0  0  0
 19 22  1  0  0  0  0
 20 21  1  0  0  0  0
 20 22  1  0  0  0  0
 21 24  2  0  0  0  0
 22 23  2  0  0  0  0
 23 24  1  0  0  0  0
M  END
> <ID>
13927

> <Formula>
C20H27ClN2OS

> <FW>
378.9592 (342.4982+36.4609)

> <DSSTox_CID>
28864

> <DSSTox_RID>
83133

> <DSSTox_GSID>
48938

> <DSSTox_FileID_Sort>
7810

> <TS_ChemName>
N-Phenyl-N-[1-[2-(2-thienyl)ethyl]-4-piperidyl]propanamide hydrochloride

> <TS_ChemName_Synonyms>
N-Phenyl-N-[1-[2-(2-thienyl)ethyl]-4-piperidyl]propanamide hydrochloride (Thiofentanyl)

> <TS_CASRN>
79278-88-9

> <CASRN_ChemName_Relationship>
primary

> <TS_Description>
single chemical compound

> <ChemNote>


> <STRUCTURE_Shown>
tested chemical

> <STRUCTURE_Formula>
C20H27ClN2OS

> <STRUCTURE_MW>
378.9592

> <STRUCTURE_ChemType>
defined organic

> <STRUCTURE_DefinedOrganicForm>
complex

> <STRUCTURE_IUPAC>
N-phenyl-N-{1-[2-(thiophen-2-yl)ethyl]piperidin-4-yl}propanamide hydrochloride (1:1)

> <STRUCTURE_SMILES>
Cl.CCC(=O)N(c1ccccc1)C2CCN(CC2)CCc3cccs3

> <STRUCTURE_SMILES_Desalt>
CCC(=O)N(c1ccccc1)C2CCN(CC2)CCc3cccs3

> <Substance_modify_yyyymmdd>
20111204

$$$$
