79277-27-3
ChemmineR-0915142007XD

 25 26  0  0  0  0  0  0  0  0  1 V2000
    1.7042   -5.3344    0.0000 S   0  0  0  0  0  0  0  0  0  0  0  0
    2.3695   -6.4666    0.0000 C   0  0  0  0  0  0  0  0  0  0  0  0
    2.5213   -4.3072    0.0000 C   0  0  0  0  0  0  0  0  0  0  0  0
    3.7236   -4.7975    0.0000 C   0  0  0  0  0  0  0  0  0  0  0  0
    3.7236   -6.1398    0.0000 C   0  0  0  0  0  0  0  0  0  0  0  0
    2.2061   -3.0232    0.0000 C   0  0  0  0  0  0  0  0  0  0  0  0
    3.1633   -2.0777    0.0000 O   0  0  0  0  0  0  0  0  0  0  0  0
    0.9455   -2.6497    0.0000 O   0  0  0  0  0  0  0  0  0  0  0  0
    4.8792   -4.1321    0.0000 S   0  0  0  0  0  0  0  0  0  0  0  0
    5.5562   -5.2644    0.0000 O   0  0  0  0  0  0  0  0  0  0  0  0
    4.1905   -2.9765    0.0000 O   0  0  0  0  0  0  0  0  0  0  0  0
    5.9881   -3.4434    0.0000 N   0  0  0  0  0  0  0  0  0  0  0  0
    5.9881   -2.1011    0.0000 C   0  0  0  0  0  0  0  0  0  0  0  0
    4.8091   -1.4357    0.0000 O   0  0  0  0  0  0  0  0  0  0  0  0
    7.0736   -1.4241    0.0000 N   0  0  0  0  0  0  0  0  0  0  0  0
    8.2642   -3.4318    0.0000 N   0  0  0  0  0  0  0  0  0  0  0  0
    8.2642   -2.0661    0.0000 C   0  0  0  0  0  0  0  0  0  0  0  0
    9.3615   -1.3774    0.0000 N   0  0  0  0  0  0  0  0  0  0  0  0
   10.5637   -2.0077    0.0000 C   0  0  0  0  0  0  0  0  0  0  0  0
   10.5637   -3.3617    0.0000 N   0  0  0  0  0  0  0  0  0  0  0  0
    9.4665   -4.0271    0.0000 C   0  0  0  0  0  0  0  0  0  0  0  0
   11.6726   -1.3307    0.0000 O   0  0  0  0  0  0  0  0  0  0  0  0
   11.6726    0.0000    0.0000 C   0  0  0  0  0  0  0  0  0  0  0  0
    9.4665   -5.3694    0.0000 C   0  0  0  0  0  0  0  0  0  0  0  0
    0.0000   -3.5952    0.0000 C   0  0  0  0  0  0  0  0  0  0  0  0
  1  2  1  0  0  0  0
  1  3  1  0  0  0  0
  2  5  2  0  0  0  0
  3  4  2  0  0  0  0
  3  6  1  0  0  0  0
  4  5  1  0  0  0  0
  4  9  1  0  0  0  0
  6  7  2  0  0  0  0
  6  8  1  0  0  0  0
  8 25  1  0  0  0  0
  9 10  2  0  0  0  0
  9 11  2  0  0  0  0
  9 12  1  0  0  0  0
 12 13  1  0  0  0  0
 13 14  2  0  0  0  0
 13 15  1  0  0  0  0
 15 17  1  0  0  0  0
 16 17  1  0  0  0  0
 16 21  2  0  0  0  0
 17 18  2  0  0  0  0
 18 19  1  0  0  0  0
 19 20  2  0  0  0  0
 19 22  1  0  0  0  0
 20 21  1  0  0  0  0
 21 24  1  0  0  0  0
 22 23  1  0  0  0  0
M  END
> <ID>
3517

> <Formula>
C12H13N5O6S2

> <FW>
387.3915

> <DSSTox_CID>
4124

> <DSSTox_RID>
77299

> <DSSTox_GSID>
24124

> <DSSTox_FileID_Sort>
1982

> <TS_ChemName>
Thifensulfuron-methyl

> <TS_ChemName_Synonyms>
Thiameturon-methyl (Harmony)

> <TS_CASRN>
79277-27-3

> <CASRN_ChemName_Relationship>
primary

> <TS_Description>
single chemical compound

> <ChemNote>


> <STRUCTURE_Shown>
tested chemical

> <STRUCTURE_Formula>
C12H13N5O6S2

> <STRUCTURE_MW>
387.3915

> <STRUCTURE_ChemType>
defined organic

> <STRUCTURE_DefinedOrganicForm>
parent

> <STRUCTURE_IUPAC>
methyl 3-{[(4-methoxy-6-methyl-1,3,5-triazin-2-yl)carbamoyl]sulfamoyl}thiophene-2-carboxylate

> <STRUCTURE_SMILES>
O=S(=O)(NC(=O)Nc1nc(C)nc(OC)n1)c2ccsc2C(=O)OC

> <STRUCTURE_SMILES_Desalt>
O=S(=O)(NC(=O)Nc1nc(C)nc(OC)n1)c2ccsc2C(=O)OC

> <Substance_modify_yyyymmdd>
20080429

$$$$
