793-24-8
ChemmineR-0915142007XD

 20 21  0  0  0  0  0  0  0  0  1 V2000
    8.0655   -3.9866    0.0000 N   0  0  0  0  0  0  0  0  0  0  0  0
    6.9132   -3.3184    0.0000 C   0  0  0  0  0  0  0  0  0  0  0  0
    5.7610   -3.9866    0.0000 C   0  0  0  0  0  0  0  0  0  0  0  0
    4.6088   -3.3184    0.0000 C   0  0  0  0  0  0  0  0  0  0  0  0
    4.6088   -1.9933    0.0000 C   0  0  0  0  0  0  0  0  0  0  0  0
    3.4566   -1.3250    0.0000 N   0  0  0  0  0  0  0  0  0  0  0  0
    2.3044   -1.9933    0.0000 C   0  0  0  0  0  0  0  0  0  0  0  0
    2.3044   -3.3184    0.0000 C   0  0  0  0  0  0  0  0  0  0  0  0
    1.1522   -3.9866    0.0000 C   0  0  0  0  0  0  0  0  0  0  0  0
    0.0000   -3.3184    0.0000 C   0  0  0  0  0  0  0  0  0  0  0  0
    0.0000   -1.9933    0.0000 C   0  0  0  0  0  0  0  0  0  0  0  0
    1.1522   -1.3250    0.0000 C   0  0  0  0  0  0  0  0  0  0  0  0
    5.7610   -1.3250    0.0000 C   0  0  0  0  0  0  0  0  0  0  0  0
    6.9132   -1.9933    0.0000 C   0  0  0  0  0  0  0  0  0  0  0  0
    9.2177   -3.3184    0.0000 C   0  0  0  0  0  0  0  0  0  0  0  0
    9.2177   -1.9933    0.0000 C   0  0  0  0  0  0  0  0  0  0  0  0
   10.3699   -1.3250    0.0000 C   0  0  0  0  0  0  0  0  0  0  0  0
   10.3699    0.0000    0.0000 C   0  0  0  0  0  0  0  0  0  0  0  0
   11.5221   -1.9933    0.0000 C   0  0  0  0  0  0  0  0  0  0  0  0
   10.3699   -3.9866    0.0000 C   0  0  0  0  0  0  0  0  0  0  0  0
  1  2  1  0  0  0  0
  1 15  1  0  0  0  0
  2  3  2  0  0  0  0
  2 14  1  0  0  0  0
  3  4  1  0  0  0  0
  4  5  2  0  0  0  0
  5  6  1  0  0  0  0
  5 13  1  0  0  0  0
  6  7  1  0  0  0  0
  7  8  2  0  0  0  0
  7 12  1  0  0  0  0
  8  9  1  0  0  0  0
  9 10  2  0  0  0  0
 10 11  1  0  0  0  0
 11 12  2  0  0  0  0
 13 14  2  0  0  0  0
 15 16  1  0  0  0  0
 15 20  1  0  0  0  0
 16 17  1  0  0  0  0
 17 18  1  0  0  0  0
 17 19  1  0  0  0  0
M  END
> <ID>
4025

> <Formula>
C18H24N2

> <FW>
268.3966

> <DSSTox_CID>
5114

> <DSSTox_RID>
77672

> <DSSTox_GSID>
25114

> <DSSTox_FileID_Sort>
2355

> <TS_ChemName>
N-(1,3-Dimethylbutyl)-N'-phenyl-p-phenylenediamine

> <TS_ChemName_Synonyms>
N-(1,3-Dimethylbutyl)-N'-phenyl-p-phenylenediamine (1,4-Benzenediamine, N-(1,3-dimethylbutyl)-N'-phenyl-)

> <TS_CASRN>
793-24-8

> <CASRN_ChemName_Relationship>
primary

> <TS_Description>
single chemical compound

> <ChemNote>


> <STRUCTURE_Shown>
tested chemical

> <STRUCTURE_Formula>
C18H24N2

> <STRUCTURE_MW>
268.3966

> <STRUCTURE_ChemType>
defined organic

> <STRUCTURE_DefinedOrganicForm>
parent

> <STRUCTURE_IUPAC>
N-(4-methylpentan-2-yl)-N'-phenylbenzene-1,4-diamine

> <STRUCTURE_SMILES>
CC(C)CC(C)Nc1ccc(cc1)Nc2ccccc2

> <STRUCTURE_SMILES_Desalt>
CC(C)CC(C)Nc1ccc(cc1)Nc2ccccc2

> <Substance_modify_yyyymmdd>
20080429

$$$$
