79307-93-0
ChemmineR-0915142007XD

 28 30  0  0  0  0  0  0  0  0  1 V2000
    6.6448   -7.0878    0.0000 Cl   0  0  0  0  0  0  0  0  0  0  0  0
    0.0000   -4.6983    0.0000 C    0  0  0  0  0  0  0  0  0  0  0  0
    1.1947   -4.1211    0.0000 N    0  0  0  0  0  0  0  0  0  0  0  0
    1.1947   -2.7922    0.0000 C    0  0  0  0  0  0  0  0  0  0  0  0
    2.2418   -1.9599    0.0000 C    0  0  0  0  0  0  0  0  0  0  0  0
    3.5305   -2.2552    0.0000 C    0  0  0  0  0  0  0  0  0  0  0  0
    4.1077   -3.4499    0.0000 C    0  0  0  0  0  0  0  0  0  0  0  0
    3.5305   -4.6581    0.0000 C    0  0  0  0  0  0  0  0  0  0  0  0
    2.2418   -4.9534    0.0000 C    0  0  0  0  0  0  0  0  0  0  0  0
    5.4367   -3.4499    0.0000 N    0  0  0  0  0  0  0  0  0  0  0  0
    6.1079   -2.2955    0.0000 N    0  0  0  0  0  0  0  0  0  0  0  0
    7.4368   -2.2955    0.0000 C    0  0  0  0  0  0  0  0  0  0  0  0
    8.1080   -1.1545    0.0000 C    0  0  0  0  0  0  0  0  0  0  0  0
    9.4370   -1.1545    0.0000 C    0  0  0  0  0  0  0  0  0  0  0  0
   10.0947    0.0000    0.0000 C    0  0  0  0  0  0  0  0  0  0  0  0
   11.4237    0.0000    0.0000 C    0  0  0  0  0  0  0  0  0  0  0  0
   12.0949   -1.1545    0.0000 C    0  0  0  0  0  0  0  0  0  0  0  0
   13.4239   -1.1545    0.0000 Cl   0  0  0  0  0  0  0  0  0  0  0  0
   11.4237   -2.2955    0.0000 C    0  0  0  0  0  0  0  0  0  0  0  0
   10.0947   -2.2955    0.0000 C    0  0  0  0  0  0  0  0  0  0  0  0
    8.1080   -3.4499    0.0000 C    0  0  0  0  0  0  0  0  0  0  0  0
    9.4370   -3.4499    0.0000 C    0  0  0  0  0  0  0  0  0  0  0  0
   10.0947   -4.6044    0.0000 C    0  0  0  0  0  0  0  0  0  0  0  0
    9.4370   -5.7588    0.0000 C    0  0  0  0  0  0  0  0  0  0  0  0
    8.1080   -5.7588    0.0000 C    0  0  0  0  0  0  0  0  0  0  0  0
    7.4368   -4.6044    0.0000 C    0  0  0  0  0  0  0  0  0  0  0  0
    6.1079   -4.6044    0.0000 C    0  0  0  0  0  0  0  0  0  0  0  0
    5.4367   -5.7588    0.0000 O    0  0  0  0  0  0  0  0  0  0  0  0
  2  3  1  0  0  0  0
  3  4  1  0  0  0  0
  3  9  1  0  0  0  0
  4  5  1  0  0  0  0
  5  6  1  0  0  0  0
  6  7  1  0  0  0  0
  7  8  1  0  0  0  0
  7 10  1  0  0  0  0
  8  9  1  0  0  0  0
 10 11  1  0  0  0  0
 10 27  1  0  0  0  0
 11 12  2  0  0  0  0
 12 13  1  0  0  0  0
 12 21  1  0  0  0  0
 13 14  1  0  0  0  0
 14 15  2  0  0  0  0
 14 20  1  0  0  0  0
 15 16  1  0  0  0  0
 16 17  2  0  0  0  0
 17 18  1  0  0  0  0
 17 19  1  0  0  0  0
 19 20  2  0  0  0  0
 21 22  2  0  0  0  0
 21 26  1  0  0  0  0
 22 23  1  0  0  0  0
 23 24  2  0  0  0  0
 24 25  1  0  0  0  0
 25 26  2  0  0  0  0
 26 27  1  0  0  0  0
 27 28  2  0  0  0  0
M  END
> <ID>
11311

> <Formula>
C22H25Cl2N3O

> <FW>
418.3594 (36.4609+381.8985)

> <DSSTox_CID>
25945

> <DSSTox_RID>
81243

> <DSSTox_GSID>
45945

> <DSSTox_FileID_Sort>
5924

> <TS_ChemName>
Azelastine hydrochloride

> <TS_ChemName_Synonyms>


> <TS_CASRN>
79307-93-0

> <CASRN_ChemName_Relationship>
primary

> <TS_Description>
single chemical compound

> <ChemNote>
parent [58581-89-8]

> <STRUCTURE_Shown>
tested chemical

> <STRUCTURE_Formula>
C22H25Cl2N3O

> <STRUCTURE_MW>
418.3594

> <STRUCTURE_ChemType>
defined organic

> <STRUCTURE_DefinedOrganicForm>
complex

> <STRUCTURE_IUPAC>
4-(4-chlorobenzyl)-2-(1-methylazepan-4-yl)phthalazin-1(2H)-one hydrochloride (1:1)

> <STRUCTURE_SMILES>
Cl.Clc1ccc(cc1)CC3=NN(C(=O)c2ccccc23)C4CCCN(C)CC4

> <STRUCTURE_SMILES_Desalt>
Clc1ccc(cc1)CC3=NN(C(=O)c2ccccc23)C4CCCN(C)CC4

> <Substance_modify_yyyymmdd>
20110930

$$$$
