79350-37-1
ChemmineR-0915142007XD

 31 33  0  0  1  0  0  0  0  0  1 V2000
   10.5271   -6.4130    0.0000 N   0  0  0  0  0  0  0  0  0  0  0  0
    9.1961   -6.4130    0.0000 C   0  0  0  0  0  0  0  0  0  0  0  0
    9.1961   -5.0669    0.0000 C   0  0  0  0  0  0  0  0  0  0  0  0
   10.5271   -5.0669    0.0000 C   0  0  0  0  0  0  0  0  0  0  0  0
   11.6766   -7.0937    0.0000 C   0  0  0  0  0  0  0  0  0  0  0  0
    5.7475   -3.1158    0.0000 C   0  0  0  0  0  0  0  0  0  0  0  0
    5.7475   -4.4468    0.0000 C   0  0  0  0  0  0  0  0  0  0  0  0
    6.8517   -2.3444    0.0000 N   0  0  0  0  0  0  0  0  0  0  0  0
    8.0466   -4.4468    0.0000 N   0  0  0  0  0  0  0  0  0  0  0  0
    6.9122   -5.1274    0.0000 C   0  0  0  0  0  0  0  0  0  0  0  0
   11.6766   -4.4317    0.0000 S   0  0  0  0  0  0  0  0  0  0  0  0
    6.4130   -1.0739    0.0000 C   0  0  0  0  0  0  0  0  0  0  0  0
   12.8261   -6.4130    0.0000 C   0  0  0  0  0  0  0  0  0  0  0  0
    4.6737   -2.3444    0.0000 C   0  0  0  0  0  0  0  0  0  0  0  0
    5.0820   -1.0739    0.0000 S   0  0  0  0  0  0  0  0  0  0  0  0
   11.6766   -8.4096    0.0000 C   0  0  0  0  0  0  0  0  0  0  0  0
    4.5980   -5.1274    0.0000 N   0  0  0  0  0  0  0  0  0  0  0  0
   12.8261   -5.0669    0.0000 C   0  0  0  0  0  0  0  0  0  0  0  0
    8.2432   -7.3508    0.0000 O   0  0  0  0  0  0  0  0  0  0  0  0
    1.1193   -5.7173    0.0000 C   0  0  0  0  0  0  0  0  0  0  0  0
   13.9907   -7.0937    0.0000 C   0  0  0  0  0  0  0  0  0  0  0  0
    6.9122   -6.4584    0.0000 O   0  0  0  0  0  0  0  0  0  0  0  0
    2.2990   -5.0669    0.0000 C   0  0  0  0  0  0  0  0  0  0  0  0
   12.8261   -9.0751    0.0000 O   0  0  0  0  0  0  0  0  0  0  0  0
    3.4183   -5.7627    0.0000 O   0  0  0  0  0  0  0  0  0  0  0  0
    1.1041   -7.0483    0.0000 O   0  0  0  0  0  0  0  0  0  0  0  0
    7.1844    0.0000    0.0000 N   0  0  0  0  0  0  0  0  0  0  0  0
   15.1251   -6.4130    0.0000 C   0  0  0  0  0  0  0  0  0  0  0  0
   10.5271   -9.0751    0.0000 O   0  0  0  0  0  0  0  0  0  0  0  0
    0.0000   -5.0367    0.0000 O   0  0  0  0  0  0  0  0  0  0  0  0
   10.4666   -3.7813    0.0000 H   0  0  0  0  0  0  0  0  0  0  0  0
  1  2  1  0  0  0  0
  1  4  1  0  0  0  0
  1  5  1  0  0  0  0
  2 19  2  0  0  0  0
  2  3  1  0  0  0  0
  3  4  1  0  0  0  0
  3  9  1  1  0  0  0
  4 11  1  0  0  0  0
  4 31  1  6  0  0  0
  5 13  2  0  0  0  0
  5 16  1  0  0  0  0
  6  7  1  0  0  0  0
  6  8  1  0  0  0  0
  6 14  2  0  0  0  0
  7 10  1  0  0  0  0
  7 17  2  0  0  0  0
  8 12  2  0  0  0  0
  9 10  1  0  0  0  0
 10 22  2  0  0  0  0
 11 18  1  0  0  0  0
 12 27  1  0  0  0  0
 12 15  1  0  0  0  0
 13 18  1  0  0  0  0
 13 21  1  0  0  0  0
 14 15  1  0  0  0  0
 16 24  2  0  0  0  0
 16 29  1  0  0  0  0
 17 25  1  0  0  0  0
 20 23  1  0  0  0  0
 20 26  2  0  0  0  0
 20 30  1  0  0  0  0
 21 28  2  0  0  0  0
 23 25  1  0  0  0  0
M  END
> <ID>
2493

> <Formula>
C16H15N5O7S2

> <FW>
453.4496

> <DSSTox_CID>
2754

> <DSSTox_RID>
76718

> <DSSTox_GSID>
22754

> <DSSTox_FileID_Sort>
1402

> <TS_ChemName>
Cefixime

> <TS_ChemName_Synonyms>


> <TS_CASRN>
79350-37-1

> <CASRN_ChemName_Relationship>
primary

> <TS_Description>
single chemical compound

> <ChemNote>
stereochem

> <STRUCTURE_Shown>
tested chemical

> <STRUCTURE_Formula>
C16H15N5O7S2

> <STRUCTURE_MW>
453.4496

> <STRUCTURE_ChemType>
defined organic

> <STRUCTURE_DefinedOrganicForm>
parent

> <STRUCTURE_IUPAC>
(6R,7R)-7-({(2-amino-1,3-thiazol-4-yl)[(carboxymethoxy)imino]acetyl}amino)-3-ethenyl-8-oxo-5-thia-1-azabicyclo[4.2.0]oct-2-ene-2-carboxylic acid

> <STRUCTURE_SMILES>
Nc1scc(n1)/C(=N\OCC(=O)O)C(=O)N[C@@H]2C(=O)N3C(=C(C=C)CS[C@H]23)C(=O)O

> <STRUCTURE_SMILES_Desalt>
Nc1scc(n1)/C(=N\OCC(=O)O)C(=O)N[C@@H]2C(=O)N3C(=C(C=C)CS[C@H]23)C(=O)O

> <Substance_modify_yyyymmdd>
20080429

$$$$
