79416-27-6
ChemmineR-0915142007XD

 11  9  0  0  0  0  0  0  0  0  1 V2000
    8.0902   -1.9902    0.0000 C    0  0  0  0  0  0  0  0  0  0  0  0
    6.9333   -1.3349    0.0000 O    0  0  0  0  0  0  0  0  0  0  0  0
    5.7764   -1.9902    0.0000 C    0  0  0  0  0  0  0  0  0  0  0  0
    5.7764   -3.3251    0.0000 O    0  0  0  0  0  0  0  0  0  0  0  0
    4.6033   -1.3349    0.0000 C    0  0  0  0  0  0  0  0  0  0  0  0
    3.4707   -1.9902    0.0000 C    0  0  0  0  0  0  0  0  0  0  0  0
    2.3138   -1.3349    0.0000 C    0  0  0  0  0  0  0  0  0  0  0  0
    2.3138    0.0000    0.0000 O    0  0  0  0  0  0  0  0  0  0  0  0
    1.1569   -1.9902    0.0000 C    0  0  0  0  0  0  0  0  0  0  0  0
    0.0000   -1.3349    0.0000 N    0  0  0  0  0  0  0  0  0  0  0  0
    2.4271   -2.6698    0.0000 Cl   0  0  0  0  0  0  0  0  0  0  0  0
  1  2  1  0  0  0  0
  2  3  1  0  0  0  0
  3  4  2  0  0  0  0
  3  5  1  0  0  0  0
  5  6  1  0  0  0  0
  6  7  1  0  0  0  0
  7  8  2  0  0  0  0
  7  9  1  0  0  0  0
  9 10  1  0  0  0  0
M  END
> <ID>
11080

> <Formula>
C6H12ClNO3

> <FW>
181.6174 (145.1564+36.4609)

> <DSSTox_CID>
25630

> <DSSTox_RID>
81012

> <DSSTox_GSID>
45630

> <DSSTox_FileID_Sort>
5693

> <TS_ChemName>
Methyl aminolevulinate hydrochloride

> <TS_ChemName_Synonyms>


> <TS_CASRN>
79416-27-6

> <CASRN_ChemName_Relationship>
primary

> <TS_Description>
single chemical compound

> <ChemNote>


> <STRUCTURE_Shown>
tested chemical

> <STRUCTURE_Formula>
C6H12ClNO3

> <STRUCTURE_MW>
181.6174

> <STRUCTURE_ChemType>
defined organic

> <STRUCTURE_DefinedOrganicForm>
complex

> <STRUCTURE_IUPAC>
methyl 5-amino-4-oxopentanoate hydrochloride (1:1)

> <STRUCTURE_SMILES>
Cl.O=C(CN)CCC(=O)OC

> <STRUCTURE_SMILES_Desalt>
O=C(CN)CCC(=O)OC

> <Substance_modify_yyyymmdd>
20100107

$$$$
