79455-30-4
ChemmineR-0915142007XD

 21 22  0  0  0  0  0  0  0  0  1 V2000
    1.1391   -4.6451    0.0000 N   0  0  0  0  0  0  0  0  0  0  0  0
    0.0000   -3.9869    0.0000 C   0  0  0  0  0  0  0  0  0  0  0  0
    0.0000   -2.6579    0.0000 C   0  0  0  0  0  0  0  0  0  0  0  0
    1.1391   -1.9871    0.0000 C   0  0  0  0  0  0  0  0  0  0  0  0
    2.3036   -2.6579    0.0000 C   0  0  0  0  0  0  0  0  0  0  0  0
    2.3036   -3.9869    0.0000 C   0  0  0  0  0  0  0  0  0  0  0  0
    3.4427   -1.9871    0.0000 C   0  0  0  0  0  0  0  0  0  0  0  0
    4.5944   -2.6579    0.0000 N   0  0  0  0  0  0  0  0  0  0  0  0
    5.7462   -1.9871    0.0000 C   0  0  0  0  0  0  0  0  0  0  0  0
    6.9107   -2.6579    0.0000 C   0  0  0  0  0  0  0  0  0  0  0  0
    8.0624   -1.9871    0.0000 N   0  0  0  0  0  0  0  0  0  0  0  0
    9.2142   -2.6579    0.0000 C   0  0  0  0  0  0  0  0  0  0  0  0
   10.3533   -1.9871    0.0000 C   0  0  0  0  0  0  0  0  0  0  0  0
    3.4427   -0.6582    0.0000 O   0  0  0  0  0  0  0  0  0  0  0  0
   10.3533   -0.6582    0.0000 C   0  0  0  0  0  0  0  0  0  0  0  0
   11.5178    0.0000    0.0000 C   0  0  0  0  0  0  0  0  0  0  0  0
   12.6569   -0.6582    0.0000 C   0  0  0  0  0  0  0  0  0  0  0  0
   12.6569   -1.9871    0.0000 N   0  0  0  0  0  0  0  0  0  0  0  0
   11.5178   -2.6579    0.0000 C   0  0  0  0  0  0  0  0  0  0  0  0
    6.9107   -3.9869    0.0000 C   0  0  0  0  0  0  0  0  0  0  0  0
    9.2142   -3.9869    0.0000 O   0  0  0  0  0  0  0  0  0  0  0  0
  1  2  1  0  0  0  0
  1  6  2  0  0  0  0
  2  3  2  0  0  0  0
  3  4  1  0  0  0  0
  4  5  2  0  0  0  0
  5  6  1  0  0  0  0
  5  7  1  0  0  0  0
  7 14  2  0  0  0  0
  7  8  1  0  0  0  0
  8  9  1  0  0  0  0
  9 10  1  0  0  0  0
 10 11  1  0  0  0  0
 10 20  1  0  0  0  0
 11 12  1  0  0  0  0
 12 13  1  0  0  0  0
 12 21  2  0  0  0  0
 13 15  2  0  0  0  0
 13 19  1  0  0  0  0
 15 16  1  0  0  0  0
 16 17  2  0  0  0  0
 17 18  1  0  0  0  0
 18 19  2  0  0  0  0
M  END
> <ID>
11487

> <Formula>
C15H16N4O2

> <FW>
284.3131

> <DSSTox_CID>
26189

> <DSSTox_RID>
81420

> <DSSTox_GSID>
46189

> <DSSTox_FileID_Sort>
6101

> <TS_ChemName>
Nicaraven

> <TS_ChemName_Synonyms>


> <TS_CASRN>
79455-30-4

> <CASRN_ChemName_Relationship>
primary

> <TS_Description>
single chemical compound

> <ChemNote>


> <STRUCTURE_Shown>
tested chemical

> <STRUCTURE_Formula>
C15H16N4O2

> <STRUCTURE_MW>
284.3131

> <STRUCTURE_ChemType>
defined organic

> <STRUCTURE_DefinedOrganicForm>
parent

> <STRUCTURE_IUPAC>
N,N'-propane-1,2-diyldipyridine-3-carboxamide

> <STRUCTURE_SMILES>
O=C(NC(C)CNC(=O)c1cccnc1)c2cccnc2

> <STRUCTURE_SMILES_Desalt>
O=C(NC(C)CNC(=O)c1cccnc1)c2cccnc2

> <Substance_modify_yyyymmdd>
20110818

$$$$
