79467-22-4
ChemmineR-0915142007XD

 17 18  0  0  0  0  0  0  0  0  1 V2000
    2.2846   -2.6849    0.0000 C   0  0  0  0  0  0  0  0  0  0  0  0
    2.2846   -4.0102    0.0000 C   0  0  0  0  0  0  0  0  0  0  0  0
    1.1320   -1.9947    0.0000 C   0  0  0  0  0  0  0  0  0  0  0  0
    1.1320   -4.6659    0.0000 C   0  0  0  0  0  0  0  0  0  0  0  0
    0.0000   -2.6849    0.0000 C   0  0  0  0  0  0  0  0  0  0  0  0
    0.0000   -4.0102    0.0000 C   0  0  0  0  0  0  0  0  0  0  0  0
    3.4511   -1.9947    0.0000 S   0  0  0  0  0  0  0  0  0  0  0  0
    4.5830   -2.6711    0.0000 C   0  0  0  0  0  0  0  0  0  0  0  0
    5.7495   -1.9947    0.0000 C   0  0  0  0  0  0  0  0  0  0  0  0
    4.5830   -4.0102    0.0000 C   0  0  0  0  0  0  0  0  0  0  0  0
    6.9022   -2.6849    0.0000 C   0  0  0  0  0  0  0  0  0  0  0  0
    5.7495   -4.6659    0.0000 C   0  0  0  0  0  0  0  0  0  0  0  0
    6.9022   -4.0102    0.0000 C   0  0  0  0  0  0  0  0  0  0  0  0
    1.1320   -0.6695    0.0000 C   0  0  0  0  0  0  0  0  0  0  0  0
    5.7495   -0.6695    0.0000 C   0  0  0  0  0  0  0  0  0  0  0  0
    6.9022    0.0000    0.0000 N   0  0  0  0  0  0  0  0  0  0  0  0
    0.0000   -0.0138    0.0000 O   0  0  0  0  0  0  0  0  0  0  0  0
  1  2  1  0  0  0  0
  1  3  2  0  0  0  0
  1  7  1  0  0  0  0
  2  4  2  0  0  0  0
  3  5  1  0  0  0  0
  3 14  1  0  0  0  0
  4  6  1  0  0  0  0
  5  6  2  0  0  0  0
  7  8  1  0  0  0  0
  8  9  1  0  0  0  0
  8 10  2  0  0  0  0
  9 11  2  0  0  0  0
  9 15  1  0  0  0  0
 10 12  1  0  0  0  0
 11 13  1  0  0  0  0
 12 13  2  0  0  0  0
 14 17  1  0  0  0  0
 15 16  1  0  0  0  0
M  END
> <ID>
11786

> <Formula>
C14H15NOS

> <FW>
245.34

> <DSSTox_CID>
26561

> <DSSTox_RID>
81720

> <DSSTox_GSID>
46561

> <DSSTox_FileID_Sort>
6401

> <TS_ChemName>
Bipenamol

> <TS_ChemName_Synonyms>


> <TS_CASRN>
79467-22-4

> <CASRN_ChemName_Relationship>
primary

> <TS_Description>
single chemical compound

> <ChemNote>


> <STRUCTURE_Shown>
tested chemical

> <STRUCTURE_Formula>
C14H15NOS

> <STRUCTURE_MW>
245.34

> <STRUCTURE_ChemType>
defined organic

> <STRUCTURE_DefinedOrganicForm>
parent

> <STRUCTURE_IUPAC>
(2-{[2-(aminomethyl)phenyl]sulfanyl}phenyl)methanol

> <STRUCTURE_SMILES>
NCc2ccccc2Sc1ccccc1CO

> <STRUCTURE_SMILES_Desalt>
NCc2ccccc2Sc1ccccc1CO

> <Substance_modify_yyyymmdd>
20110810

$$$$
