795-38-0
ChemmineR-0915142007XD

 23 27  0  0  1  0  0  0  0  0  1 V2000
    2.2510   -5.2866    0.0000 C   0  0  0  0  0  0  0  0  0  0  0  0
    2.2510   -3.9471    0.0000 C   0  0  0  0  0  0  0  0  0  0  0  0
    1.1334   -3.3051    0.0000 C   0  0  0  0  0  0  0  0  0  0  0  0
    1.1334   -5.9286    0.0000 C   0  0  0  0  0  0  0  0  0  0  0  0
    3.3844   -5.9286    0.0000 C   0  0  0  0  0  0  0  0  0  0  0  0
    0.3329   -4.5891    0.0000 O   0  0  0  0  0  0  0  0  0  0  0  0
    4.5099   -5.2549    0.0000 C   0  0  0  0  0  0  0  0  0  0  0  0
    3.3844   -3.2893    0.0000 C   0  0  0  0  0  0  0  0  0  0  0  0
    4.5099   -3.9313    0.0000 C   0  0  0  0  0  0  0  0  0  0  0  0
    5.1281   -5.8652    0.0000 N   0  0  0  0  0  0  0  0  0  0  0  0
    2.2510   -6.5547    0.0000 C   0  0  0  0  0  0  0  0  0  0  0  0
    3.3844   -7.2364    0.0000 C   0  0  0  0  0  0  0  0  0  0  0  0
    1.1334   -1.9815    0.0000 C   0  0  0  0  0  0  0  0  0  0  0  0
    1.1334   -7.2522    0.0000 C   0  0  0  0  0  0  0  0  0  0  0  0
    4.7793   -6.5547    0.0000 C   0  0  0  0  0  0  0  0  0  0  0  0
    3.3844   -1.9815    0.0000 C   0  0  0  0  0  0  0  0  0  0  0  0
    2.2510   -7.8784    0.0000 C   0  0  0  0  0  0  0  0  0  0  0  0
    2.2510   -1.3236    0.0000 C   0  0  0  0  0  0  0  0  0  0  0  0
    0.0159   -7.9259    0.0000 O   0  0  0  0  0  0  0  0  0  0  0  0
    0.0000   -1.3078    0.0000 O   0  0  0  0  0  0  0  0  0  0  0  0
    6.3566   -5.8652    0.0000 C   0  0  0  0  0  0  0  0  0  0  0  0
    0.0159    0.0000    0.0000 C   0  0  0  0  0  0  0  0  0  0  0  0
    3.3844   -4.6050    0.0000 H   0  0  0  0  0  0  0  0  0  0  0  0
  1  2  1  0  0  0  0
  1  4  1  0  0  0  0
  1  5  1  0  0  0  0
  1 11  1  1  0  0  0
  2  3  1  0  0  0  0
  2  8  2  0  0  0  0
  3 13  2  0  0  0  0
  3  6  1  0  0  0  0
  4  6  1  6  0  0  0
  4 14  1  0  0  0  0
  5  7  1  0  0  0  0
  5 12  1  0  0  0  0
  5 23  1  1  0  0  0
  7  9  1  0  0  0  0
  7 10  1  1  0  0  0
  8 16  1  0  0  0  0
  8  9  1  0  0  0  0
 10 15  1  0  0  0  0
 10 21  1  0  0  0  0
 11 15  1  0  0  0  0
 12 17  1  0  0  0  0
 13 20  1  0  0  0  0
 13 18  1  0  0  0  0
 14 19  1  1  0  0  0
 14 17  1  0  0  0  0
 16 18  2  0  0  0  0
 20 22  1  0  0  0  0
M  END
> <ID>
13896

> <Formula>
C18H23NO3

> <FW>
301.3801

> <DSSTox_CID>
28833

> <DSSTox_RID>
83102

> <DSSTox_GSID>
48907

> <DSSTox_FileID_Sort>
7779

> <TS_ChemName>
Dihydroisocodeine

> <TS_ChemName_Synonyms>


> <TS_CASRN>
795-38-0

> <CASRN_ChemName_Relationship>
primary

> <TS_Description>
single chemical compound

> <ChemNote>


> <STRUCTURE_Shown>
tested chemical

> <STRUCTURE_Formula>
C18H23NO3

> <STRUCTURE_MW>
301.3801

> <STRUCTURE_ChemType>
defined organic

> <STRUCTURE_DefinedOrganicForm>
parent

> <STRUCTURE_IUPAC>
(5alpha,6beta)-3-methoxy-17-methyl-4,5-epoxymorphinan-6-ol

> <STRUCTURE_SMILES>
COc1ccc2C[C@H]4N(C)CC[C@@]35[C@@H](Oc1c23)[C@H](O)CC[C@@H]45

> <STRUCTURE_SMILES_Desalt>
COc1ccc2C[C@H]4N(C)CC[C@@]35[C@@H](Oc1c23)[C@H](O)CC[C@@H]45

> <Substance_modify_yyyymmdd>
20111204

$$$$
