79538-32-2
ChemmineR-0915142007XD

 27 28  0  0  0  0  0  0  0  0  1 V2000
    4.7931   -3.3282    0.0000 C    0  0  0  0  0  0  0  0  0  0  0  0
    4.1249   -2.1717    0.0000 C    0  0  0  0  0  0  0  0  0  0  0  0
    3.4567   -3.3282    0.0000 C    0  0  0  0  0  0  0  0  0  0  0  0
    5.9496   -3.9964    0.0000 C    0  0  0  0  0  0  0  0  0  0  0  0
    5.9496   -5.3200    0.0000 O    0  0  0  0  0  0  0  0  0  0  0  0
    7.0933   -3.3282    0.0000 O    0  0  0  0  0  0  0  0  0  0  0  0
    2.3002   -3.9964    0.0000 C    0  0  0  0  0  0  0  0  0  0  0  0
    2.3002   -5.3200    0.0000 C    0  0  0  0  0  0  0  0  0  0  0  0
    1.1565   -5.9882    0.0000 C    0  0  0  0  0  0  0  0  0  0  0  0
    3.4567   -5.9882    0.0000 Cl   0  0  0  0  0  0  0  0  0  0  0  0
    1.8247   -7.1319    0.0000 F    0  0  0  0  0  0  0  0  0  0  0  0
    0.4883   -4.8317    0.0000 F    0  0  0  0  0  0  0  0  0  0  0  0
    0.0000   -6.6564    0.0000 F    0  0  0  0  0  0  0  0  0  0  0  0
    4.7931   -1.0280    0.0000 C    0  0  0  0  0  0  0  0  0  0  0  0
    3.4567   -1.0280    0.0000 C    0  0  0  0  0  0  0  0  0  0  0  0
    8.2498   -3.9964    0.0000 C    0  0  0  0  0  0  0  0  0  0  0  0
    9.3935   -3.3282    0.0000 C    0  0  0  0  0  0  0  0  0  0  0  0
   10.5500   -3.9964    0.0000 C    0  0  0  0  0  0  0  0  0  0  0  0
    9.3935   -1.9918    0.0000 C    0  0  0  0  0  0  0  0  0  0  0  0
   11.7065   -3.3282    0.0000 C    0  0  0  0  0  0  0  0  0  0  0  0
   10.5500   -1.3364    0.0000 C    0  0  0  0  0  0  0  0  0  0  0  0
   11.7065   -1.9918    0.0000 C    0  0  0  0  0  0  0  0  0  0  0  0
   10.5500   -5.3200    0.0000 F    0  0  0  0  0  0  0  0  0  0  0  0
   12.8502   -3.9964    0.0000 F    0  0  0  0  0  0  0  0  0  0  0  0
   10.5500    0.0000    0.0000 F    0  0  0  0  0  0  0  0  0  0  0  0
    8.2498   -1.3364    0.0000 F    0  0  0  0  0  0  0  0  0  0  0  0
   12.8502   -1.3364    0.0000 C    0  0  0  0  0  0  0  0  0  0  0  0
  1  2  1  0  0  0  0
  1  3  1  0  0  0  0
  1  4  1  0  0  0  0
  2  3  1  0  0  0  0
  2 14  1  0  0  0  0
  2 15  1  0  0  0  0
  3  7  1  0  0  0  0
  4  5  2  0  0  0  0
  4  6  1  0  0  0  0
  6 16  1  0  0  0  0
  7  8  2  0  0  0  0
  8  9  1  0  0  0  0
  8 10  1  0  0  0  0
  9 11  1  0  0  0  0
  9 12  1  0  0  0  0
  9 13  1  0  0  0  0
 16 17  1  0  0  0  0
 17 18  2  0  0  0  0
 17 19  1  0  0  0  0
 18 20  1  0  0  0  0
 18 23  1  0  0  0  0
 19 21  2  0  0  0  0
 19 26  1  0  0  0  0
 20 22  2  0  0  0  0
 20 24  1  0  0  0  0
 21 22  1  0  0  0  0
 21 25  1  0  0  0  0
 22 27  1  0  0  0  0
M  END
> <ID>
6526

> <Formula>
C17H14ClF7O2

> <FW>
418.7337

> <DSSTox_CID>
12577

> <DSSTox_RID>
78992

> <DSSTox_GSID>
32577

> <DSSTox_FileID_Sort>
3674

> <TS_ChemName>
Tefluthrin

> <TS_ChemName_Synonyms>


> <TS_CASRN>
79538-32-2

> <CASRN_ChemName_Relationship>
primary

> <TS_Description>
single chemical compound

> <ChemNote>
mixture of (R,S) isomers and Z isomer; stereochem

> <STRUCTURE_Shown>
tested chemical

> <STRUCTURE_Formula>
C17H14ClF7O2

> <STRUCTURE_MW>
418.7337

> <STRUCTURE_ChemType>
defined organic

> <STRUCTURE_DefinedOrganicForm>
parent

> <STRUCTURE_IUPAC>
2,3,5,6-tetrafluoro-4-methylbenzyl 3-[(1Z)-2-chloro-3,3,3-trifluoroprop-1-en-1-yl]-2,2-dimethylcyclopropanecarboxylate

> <STRUCTURE_SMILES>
Cl\C(=C/C2C(C(=O)OCc1c(F)c(F)c(C)c(F)c1F)C2(C)C)C(F)(F)F

> <STRUCTURE_SMILES_Desalt>
Cl\C(=C/C2C(C(=O)OCc1c(F)c(F)c(C)c(F)c1F)C2(C)C)C(F)(F)F

> <Substance_modify_yyyymmdd>
20080429

$$$$
