79547-78-7
ChemmineR-0915142007XD

 33 35  0  0  1  0  0  0  0  0  1 V2000
    7.2333   -2.4842    0.0000 C    0  0  0  0  0  0  0  0  0  0  0  0
    6.5319   -3.6239    0.0000 C    0  0  0  0  0  0  0  0  0  0  0  0
    6.5319   -1.3298    0.0000 C    0  0  0  0  0  0  0  0  0  0  0  0
    5.2021   -3.6239    0.0000 C    0  0  0  0  0  0  0  0  0  0  0  0
    5.2021   -1.3298    0.0000 C    0  0  0  0  0  0  0  0  0  0  0  0
    4.5592   -2.4842    0.0000 C    0  0  0  0  0  0  0  0  0  0  0  0
    8.5192   -2.4842    0.0000 N    0  0  0  0  0  0  0  0  0  0  0  0
    9.1768   -1.3298    0.0000 C    0  0  0  0  0  0  0  0  0  0  0  0
    9.1768   -3.6239    0.0000 C    0  0  0  0  0  0  0  0  0  0  0  0
   10.5065   -1.3298    0.0000 C    0  0  0  0  0  0  0  0  0  0  0  0
   10.5065   -3.6239    0.0000 C    0  0  0  0  0  0  0  0  0  0  0  0
   11.1787   -2.4842    0.0000 C    0  0  0  0  0  0  0  0  0  0  0  0
   12.0701   -1.4905    0.0000 C    0  0  0  0  0  0  0  0  0  0  0  0
   12.3331   -3.1563    0.0000 C    0  0  0  0  0  0  0  0  0  0  0  0
   14.6127   -3.1563    0.0000 C    0  0  0  0  0  0  0  0  0  0  0  0
   14.6127   -4.4861    0.0000 C    0  0  0  0  0  0  0  0  0  0  0  0
   13.4729   -2.4988    0.0000 C    0  0  0  0  0  0  0  0  0  0  0  0
   13.4729   -5.1583    0.0000 C    0  0  0  0  0  0  0  0  0  0  0  0
   12.3331   -4.4861    0.0000 C    0  0  0  0  0  0  0  0  0  0  0  0
    3.3901   -1.8120    0.0000 C    0  0  0  0  0  0  0  0  0  0  0  0
    3.4340   -3.1563    0.0000 C    0  0  0  0  0  0  0  0  0  0  0  0
    3.4340   -4.4861    0.0000 C    0  0  0  0  0  0  0  0  0  0  0  0
    2.2504   -2.4988    0.0000 C    0  0  0  0  0  0  0  0  0  0  0  0
    2.2796   -5.1583    0.0000 C    0  0  0  0  0  0  0  0  0  0  0  0
    1.1106   -3.1856    0.0000 C    0  0  0  0  0  0  0  0  0  0  0  0
    1.1252   -4.5153    0.0000 C    0  0  0  0  0  0  0  0  0  0  0  0
    0.0000   -5.1875    0.0000 F    0  0  0  0  0  0  0  0  0  0  0  0
    2.1919   -0.9937    0.0000 N    0  0  0  0  0  0  0  0  0  0  0  0
    7.8470   -1.3298    0.0000 H    0  0  0  0  0  0  0  0  0  0  0  0
   13.3560   -1.7389    0.0000 O    0  0  0  0  0  0  0  0  0  0  0  0
   11.6317   -0.2192    0.0000 O    0  0  0  0  0  0  0  0  0  0  0  0
   10.5065    0.0000    0.0000 C    0  0  0  0  0  0  0  0  0  0  0  0
    7.7301   -4.5299    0.0000 Cl   0  0  0  0  0  0  0  0  0  0  0  0
  1  2  1  0  0  0  0
  1  3  1  0  0  0  0
  1  7  1  0  0  0  0
  1 29  1  6  0  0  0
  2  4  1  0  0  0  0
  3  5  1  0  0  0  0
  4  6  1  0  0  0  0
  5  6  1  0  0  0  0
  6 20  1  1  0  0  0
  6 21  1  0  0  0  0
  7  8  1  0  0  0  0
  7  9  1  0  0  0  0
  8 10  1  0  0  0  0
  9 11  1  0  0  0  0
 10 12  1  0  0  0  0
 10 32  1  1  0  0  0
 11 12  1  0  0  0  0
 12 13  1  6  0  0  0
 12 14  1  0  0  0  0
 13 30  1  0  0  0  0
 13 31  2  0  0  0  0
 14 17  1  0  0  0  0
 14 19  2  0  0  0  0
 15 16  1  0  0  0  0
 15 17  2  0  0  0  0
 16 18  2  0  0  0  0
 18 19  1  0  0  0  0
 20 28  3  0  0  0  0
 21 22  1  0  0  0  0
 21 23  2  0  0  0  0
 22 24  2  0  0  0  0
 23 25  1  0  0  0  0
 24 26  1  0  0  0  0
 25 26  2  0  0  0  0
 26 27  1  0  0  0  0
M  END
> <ID>
10989

> <Formula>
C26H30ClFN2O2

> <FW>
456.9800 (420.5191+36.4609)

> <DSSTox_CID>
25508

> <DSSTox_RID>
80921

> <DSSTox_GSID>
45508

> <DSSTox_FileID_Sort>
5602

> <TS_ChemName>
Levocabastine hydrochloride

> <TS_ChemName_Synonyms>


> <TS_CASRN>
79547-78-7

> <CASRN_ChemName_Relationship>
primary

> <TS_Description>
single chemical compound

> <ChemNote>
stereochem; parent [79516-68-0 ]

> <STRUCTURE_Shown>
tested chemical

> <STRUCTURE_Formula>
C26H30ClFN2O2

> <STRUCTURE_MW>
456.98

> <STRUCTURE_ChemType>
defined organic

> <STRUCTURE_DefinedOrganicForm>
complex

> <STRUCTURE_IUPAC>
(3S,4R)-1-[cis-4-cyano-4-(4-fluorophenyl)cyclohexyl]-3-methyl-4-phenylpiperidine-4-carboxylic acid hydrochloride (1:1)

> <STRUCTURE_SMILES>
Cl.Fc1ccc(cc1)[C@@]2(CC[C@H](CC2)N3CC[C@@]([C@H](C)C3)(c4ccccc4)C(=O)O)C#N

> <STRUCTURE_SMILES_Desalt>
Fc1ccc(cc1)[C@@]2(CC[C@H](CC2)N3CC[C@@]([C@H](C)C3)(c4ccccc4)C(=O)O)C#N

> <Substance_modify_yyyymmdd>
20100107

$$$$
