79558-09-1
ChemmineR-0915142007XD

 29 30  0  0  0  0  0  0  0  0  1 V2000
    1.1417   -2.0072    0.0000 C   0  0  0  0  0  0  0  0  0  0  0  0
    1.1417   -0.6629    0.0000 O   0  0  0  0  0  0  0  0  0  0  0  0
    0.0000   -2.6701    0.0000 O   0  0  0  0  0  0  0  0  0  0  0  0
    2.3018   -2.6701    0.0000 C   0  0  0  0  0  0  0  0  0  0  0  0
    3.4435   -2.0072    0.0000 O   0  0  0  0  0  0  0  0  0  0  0  0
    4.6036   -2.6701    0.0000 C   0  0  0  0  0  0  0  0  0  0  0  0
    5.7637   -2.0072    0.0000 C   0  0  0  0  0  0  0  0  0  0  0  0
    4.6036   -3.9959    0.0000 C   0  0  0  0  0  0  0  0  0  0  0  0
    6.9054   -2.6701    0.0000 C   0  0  0  0  0  0  0  0  0  0  0  0
    5.7637   -4.6588    0.0000 C   0  0  0  0  0  0  0  0  0  0  0  0
    6.9054   -3.9959    0.0000 C   0  0  0  0  0  0  0  0  0  0  0  0
    8.0470   -4.6588    0.0000 O   0  0  0  0  0  0  0  0  0  0  0  0
    9.2071   -3.9959    0.0000 C   0  0  0  0  0  0  0  0  0  0  0  0
   10.3488   -4.6588    0.0000 C   0  0  0  0  0  0  0  0  0  0  0  0
   11.5089   -3.9959    0.0000 C   0  0  0  0  0  0  0  0  0  0  0  0
   12.6506   -4.6588    0.0000 O   0  0  0  0  0  0  0  0  0  0  0  0
   13.8107   -3.9959    0.0000 C   0  0  0  0  0  0  0  0  0  0  0  0
   13.8107   -2.6701    0.0000 C   0  0  0  0  0  0  0  0  0  0  0  0
   14.9708   -4.6588    0.0000 C   0  0  0  0  0  0  0  0  0  0  0  0
   14.9708   -2.0072    0.0000 C   0  0  0  0  0  0  0  0  0  0  0  0
   16.1125   -3.9959    0.0000 C   0  0  0  0  0  0  0  0  0  0  0  0
   16.1125   -2.6701    0.0000 C   0  0  0  0  0  0  0  0  0  0  0  0
   17.2542   -2.0072    0.0000 C   0  0  0  0  0  0  0  0  0  0  0  0
   17.2542   -0.6629    0.0000 O   0  0  0  0  0  0  0  0  0  0  0  0
   18.4143   -2.6701    0.0000 C   0  0  0  0  0  0  0  0  0  0  0  0
   14.9708   -0.6629    0.0000 O   0  0  0  0  0  0  0  0  0  0  0  0
   12.6506   -2.0072    0.0000 C   0  0  0  0  0  0  0  0  0  0  0  0
   12.6506   -0.6629    0.0000 C   0  0  0  0  0  0  0  0  0  0  0  0
   11.5089    0.0000    0.0000 C   0  0  0  0  0  0  0  0  0  0  0  0
  1  2  2  0  0  0  0
  1  3  1  0  0  0  0
  1  4  1  0  0  0  0
  4  5  1  0  0  0  0
  5  6  1  0  0  0  0
  6  7  2  0  0  0  0
  6  8  1  0  0  0  0
  7  9  1  0  0  0  0
  8 10  2  0  0  0  0
  9 11  2  0  0  0  0
 10 11  1  0  0  0  0
 11 12  1  0  0  0  0
 12 13  1  0  0  0  0
 13 14  1  0  0  0  0
 14 15  1  0  0  0  0
 15 16  1  0  0  0  0
 16 17  1  0  0  0  0
 17 18  2  0  0  0  0
 17 19  1  0  0  0  0
 18 20  1  0  0  0  0
 18 27  1  0  0  0  0
 19 21  2  0  0  0  0
 20 22  2  0  0  0  0
 20 26  1  0  0  0  0
 21 22  1  0  0  0  0
 22 23  1  0  0  0  0
 23 24  2  0  0  0  0
 23 25  1  0  0  0  0
 27 28  1  0  0  0  0
 28 29  1  0  0  0  0
M  END
> <ID>
7939

> <Formula>
C22H26O7

> <FW>
402.4376

> <DSSTox_CID>
20745

> <DSSTox_RID>
79585

> <DSSTox_GSID>
40745

> <DSSTox_FileID_Sort>
4267

> <TS_ChemName>
4-[3-(4-Acetyl-3-hydroxy-2-propylphenoxy)propoxy]phenoxy-acetic acid

> <TS_ChemName_Synonyms>
4-[3-(4-Acetyl-3-hydroxy-2-propylphenoxy)propoxy]phenoxy­acetic acid (L-165,041)

> <TS_CASRN>
79558-09-1

> <CASRN_ChemName_Relationship>
primary

> <TS_Description>
single chemical compound

> <ChemNote>


> <STRUCTURE_Shown>
tested chemical

> <STRUCTURE_Formula>
C22H26O7

> <STRUCTURE_MW>
402.4376

> <STRUCTURE_ChemType>
defined organic

> <STRUCTURE_DefinedOrganicForm>
parent

> <STRUCTURE_IUPAC>
{4-[3-(4-acetyl-3-hydroxy-2-propylphenoxy)propoxy]phenoxy}acetic acid

> <STRUCTURE_SMILES>
Oc2c(ccc(OCCCOc1ccc(OCC(=O)O)cc1)c2CCC)C(C)=O

> <STRUCTURE_SMILES_Desalt>
Oc2c(ccc(OCCCOc1ccc(OCC(=O)O)cc1)c2CCC)C(C)=O

> <Substance_modify_yyyymmdd>
20080429

$$$$
