796104-87-5
ChemmineR-0915142007XD

 32 23  0  0  0  0  0  0  0  0  2 V2000
    2.4646   -0.5786    0.0000 Sr   0  2  0  0  0  0  0  0  0  0  0  0
   11.5711   -4.2119    0.0000 Sr   0  2  0  0  0  0  0  0  0  0  0  0
    6.5492   -3.1589    0.0000 S    0  0  0  0  0  0  0  0  0  0  0  0
    5.4847   -3.9226    0.0000 C    0  0  0  0  0  0  0  0  0  0  0  0
    5.8781   -5.1954    0.0000 C    0  0  0  0  0  0  0  0  0  0  0  0
    7.6253   -3.9457    0.0000 C    0  0  0  0  0  0  0  0  0  0  0  0
    7.2088   -5.1954    0.0000 C    0  0  0  0  0  0  0  0  0  0  0  0
    5.0913   -6.2715    0.0000 C    0  0  0  0  0  0  0  0  0  0  0  0
    4.3160   -7.3245    0.0000 N    0  0  0  0  0  0  0  0  0  0  0  0
    7.7873   -6.3988    0.0000 C    0  0  0  0  0  0  0  0  0  0  0  0
    8.8981   -3.5292    0.0000 C    0  0  0  0  0  0  0  0  0  0  0  0
    9.8701   -4.4433    0.0000 O    0  0  0  0  0  0  0  0  0  0  0  0
    9.1874   -2.2448    0.0000 O    0  5  0  0  0  0  0  0  0  0  0  0
    4.2350   -3.5060    0.0000 N    0  0  0  0  0  0  0  0  0  0  0  0
    3.2399   -4.3970    0.0000 C    0  0  0  0  0  0  0  0  0  0  0  0
    3.9573   -2.2101    0.0000 C    0  0  0  0  0  0  0  0  0  0  0  0
    4.9524   -1.3191    0.0000 C    0  0  0  0  0  0  0  0  0  0  0  0
    6.2021   -1.7472    0.0000 O    0  0  0  0  0  0  0  0  0  0  0  0
    4.6747    0.0000    0.0000 O    0  5  0  0  0  0  0  0  0  0  0  0
    1.9555   -3.9804    0.0000 C    0  0  0  0  0  0  0  0  0  0  0  0
    1.6778   -2.6613    0.0000 O    0  0  0  0  0  0  0  0  0  0  0  0
    0.9604   -4.8598    0.0000 O    0  5  0  0  0  0  0  0  0  0  0  0
    9.1643   -6.3988    0.0000 C    0  0  0  0  0  0  0  0  0  0  0  0
    9.6965   -7.6947    0.0000 O    0  0  0  0  0  0  0  0  0  0  0  0
    9.8585   -5.4037    0.0000 O    0  5  0  0  0  0  0  0  0  0  0  0
    0.1389   -6.3178    0.0000 O    0  0  0  0  0  0  0  0  0  0  0  0
    2.4183   -6.3178    0.0000 O    0  0  0  0  0  0  0  0  0  0  0  0
    0.0000   -7.4865    0.0000 O    0  0  0  0  0  0  0  0  0  0  0  0
    2.2332   -7.5790    0.0000 O    0  0  0  0  0  0  0  0  0  0  0  0
    0.0000   -8.7361    0.0000 O    0  0  0  0  0  0  0  0  0  0  0  0
    2.3258   -8.6899    0.0000 O    0  0  0  0  0  0  0  0  0  0  0  0
    4.5474   -8.5394    0.0000 O    0  0  0  0  0  0  0  0  0  0  0  0
  3  4  1  0  0  0  0
  3  6  1  0  0  0  0
  4  5  2  0  0  0  0
  4 14  1  0  0  0  0
  5  7  1  0  0  0  0
  5  8  1  0  0  0  0
  6  7  2  0  0  0  0
  6 11  1  0  0  0  0
  7 10  1  0  0  0  0
  8  9  3  0  0  0  0
 10 23  1  0  0  0  0
 11 12  2  0  0  0  0
 11 13  1  0  0  0  0
 14 15  1  0  0  0  0
 14 16  1  0  0  0  0
 15 20  1  0  0  0  0
 16 17  1  0  0  0  0
 17 18  2  0  0  0  0
 17 19  1  0  0  0  0
 20 21  2  0  0  0  0
 20 22  1  0  0  0  0
 23 24  2  0  0  0  0
 23 25  1  0  0  0  0
M  END
> <ID>
12077

> <Formula>
C12H20N2O15SSr2

> <FW>
639.5966 (87.6189+87.6189+338.2518+18.0153+18.0153+18.0153+18.0153+18.0153+18.0153+18.0153)

> <DSSTox_CID>
26918

> <DSSTox_RID>
82014

> <DSSTox_GSID>
46918

> <DSSTox_FileID_Sort>
6695

> <TS_ChemName>
Strontium ranelate heptahydrate

> <TS_ChemName_Synonyms>


> <TS_CASRN>
796104-87-5

> <CASRN_ChemName_Relationship>
primary

> <TS_Description>
single chemical compound

> <ChemNote>
parent [135459-90-4]

> <STRUCTURE_Shown>
tested chemical

> <STRUCTURE_Formula>
C12H20N2O15SSr2

> <STRUCTURE_MW>
639.5966

> <STRUCTURE_ChemType>
organometallic

> <STRUCTURE_DefinedOrganicForm>


> <STRUCTURE_IUPAC>
strontium 5-[bis(carboxylatomethyl)amino]-3-(carboxylatomethyl)-4-cyanothiophene-2-carboxylate hydrate (2:1:7)

> <STRUCTURE_SMILES>
[Sr+2].[Sr+2].O.O.O.O.O.O.O.O=C([O-])CN(CC([O-])=O)c1sc(c(CC([O-])=O)c1C#N)C([O-])=O

> <STRUCTURE_SMILES_Desalt>
OC(=O)CN(CC(=O)O)c1sc(c(CC(=O)O)c1C#N)C(=O)O

> <Substance_modify_yyyymmdd>
20110725

$$$$
