79622-59-6
ChemmineR-0915142007XD

 29 30  0  0  0  0  0  0  0  0  2 V2000
    4.5339   -3.7480    0.0000 N    0  0  0  0  0  0  0  0  0  0  0  0
    3.3974   -4.4130    0.0000 C    0  0  0  0  0  0  0  0  0  0  0  0
    4.5339   -2.4544    0.0000 C    0  0  0  0  0  0  0  0  0  0  0  0
    3.3974   -1.8015    0.0000 C    0  0  0  0  0  0  0  0  0  0  0  0
    2.2609   -3.7480    0.0000 C    0  0  0  0  0  0  0  0  0  0  0  0
    2.2609   -2.4544    0.0000 C    0  0  0  0  0  0  0  0  0  0  0  0
    5.6462   -1.8015    0.0000 N    0  0  0  0  0  0  0  0  0  0  0  0
    3.3974   -0.4957    0.0000 Cl   0  0  0  0  0  0  0  0  0  0  0  0
    7.5565   -2.6115    0.0000 C    0  0  0  0  0  0  0  0  0  0  0  0
    8.6930   -1.9586    0.0000 C    0  0  0  0  0  0  0  0  0  0  0  0
    7.5565   -3.9052    0.0000 C    0  0  0  0  0  0  0  0  0  0  0  0
    9.8295   -2.6115    0.0000 C    0  0  0  0  0  0  0  0  0  0  0  0
    8.6930   -4.5702    0.0000 C    0  0  0  0  0  0  0  0  0  0  0  0
    9.8295   -3.9052    0.0000 C    0  0  0  0  0  0  0  0  0  0  0  0
   10.9539   -1.9586    0.0000 Cl   0  0  0  0  0  0  0  0  0  0  0  0
    8.6930   -0.6529    0.0000 N    0  3  0  0  0  0  0  0  0  0  0  0
    7.5565    0.0000    0.0000 O    0  5  0  0  0  0  0  0  0  0  0  0
    9.8295    0.0000    0.0000 O    0  0  0  0  0  0  0  0  0  0  0  0
    6.4321   -4.5702    0.0000 N    0  3  0  0  0  0  0  0  0  0  0  0
    6.4321   -5.8759    0.0000 O    0  5  0  0  0  0  0  0  0  0  0  0
    5.3923   -3.8931    0.0000 O    0  0  0  0  0  0  0  0  0  0  0  0
   10.9539   -4.5702    0.0000 C    0  0  0  0  0  0  0  0  0  0  0  0
   10.3010   -5.7067    0.0000 F    0  0  0  0  0  0  0  0  0  0  0  0
   11.6068   -3.4337    0.0000 F    0  0  0  0  0  0  0  0  0  0  0  0
   12.0904   -5.2110    0.0000 F    0  0  0  0  0  0  0  0  0  0  0  0
    1.1365   -4.4130    0.0000 C    0  0  0  0  0  0  0  0  0  0  0  0
    0.4715   -3.2765    0.0000 F    0  0  0  0  0  0  0  0  0  0  0  0
    1.7773   -5.5495    0.0000 F    0  0  0  0  0  0  0  0  0  0  0  0
    0.0000   -5.0538    0.0000 F    0  0  0  0  0  0  0  0  0  0  0  0
  1  2  2  0  0  0  0
  1  3  1  0  0  0  0
  2  5  1  0  0  0  0
  3  4  2  0  0  0  0
  3  7  1  0  0  0  0
  4  6  1  0  0  0  0
  4  8  1  0  0  0  0
  5  6  2  0  0  0  0
  5 26  1  0  0  0  0
  7  9  1  0  0  0  0
  9 10  2  0  0  0  0
  9 11  1  0  0  0  0
 10 12  1  0  0  0  0
 10 16  1  0  0  0  0
 11 13  2  0  0  0  0
 11 19  1  0  0  0  0
 12 14  2  0  0  0  0
 12 15  1  0  0  0  0
 13 14  1  0  0  0  0
 14 22  1  0  0  0  0
 16 17  1  0  0  0  0
 16 18  2  0  0  0  0
 19 20  1  0  0  0  0
 19 21  2  0  0  0  0
 22 23  1  0  0  0  0
 22 24  1  0  0  0  0
 22 25  1  0  0  0  0
 26 27  1  0  0  0  0
 26 28  1  0  0  0  0
 26 29  1  0  0  0  0
M  END
> <ID>
6513

> <Formula>
C13H4Cl2F6N4O4

> <FW>
465.0917

> <DSSTox_CID>
12551

> <DSSTox_RID>
78980

> <DSSTox_GSID>
32551

> <DSSTox_FileID_Sort>
3662

> <TS_ChemName>
Fluazinam

> <TS_ChemName_Synonyms>


> <TS_CASRN>
79622-59-6

> <CASRN_ChemName_Relationship>
primary

> <TS_Description>
single chemical compound

> <ChemNote>


> <STRUCTURE_Shown>
tested chemical

> <STRUCTURE_Formula>
C13H4Cl2F6N4O4

> <STRUCTURE_MW>
465.0917

> <STRUCTURE_ChemType>
defined organic

> <STRUCTURE_DefinedOrganicForm>
parent

> <STRUCTURE_IUPAC>
3-chloro-N-[3-chloro-2,6-dinitro-4-(trifluoromethyl)phenyl]-5-(trifluoromethyl)pyridin-2-amine

> <STRUCTURE_SMILES>
[O-][N+](=O)c2cc(c(Cl)c(c2Nc1ncc(cc1Cl)C(F)(F)F)[N+]([O-])=O)C(F)(F)F

> <STRUCTURE_SMILES_Desalt>
[O-][N+](=O)c2cc(c(Cl)c(c2Nc1ncc(cc1Cl)C(F)(F)F)[N+]([O-])=O)C(F)(F)F

> <Substance_modify_yyyymmdd>
20080429

$$$$
