79660-72-3
ChemmineR-0915142007XD

 26 28  0  0  0  0  0  0  0  0  1 V2000
   11.5139   -1.3241    0.0000 C   0  0  0  0  0  0  0  0  0  0  0  0
   10.3625   -1.9919    0.0000 N   0  0  0  0  0  0  0  0  0  0  0  0
   10.3625   -3.3275    0.0000 C   0  0  0  0  0  0  0  0  0  0  0  0
    9.2111   -3.9838    0.0000 C   0  0  0  0  0  0  0  0  0  0  0  0
    8.0597   -3.3275    0.0000 N   0  0  0  0  0  0  0  0  0  0  0  0
    8.0597   -1.9919    0.0000 C   0  0  0  0  0  0  0  0  0  0  0  0
    9.2111   -1.3241    0.0000 C   0  0  0  0  0  0  0  0  0  0  0  0
    6.9083   -3.9838    0.0000 C   0  0  0  0  0  0  0  0  0  0  0  0
    6.9083   -5.3194    0.0000 C   0  0  0  0  0  0  0  0  0  0  0  0
    8.0597   -5.9872    0.0000 F   0  0  0  0  0  0  0  0  0  0  0  0
    5.7569   -5.9872    0.0000 C   0  0  0  0  0  0  0  0  0  0  0  0
    4.6055   -5.3194    0.0000 C   0  0  0  0  0  0  0  0  0  0  0  0
    3.4542   -5.9872    0.0000 C   0  0  0  0  0  0  0  0  0  0  0  0
    3.4542   -7.3113    0.0000 O   0  0  0  0  0  0  0  0  0  0  0  0
    2.3028   -5.3194    0.0000 C   0  0  0  0  0  0  0  0  0  0  0  0
    2.3028   -3.9838    0.0000 C   0  0  0  0  0  0  0  0  0  0  0  0
    3.4542   -3.3275    0.0000 N   0  0  0  0  0  0  0  0  0  0  0  0
    3.4542   -1.9919    0.0000 C   0  0  0  0  0  0  0  0  0  0  0  0
    2.3028   -1.3241    0.0000 C   0  0  0  0  0  0  0  0  0  0  0  0
    2.3028    0.0000    0.0000 F   0  0  0  0  0  0  0  0  0  0  0  0
    4.6055   -3.9838    0.0000 C   0  0  0  0  0  0  0  0  0  0  0  0
    5.7569   -3.3275    0.0000 C   0  0  0  0  0  0  0  0  0  0  0  0
    5.7569   -1.9919    0.0000 F   0  0  0  0  0  0  0  0  0  0  0  0
    1.1514   -5.9872    0.0000 C   0  0  0  0  0  0  0  0  0  0  0  0
    0.0000   -5.3194    0.0000 O   0  0  0  0  0  0  0  0  0  0  0  0
    1.1514   -7.3113    0.0000 O   0  0  0  0  0  0  0  0  0  0  0  0
  1  2  1  0  0  0  0
  2  3  1  0  0  0  0
  2  7  1  0  0  0  0
  3  4  1  0  0  0  0
  4  5  1  0  0  0  0
  5  6  1  0  0  0  0
  5  8  1  0  0  0  0
  6  7  1  0  0  0  0
  8  9  2  0  0  0  0
  8 22  1  0  0  0  0
  9 10  1  0  0  0  0
  9 11  1  0  0  0  0
 11 12  2  0  0  0  0
 12 13  1  0  0  0  0
 12 21  1  0  0  0  0
 13 14  2  0  0  0  0
 13 15  1  0  0  0  0
 15 16  2  0  0  0  0
 15 24  1  0  0  0  0
 16 17  1  0  0  0  0
 17 18  1  0  0  0  0
 17 21  1  0  0  0  0
 18 19  1  0  0  0  0
 19 20  1  0  0  0  0
 21 22  2  0  0  0  0
 22 23  1  0  0  0  0
 24 25  1  0  0  0  0
 24 26  2  0  0  0  0
M  END
> <ID>
11910

> <Formula>
C17H18F3N3O3

> <FW>
369.3383

> <DSSTox_CID>
26714

> <DSSTox_RID>
81846

> <DSSTox_GSID>
46714

> <DSSTox_FileID_Sort>
6527

> <TS_ChemName>
Fleroxacin

> <TS_ChemName_Synonyms>


> <TS_CASRN>
79660-72-3

> <CASRN_ChemName_Relationship>
primary

> <TS_Description>
single chemical compound

> <ChemNote>


> <STRUCTURE_Shown>
tested chemical

> <STRUCTURE_Formula>
C17H18F3N3O3

> <STRUCTURE_MW>
369.3383

> <STRUCTURE_ChemType>
defined organic

> <STRUCTURE_DefinedOrganicForm>
parent

> <STRUCTURE_IUPAC>
6,8-difluoro-1-(2-fluoroethyl)-7-(4-methylpiperazin-1-yl)-4-oxo-1,4-dihydroquinoline-3-carboxylic acid

> <STRUCTURE_SMILES>
CN1CCN(CC1)c2c(F)c3c(cc2F)C(=O)C(=CN3CCF)C(=O)O

> <STRUCTURE_SMILES_Desalt>
CN1CCN(CC1)c2c(F)c3c(cc2F)C(=O)C(=CN3CCF)C(=O)O

> <Substance_modify_yyyymmdd>
20110804

$$$$
