797-63-7
ChemmineR-0915142007XD

 27 30  0  0  1  0  0  0  0  0  1 V2000
    6.9239   -2.1961    0.0000 C   0  0  0  0  0  0  0  0  0  0  0  0
    6.9239   -3.5280    0.0000 C   0  0  0  0  0  0  0  0  0  0  0  0
    3.4467   -5.5310    0.0000 C   0  0  0  0  0  0  0  0  0  0  0  0
    5.7547   -4.1991    0.0000 C   0  0  0  0  0  0  0  0  0  0  0  0
    4.6159   -3.5280    0.0000 C   0  0  0  0  0  0  0  0  0  0  0  0
    3.4467   -4.1991    0.0000 C   0  0  0  0  0  0  0  0  0  0  0  0
    8.1745   -1.7793    0.0000 C   0  0  0  0  0  0  0  0  0  0  0  0
    2.3080   -6.1919    0.0000 C   0  0  0  0  0  0  0  0  0  0  0  0
    9.1709   -0.8947    0.0000 C   0  0  0  0  0  0  0  0  0  0  0  0
    5.7547   -1.5454    0.0000 C   0  0  0  0  0  0  0  0  0  0  0  0
    4.6159   -2.1961    0.0000 C   0  0  0  0  0  0  0  0  0  0  0  0
    5.7547   -5.5310    0.0000 C   0  0  0  0  0  0  0  0  0  0  0  0
    8.1745   -3.9449    0.0000 C   0  0  0  0  0  0  0  0  0  0  0  0
   10.1673    0.0000    0.0000 C   0  0  0  0  0  0  0  0  0  0  0  0
    2.3080   -3.5280    0.0000 C   0  0  0  0  0  0  0  0  0  0  0  0
    4.6159   -6.1919    0.0000 C   0  0  0  0  0  0  0  0  0  0  0  0
    1.1591   -5.5310    0.0000 C   0  0  0  0  0  0  0  0  0  0  0  0
    8.9675   -2.8672    0.0000 C   0  0  0  0  0  0  0  0  0  0  0  0
    0.0000   -6.1919    0.0000 O   0  0  0  0  0  0  0  0  0  0  0  0
    1.1591   -4.1991    0.0000 C   0  0  0  0  0  0  0  0  0  0  0  0
    7.8898   -0.4982    0.0000 O   0  0  0  0  0  0  0  0  0  0  0  0
    6.9239   -0.8642    0.0000 C   0  0  0  0  0  0  0  0  0  0  0  0
    5.7750   -0.2135    0.0000 C   0  0  0  0  0  0  0  0  0  0  0  0
    5.7547   -2.8672    0.0000 H   0  0  0  0  0  0  0  0  0  0  0  0
    4.6159   -4.8600    0.0000 H   0  0  0  0  0  0  0  0  0  0  0  0
    6.9239   -4.8600    0.0000 H   0  0  0  0  0  0  0  0  0  0  0  0
    3.4467   -2.8672    0.0000 H   0  0  0  0  0  0  0  0  0  0  0  0
  1  2  1  0  0  0  0
  1  7  1  0  0  0  0
  1 10  1  0  0  0  0
  1 22  1  1  0  0  0
  2  4  1  0  0  0  0
  2 13  1  0  0  0  0
  2 26  1  6  0  0  0
  3  6  1  0  0  0  0
  3  8  2  0  0  0  0
  3 16  1  0  0  0  0
  4 12  1  0  0  0  0
  4  5  1  0  0  0  0
  4 24  1  1  0  0  0
  5 11  1  0  0  0  0
  5  6  1  0  0  0  0
  5 25  1  6  0  0  0
  6 15  1  0  0  0  0
  6 27  1  1  0  0  0
  7  9  1  6  0  0  0
  7 18  1  0  0  0  0
  7 21  1  1  0  0  0
  8 17  1  0  0  0  0
  9 14  3  0  0  0  0
 10 11  1  0  0  0  0
 12 16  1  0  0  0  0
 13 18  1  0  0  0  0
 15 20  1  0  0  0  0
 17 20  1  0  0  0  0
 17 19  2  0  0  0  0
 22 23  1  0  0  0  0
M  END
> <ID>
7130

> <Formula>
C21H28O2

> <FW>
312.4458

> <DSSTox_CID>
16496

> <DSSTox_RID>
79283

> <DSSTox_GSID>
36496

> <DSSTox_FileID_Sort>
3965

> <TS_ChemName>
Norgestrel

> <TS_ChemName_Synonyms>


> <TS_CASRN>
797-63-7

> <CASRN_ChemName_Relationship>
primary

> <TS_Description>
single chemical compound

> <ChemNote>
stereochem

> <STRUCTURE_Shown>
tested chemical

> <STRUCTURE_Formula>
C21H28O2

> <STRUCTURE_MW>
312.4458

> <STRUCTURE_ChemType>
defined organic

> <STRUCTURE_DefinedOrganicForm>
parent

> <STRUCTURE_IUPAC>
(8R,9S,10R,13S,14S,17R)-13-ethyl-17-ethynyl-17-hydroxy-1,2,6,7,8,9,10,11,12,13,14,15,16,17-tetradecahydro-3H-cyclopenta[a]phenanthren-3-one

> <STRUCTURE_SMILES>
O=C4CC[C@H]3C(CC[C@@H]2[C@@H]3CC[C@@]1(CC)[C@H]2CC[C@@]1(O)C#C)=C4

> <STRUCTURE_SMILES_Desalt>
O=C4CC[C@H]3C(CC[C@@H]2[C@@H]3CC[C@@]1(CC)[C@H]2CC[C@@]1(O)C#C)=C4

> <Substance_modify_yyyymmdd>
20080429

$$$$
