79714-31-1
ChemmineR-0915142007XD

 22 23  0  0  0  0  0  0  0  0  1 V2000
    7.8715   -9.9907    0.0000 C   0  0  0  0  0  0  0  0  0  0  0  0
    6.7254   -9.3204    0.0000 C   0  0  0  0  0  0  0  0  0  0  0  0
    9.0176    0.0000    0.0000 C   0  0  0  0  0  0  0  0  0  0  0  0
    9.0392   -1.3407    0.0000 C   0  0  0  0  0  0  0  0  0  0  0  0
    7.8715   -2.0003    0.0000 C   0  0  0  0  0  0  0  0  0  0  0  0
    7.8715   -3.3411    0.0000 C   0  0  0  0  0  0  0  0  0  0  0  0
    0.0000   -8.4554    0.0000 N   0  0  0  0  0  0  0  0  0  0  0  0
    0.6596   -9.6015    0.0000 C   0  0  0  0  0  0  0  0  0  0  0  0
    0.8866   -7.4498    0.0000 C   0  0  0  0  0  0  0  0  0  0  0  0
    1.9679   -9.3204    0.0000 S   0  0  0  0  0  0  0  0  0  0  0  0
    2.0976   -8.0012    0.0000 C   0  0  0  0  0  0  0  0  0  0  0  0
    0.1081  -10.8125    0.0000 O   0  0  0  0  0  0  0  0  0  0  0  0
    0.6163   -6.1631    0.0000 O   0  0  0  0  0  0  0  0  0  0  0  0
    5.5576   -7.3201    0.0000 C   0  0  0  0  0  0  0  0  0  0  0  0
    5.5576   -6.0117    0.0000 C   0  0  0  0  0  0  0  0  0  0  0  0
    4.4115   -5.3306    0.0000 C   0  0  0  0  0  0  0  0  0  0  0  0
    3.2654   -6.0009    0.0000 C   0  0  0  0  0  0  0  0  0  0  0  0
    3.2654   -7.3417    0.0000 C   0  0  0  0  0  0  0  0  0  0  0  0
    4.4115   -7.9796    0.0000 C   0  0  0  0  0  0  0  0  0  0  0  0
    6.7037   -8.0012    0.0000 O   0  0  0  0  0  0  0  0  0  0  0  0
    6.7254   -5.3306    0.0000 O   0  0  0  0  0  0  0  0  0  0  0  0
    6.7254   -4.0114    0.0000 C   0  0  0  0  0  0  0  0  0  0  0  0
  1  2  1  0  0  0  0
  2 20  1  0  0  0  0
  3  4  1  0  0  0  0
  4  5  1  0  0  0  0
  5  6  1  0  0  0  0
  6 22  1  0  0  0  0
  7  8  1  0  0  0  0
  7  9  1  0  0  0  0
  8 10  1  0  0  0  0
  8 12  2  0  0  0  0
  9 11  1  0  0  0  0
  9 13  2  0  0  0  0
 10 11  1  0  0  0  0
 11 18  1  0  0  0  0
 14 19  2  0  0  0  0
 14 15  1  0  0  0  0
 14 20  1  0  0  0  0
 15 16  2  0  0  0  0
 15 21  1  0  0  0  0
 16 17  1  0  0  0  0
 17 18  2  0  0  0  0
 18 19  1  0  0  0  0
 21 22  1  0  0  0  0
M  END
> <ID>
13785

> <Formula>
C16H21NO4S

> <FW>
323.4072

> <DSSTox_CID>
28722

> <DSSTox_RID>
82991

> <DSSTox_GSID>
48796

> <DSSTox_FileID_Sort>
7668

> <TS_ChemName>
Risarestat

> <TS_ChemName_Synonyms>


> <TS_CASRN>
79714-31-1

> <CASRN_ChemName_Relationship>
primary

> <TS_Description>
single chemical compound

> <ChemNote>


> <STRUCTURE_Shown>
tested chemical

> <STRUCTURE_Formula>
C16H21NO4S

> <STRUCTURE_MW>
323.4072

> <STRUCTURE_ChemType>
defined organic

> <STRUCTURE_DefinedOrganicForm>
parent

> <STRUCTURE_IUPAC>
5-[3-ethoxy-4-(pentyloxy)phenyl]-1,3-thiazolidine-2,4-dione

> <STRUCTURE_SMILES>
CCCCCOc1ccc(cc1OCC)C2SC(=O)NC2=O

> <STRUCTURE_SMILES_Desalt>
CCCCCOc1ccc(cc1OCC)C2SC(=O)NC2=O

> <Substance_modify_yyyymmdd>
20111204

$$$$
