797789-00-5
ChemmineR-0915142007XD

 19 18  0  0  0  0  0  0  0  0  2 V2000
    1.9647   -2.3044    0.0000 N   0  3  0  0  0  0  0  0  0  0  0  0
    0.6886   -2.3044    0.0000 C   0  0  0  0  0  0  0  0  0  0  0  0
    2.7083   -1.1476    0.0000 C   0  0  0  0  0  0  0  0  0  0  0  0
    1.9647    0.0000    0.0000 C   0  0  0  0  0  0  0  0  0  0  0  0
    0.0000   -1.1476    0.0000 C   0  0  0  0  0  0  0  0  0  0  0  0
    0.6886    0.0000    0.0000 C   0  0  0  0  0  0  0  0  0  0  0  0
    2.6073   -3.4428    0.0000 C   0  0  0  0  0  0  0  0  0  0  0  0
    1.9647   -4.5904    0.0000 C   0  0  0  0  0  0  0  0  0  0  0  0
    2.6073   -5.7380    0.0000 C   0  0  0  0  0  0  0  0  0  0  0  0
    1.9188   -6.8764    0.0000 C   0  0  0  0  0  0  0  0  0  0  0  0
    2.6073   -8.0332    0.0000 C   0  0  0  0  0  0  0  0  0  0  0  0
    1.9188   -9.1808    0.0000 C   0  0  0  0  0  0  0  0  0  0  0  0
    6.0410   -4.5720    0.0000 P   0  5  0  0  0  0  0  0  0  0  0  0
    4.7189   -4.5720    0.0000 F   0  0  0  0  0  0  0  0  0  0  0  0
    6.7020   -5.7380    0.0000 F   0  0  0  0  0  0  0  0  0  0  0  0
    6.7020   -3.4153    0.0000 F   0  0  0  0  0  0  0  0  0  0  0  0
    5.3800   -5.7380    0.0000 F   0  0  0  0  0  0  0  0  0  0  0  0
    5.3800   -3.4153    0.0000 F   0  0  0  0  0  0  0  0  0  0  0  0
    7.3814   -4.5720    0.0000 F   0  0  0  0  0  0  0  0  0  0  0  0
  1  2  2  0  0  0  0
  1  3  1  0  0  0  0
  1  7  1  0  0  0  0
  2  5  1  0  0  0  0
  3  4  2  0  0  0  0
  4  6  1  0  0  0  0
  5  6  2  0  0  0  0
  7  8  1  0  0  0  0
  8  9  1  0  0  0  0
  9 10  1  0  0  0  0
 10 11  1  0  0  0  0
 11 12  1  0  0  0  0
 13 14  1  0  0  0  0
 13 15  1  0  0  0  0
 13 16  1  0  0  0  0
 13 17  1  0  0  0  0
 13 18  1  0  0  0  0
 13 19  1  0  0  0  0
M  END
> <ID>
13011

> <Formula>
C11H18F6NP

> <FW>
309.2315 (164.2668+144.9647)

> <DSSTox_CID>
27912

> <DSSTox_RID>
82665

> <DSSTox_GSID>
47936

> <DSSTox_FileID_Sort>
7342

> <TS_ChemName>
1-Hexylpyridinium hexafluorophosphate

> <TS_ChemName_Synonyms>


> <TS_CASRN>
797789-00-5

> <CASRN_ChemName_Relationship>
primary

> <TS_Description>
single chemical compound

> <ChemNote>
ammonium; parent [46122-12-7]

> <STRUCTURE_Shown>
tested chemical

> <STRUCTURE_Formula>
C11H18F6NP

> <STRUCTURE_MW>
309.2315

> <STRUCTURE_ChemType>
defined organic

> <STRUCTURE_DefinedOrganicForm>
salt

> <STRUCTURE_IUPAC>
1-hexylpyridinium hexafluorophosphate

> <STRUCTURE_SMILES>
F[P-](F)(F)(F)(F)F.CCCCCC[n+]1ccccc1

> <STRUCTURE_SMILES_Desalt>
CCCCCC[n+]1ccccc1

> <Substance_modify_yyyymmdd>
20110418

$$$$
