79794-75-5
ChemmineR-0915142007XD

 27 30  0  0  0  0  0  0  0  0  1 V2000
    5.1542   -4.6110    0.0000 C    0  0  0  0  0  0  0  0  0  0  0  0
    4.0075   -3.9351    0.0000 C    0  0  0  0  0  0  0  0  0  0  0  0
    4.0920   -2.6314    0.0000 C    0  0  0  0  0  0  0  0  0  0  0  0
    3.1505   -1.6899    0.0000 C    0  0  0  0  0  0  0  0  0  0  0  0
    1.8106   -1.9072    0.0000 C    0  0  0  0  0  0  0  0  0  0  0  0
    1.1467   -3.0539    0.0000 C    0  0  0  0  0  0  0  0  0  0  0  0
    1.6175   -4.2851    0.0000 C    0  0  0  0  0  0  0  0  0  0  0  0
    2.9090   -4.6834    0.0000 C    0  0  0  0  0  0  0  0  0  0  0  0
    3.1867   -5.9629    0.0000 C    0  0  0  0  0  0  0  0  0  0  0  0
    2.2452   -6.9044    0.0000 C    0  0  0  0  0  0  0  0  0  0  0  0
    0.9415   -6.4820    0.0000 C    0  0  0  0  0  0  0  0  0  0  0  0
    0.0000   -7.4235    0.0000 Cl   0  0  0  0  0  0  0  0  0  0  0  0
    0.6760   -5.2145    0.0000 C    0  0  0  0  0  0  0  0  0  0  0  0
    3.4281   -0.4104    0.0000 C    0  0  0  0  0  0  0  0  0  0  0  0
    4.7196    0.0000    0.0000 C    0  0  0  0  0  0  0  0  0  0  0  0
    5.6612   -0.9415    0.0000 C    0  0  0  0  0  0  0  0  0  0  0  0
    5.3715   -2.2210    0.0000 N    0  0  0  0  0  0  0  0  0  0  0  0
    6.3130   -3.9351    0.0000 C    0  0  0  0  0  0  0  0  0  0  0  0
    7.4597   -4.6110    0.0000 C    0  0  0  0  0  0  0  0  0  0  0  0
    7.4597   -5.9388    0.0000 N    0  0  0  0  0  0  0  0  0  0  0  0
    8.6185   -6.6027    0.0000 C    0  0  0  0  0  0  0  0  0  0  0  0
    8.6185   -7.9305    0.0000 O    0  0  0  0  0  0  0  0  0  0  0  0
    9.7652   -5.9388    0.0000 O    0  0  0  0  0  0  0  0  0  0  0  0
   10.9240   -6.6027    0.0000 C    0  0  0  0  0  0  0  0  0  0  0  0
   12.0707   -5.9388    0.0000 C    0  0  0  0  0  0  0  0  0  0  0  0
    6.3130   -6.6027    0.0000 C    0  0  0  0  0  0  0  0  0  0  0  0
    5.1542   -5.9388    0.0000 C    0  0  0  0  0  0  0  0  0  0  0  0
  1  2  2  0  0  0  0
  1 18  1  0  0  0  0
  1 27  1  0  0  0  0
  2  3  1  0  0  0  0
  2  8  1  0  0  0  0
  3  4  2  0  0  0  0
  3 17  1  0  0  0  0
  4  5  1  0  0  0  0
  4 14  1  0  0  0  0
  5  6  1  0  0  0  0
  6  7  1  0  0  0  0
  7  8  2  0  0  0  0
  7 13  1  0  0  0  0
  8  9  1  0  0  0  0
  9 10  2  0  0  0  0
 10 11  1  0  0  0  0
 11 12  1  0  0  0  0
 11 13  2  0  0  0  0
 14 15  2  0  0  0  0
 15 16  1  0  0  0  0
 16 17  2  0  0  0  0
 18 19  1  0  0  0  0
 19 20  1  0  0  0  0
 20 21  1  0  0  0  0
 20 26  1  0  0  0  0
 21 22  2  0  0  0  0
 21 23  1  0  0  0  0
 23 24  1  0  0  0  0
 24 25  1  0  0  0  0
 26 27  1  0  0  0  0
M  END
> <ID>
2900

> <Formula>
C22H23ClN2O2

> <FW>
382.8832

> <DSSTox_CID>
3224

> <DSSTox_RID>
76931

> <DSSTox_GSID>
23224

> <DSSTox_FileID_Sort>
1615

> <TS_ChemName>
Loratadine

> <TS_ChemName_Synonyms>


> <TS_CASRN>
79794-75-5

> <CASRN_ChemName_Relationship>
primary

> <TS_Description>
single chemical compound

> <ChemNote>


> <STRUCTURE_Shown>
tested chemical

> <STRUCTURE_Formula>
C22H23ClN2O2

> <STRUCTURE_MW>
382.8832

> <STRUCTURE_ChemType>
defined organic

> <STRUCTURE_DefinedOrganicForm>
parent

> <STRUCTURE_IUPAC>
ethyl 4-(8-chloro-5,6-dihydro-11H-benzo[5,6]cyclohepta[1,2-b]pyridin-11-ylidene)piperidine-1-carboxylate

> <STRUCTURE_SMILES>
Clc3cc4CCc1cccnc1C(=C2/CCN(CC2)C(=O)OCC)\c4cc3

> <STRUCTURE_SMILES_Desalt>
Clc3cc4CCc1cccnc1C(=C2/CCN(CC2)C(=O)OCC)\c4cc3

> <Substance_modify_yyyymmdd>
20080429

$$$$
