79917-89-8
ChemmineR-0915142007XD

 10  9  0  0  0  0  0  0  0  0  1 V2000
    2.6679   -4.6265    0.0000 C    0  0  0  0  0  0  0  0  0  0  0  0
    8.0600   -1.0720    0.0000 C    0  0  0  0  0  0  0  0  0  0  0  0
    3.7479   -3.8446    0.0000 C    0  0  0  0  0  0  0  0  0  0  0  0
    3.6109   -2.5228    0.0000 C    0  0  0  0  0  0  0  0  0  0  0  0
    5.9483    0.0000    0.0000 C    0  0  0  0  0  0  0  0  0  0  0  0
    4.6829   -0.4111    0.0000 C    0  0  0  0  0  0  0  0  0  0  0  0
    5.9483   -2.1520    0.0000 C    0  0  0  0  0  0  0  0  0  0  0  0
    6.7301   -1.0720    0.0000 N    0  0  0  0  0  0  0  0  0  0  0  0
    4.6829   -1.7410    0.0000 N    0  0  0  0  0  0  0  0  0  0  0  0
    0.0000   -1.0720    0.0000 Cl   0  0  0  0  0  0  0  0  0  0  0  0
  1  3  1  0  0  0  0
  2  8  1  0  0  0  0
  3  4  1  0  0  0  0
  4  9  1  0  0  0  0
  5  6  2  0  0  0  0
  5  8  1  0  0  0  0
  6  9  1  0  0  0  0
  7  8  1  0  0  0  0
  7  9  1  0  0  0  0
M  END
> <ID>
14222

> <Formula>
C7H15ClN2

> <FW>
162.6604 (126.1995+36.4609)

> <DSSTox_CID>
29317

> <DSSTox_RID>
83433

> <DSSTox_GSID>
49358

> <DSSTox_FileID_Sort>
8108

> <TS_ChemName>
1-Methyl-3-propylimidazolium chloride

> <TS_ChemName_Synonyms>


> <TS_CASRN>
79917-89-8

> <CASRN_ChemName_Relationship>
primary

> <TS_Description>
single chemical compound

> <ChemNote>


> <STRUCTURE_Shown>
tested chemical

> <STRUCTURE_Formula>
C7H15ClN2

> <STRUCTURE_MW>
162.6604

> <STRUCTURE_ChemType>
defined organic

> <STRUCTURE_DefinedOrganicForm>
complex

> <STRUCTURE_IUPAC>
1-methyl-3-propyl-2,3-dihydro-1H-imidazole hydrochloride (1:1)

> <STRUCTURE_SMILES>
Cl.CCCN1C=CN(C)C1

> <STRUCTURE_SMILES_Desalt>
CCCN1C=CN(C)C1

> <Substance_modify_yyyymmdd>
20111204

$$$$
