79917-90-1
ChemmineR-0915142007XD

 11 10  0  0  0  0  0  0  0  0  2 V2000
    6.6242   -1.0606    0.0000 N    0  3  0  0  0  0  0  0  0  0  0  0
    4.6053   -1.7212    0.0000 N    0  0  0  0  0  0  0  0  0  0  0  0
    5.8613   -2.1305    0.0000 C    0  0  0  0  0  0  0  0  0  0  0  0
    5.8799    0.0000    0.0000 C    0  0  0  0  0  0  0  0  0  0  0  0
    4.6053   -0.3815    0.0000 C    0  0  0  0  0  0  0  0  0  0  0  0
    3.5075   -2.5027    0.0000 C    0  0  0  0  0  0  0  0  0  0  0  0
    2.2980   -1.9352    0.0000 C    0  0  0  0  0  0  0  0  0  0  0  0
    1.2281   -2.7260    0.0000 C    0  0  0  0  0  0  0  0  0  0  0  0
    0.0000   -2.1771    0.0000 C    0  0  0  0  0  0  0  0  0  0  0  0
    7.9640   -1.0606    0.0000 C    0  0  0  0  0  0  0  0  0  0  0  0
    9.3037   -2.7074    0.0000 Cl   0  5  0  0  0  0  0  0  0  0  0  0
  1  3  2  0  0  0  0
  1  4  1  0  0  0  0
  1 10  1  0  0  0  0
  2  3  1  0  0  0  0
  2  5  1  0  0  0  0
  2  6  1  0  0  0  0
  4  5  2  0  0  0  0
  6  7  1  0  0  0  0
  7  8  1  0  0  0  0
  8  9  1  0  0  0  0
M  END
> <ID>
6334

> <Formula>
C8H15ClN2

> <FW>
174.6711 (139.2176+35.4535)

> <DSSTox_CID>
11461

> <DSSTox_RID>
78878

> <DSSTox_GSID>
31461

> <DSSTox_FileID_Sort>
3560

> <TS_ChemName>
1-Butyl-3-methylimidazolium chloride

> <TS_ChemName_Synonyms>
1-Butyl-3-methylimidazolium chloride (Ionic liquid)

> <TS_CASRN>
79917-90-1

> <CASRN_ChemName_Relationship>
primary

> <TS_Description>
single chemical compound

> <ChemNote>
ammonium; parent [80432-08-2]

> <STRUCTURE_Shown>
tested chemical

> <STRUCTURE_Formula>
C8H15ClN2

> <STRUCTURE_MW>
174.6711

> <STRUCTURE_ChemType>
defined organic

> <STRUCTURE_DefinedOrganicForm>
salt

> <STRUCTURE_IUPAC>
1-butyl-3-methyl-1H-imidazol-3-ium chloride

> <STRUCTURE_SMILES>
[Cl-].CCCCn1cc[n+](C)c1

> <STRUCTURE_SMILES_Desalt>
CCCCn1cc[n+](C)c1

> <Substance_modify_yyyymmdd>
20080429

$$$$
