79944-58-4
ChemmineR-0915142007XD

 15 17  0  0  0  0  0  0  0  0  1 V2000
    0.0000   -2.9643    0.0000 C   0  0  0  0  0  0  0  0  0  0  0  0
    0.0000   -1.6388    0.0000 C   0  0  0  0  0  0  0  0  0  0  0  0
    1.2613   -1.2291    0.0000 N   0  0  0  0  0  0  0  0  0  0  0  0
    2.0485   -2.3056    0.0000 C   0  0  0  0  0  0  0  0  0  0  0  0
    1.2613   -3.3821    0.0000 N   0  0  0  0  0  0  0  0  0  0  0  0
    3.3741   -2.3056    0.0000 C   0  0  0  0  0  0  0  0  0  0  0  0
    4.0408   -3.4544    0.0000 C   0  0  0  0  0  0  0  0  0  0  0  0
    5.3744   -3.4544    0.0000 O   0  0  0  0  0  0  0  0  0  0  0  0
    6.0412   -2.3056    0.0000 C   0  0  0  0  0  0  0  0  0  0  0  0
    5.3744   -1.1488    0.0000 C   0  0  0  0  0  0  0  0  0  0  0  0
    4.0408   -1.1488    0.0000 O   0  0  0  0  0  0  0  0  0  0  0  0
    6.0412    0.0000    0.0000 C   0  0  0  0  0  0  0  0  0  0  0  0
    7.3667    0.0000    0.0000 C   0  0  0  0  0  0  0  0  0  0  0  0
    8.0335   -1.1488    0.0000 C   0  0  0  0  0  0  0  0  0  0  0  0
    7.3667   -2.3056    0.0000 C   0  0  0  0  0  0  0  0  0  0  0  0
  1  2  1  0  0  0  0
  1  5  1  0  0  0  0
  2  3  1  0  0  0  0
  3  4  2  0  0  0  0
  4  5  1  0  0  0  0
  4  6  1  0  0  0  0
  6  7  1  0  0  0  0
  6 11  1  0  0  0  0
  7  8  1  0  0  0  0
  8  9  1  0  0  0  0
  9 10  2  0  0  0  0
  9 15  1  0  0  0  0
 10 11  1  0  0  0  0
 10 12  1  0  0  0  0
 12 13  2  0  0  0  0
 13 14  1  0  0  0  0
 14 15  2  0  0  0  0
M  END
> <ID>
10780

> <Formula>
C11H12N2O2

> <FW>
204.2252

> <DSSTox_CID>
25161

> <DSSTox_RID>
80711

> <DSSTox_GSID>
45161

> <DSSTox_FileID_Sort>
5392

> <TS_ChemName>
Idazoxan

> <TS_ChemName_Synonyms>


> <TS_CASRN>
79944-58-4

> <CASRN_ChemName_Relationship>
primary

> <TS_Description>
single chemical compound

> <ChemNote>


> <STRUCTURE_Shown>
tested chemical

> <STRUCTURE_Formula>
C11H12N2O2

> <STRUCTURE_MW>
204.2252

> <STRUCTURE_ChemType>
defined organic

> <STRUCTURE_DefinedOrganicForm>
parent

> <STRUCTURE_IUPAC>
2-(2,3-dihydro-1,4-benzodioxin-2-yl)-4,5-dihydro-1H-imidazole

> <STRUCTURE_SMILES>
c1ccc2OC(COc2c1)C3=NCCN3

> <STRUCTURE_SMILES_Desalt>
c1ccc2OC(COc2c1)C3=NCCN3

> <Substance_modify_yyyymmdd>
20100107

$$$$
