79983-71-4
ChemmineR-0915142007XD

 20 21  0  0  0  0  0  0  0  0  1 V2000
    0.7901   -2.2536    0.0000 N    0  0  0  0  0  0  0  0  0  0  0  0
    2.0471   -2.6756    0.0000 C    0  0  0  0  0  0  0  0  0  0  0  0
    2.0471   -4.0044    0.0000 N    0  0  0  0  0  0  0  0  0  0  0  0
    0.7901   -4.4084    0.0000 N    0  0  0  0  0  0  0  0  0  0  0  0
    0.0000   -3.3310    0.0000 C    0  0  0  0  0  0  0  0  0  0  0  0
    3.2143   -4.6508    0.0000 C    0  0  0  0  0  0  0  0  0  0  0  0
    4.3635   -4.0044    0.0000 C    0  0  0  0  0  0  0  0  0  0  0  0
    5.5218   -5.9886    0.0000 C    0  0  0  0  0  0  0  0  0  0  0  0
    5.5218   -4.6508    0.0000 C    0  0  0  0  0  0  0  0  0  0  0  0
    6.6620   -4.0044    0.0000 C    0  0  0  0  0  0  0  0  0  0  0  0
    7.8203   -4.6508    0.0000 C    0  0  0  0  0  0  0  0  0  0  0  0
    7.8203   -5.9886    0.0000 C    0  0  0  0  0  0  0  0  0  0  0  0
    6.6620   -6.6620    0.0000 C    0  0  0  0  0  0  0  0  0  0  0  0
    6.6620   -2.6756    0.0000 Cl   0  0  0  0  0  0  0  0  0  0  0  0
    8.9785   -6.6620    0.0000 Cl   0  0  0  0  0  0  0  0  0  0  0  0
    4.3635   -2.6756    0.0000 C    0  0  0  0  0  0  0  0  0  0  0  0
    5.5218   -1.9932    0.0000 C    0  0  0  0  0  0  0  0  0  0  0  0
    5.5218   -0.6644    0.0000 C    0  0  0  0  0  0  0  0  0  0  0  0
    6.6620    0.0000    0.0000 C    0  0  0  0  0  0  0  0  0  0  0  0
    3.6812   -5.1536    0.0000 O    0  0  0  0  0  0  0  0  0  0  0  0
  1  5  1  0  0  0  0
  1  2  2  0  0  0  0
  2  3  1  0  0  0  0
  3  6  1  0  0  0  0
  3  4  1  0  0  0  0
  4  5  2  0  0  0  0
  6  7  1  0  0  0  0
  7  9  1  0  0  0  0
  7 16  1  0  0  0  0
  7 20  1  0  0  0  0
  8 13  1  0  0  0  0
  8  9  2  0  0  0  0
  9 10  1  0  0  0  0
 10 11  2  0  0  0  0
 10 14  1  0  0  0  0
 11 12  1  0  0  0  0
 12 13  2  0  0  0  0
 12 15  1  0  0  0  0
 16 17  1  0  0  0  0
 17 18  1  0  0  0  0
 18 19  1  0  0  0  0
M  END
> <ID>
6858

> <Formula>
C14H17Cl2N3O

> <FW>
314.2103

> <DSSTox_CID>
14653

> <DSSTox_RID>
79183

> <DSSTox_GSID>
34653

> <DSSTox_FileID_Sort>
3865

> <TS_ChemName>
Hexaconazole

> <TS_ChemName_Synonyms>


> <TS_CASRN>
79983-71-4

> <CASRN_ChemName_Relationship>
primary

> <TS_Description>
single chemical compound

> <ChemNote>
mixture of (2R,S) isomers; structure shown without stereochem

> <STRUCTURE_Shown>
tested chemical

> <STRUCTURE_Formula>
C14H17Cl2N3O

> <STRUCTURE_MW>
314.2103

> <STRUCTURE_ChemType>
defined organic

> <STRUCTURE_DefinedOrganicForm>
parent

> <STRUCTURE_IUPAC>
2-(2,4-dichlorophenyl)-1-(1H-1,2,4-triazol-1-yl)hexan-2-ol

> <STRUCTURE_SMILES>
OC(CCCC)(Cn1cncn1)c2ccc(Cl)cc2Cl

> <STRUCTURE_SMILES_Desalt>
OC(CCCC)(Cn1cncn1)c2ccc(Cl)cc2Cl

> <Substance_modify_yyyymmdd>
20080429

$$$$
