80-07-9
ChemmineR-0915142007XD

 17 18  0  0  0  0  0  0  0  0  1 V2000
    4.6090   -1.1486    0.0000 S    0  0  0  0  0  0  0  0  0  0  0  0
    5.7576   -0.4798    0.0000 O    0  0  0  0  0  0  0  0  0  0  0  0
    3.9474    0.0000    0.0000 O    0  0  0  0  0  0  0  0  0  0  0  0
    5.2778   -2.3045    0.0000 C    0  0  0  0  0  0  0  0  0  0  0  0
    6.6081   -2.3045    0.0000 C    0  0  0  0  0  0  0  0  0  0  0  0
    7.2697   -3.4458    0.0000 C    0  0  0  0  0  0  0  0  0  0  0  0
    6.6081   -4.6017    0.0000 C    0  0  0  0  0  0  0  0  0  0  0  0
    7.2697   -5.7576    0.0000 Cl   0  0  0  0  0  0  0  0  0  0  0  0
    5.2778   -4.6017    0.0000 C    0  0  0  0  0  0  0  0  0  0  0  0
    4.6090   -3.4458    0.0000 C    0  0  0  0  0  0  0  0  0  0  0  0
    3.4531   -1.8101    0.0000 C    0  0  0  0  0  0  0  0  0  0  0  0
    3.4531   -3.1405    0.0000 C    0  0  0  0  0  0  0  0  0  0  0  0
    2.3118   -3.8166    0.0000 C    0  0  0  0  0  0  0  0  0  0  0  0
    1.1559   -3.1405    0.0000 C    0  0  0  0  0  0  0  0  0  0  0  0
    0.0000   -3.8166    0.0000 Cl   0  0  0  0  0  0  0  0  0  0  0  0
    1.1559   -1.8101    0.0000 C    0  0  0  0  0  0  0  0  0  0  0  0
    2.3118   -1.1486    0.0000 C    0  0  0  0  0  0  0  0  0  0  0  0
  1  2  2  0  0  0  0
  1  3  2  0  0  0  0
  1  4  1  0  0  0  0
  1 11  1  0  0  0  0
  4  5  1  0  0  0  0
  4 10  2  0  0  0  0
  5  6  2  0  0  0  0
  6  7  1  0  0  0  0
  7  8  1  0  0  0  0
  7  9  2  0  0  0  0
  9 10  1  0  0  0  0
 11 12  1  0  0  0  0
 11 17  2  0  0  0  0
 12 13  2  0  0  0  0
 13 14  1  0  0  0  0
 14 15  1  0  0  0  0
 14 16  2  0  0  0  0
 16 17  1  0  0  0  0
M  END
> <ID>
3953

> <Formula>
C12H8Cl2O2S

> <FW>
287.1617

> <DSSTox_CID>
4986

> <DSSTox_RID>
77613

> <DSSTox_GSID>
24986

> <DSSTox_FileID_Sort>
2296

> <TS_ChemName>
4,4'-Dichlorodiphenyl sulfone

> <TS_ChemName_Synonyms>
4,4’-Dichlorodiphenyl sulfone (p,p'-Dichlorodiphenyl sulfone) (Benzene, 1,1'-sulfonylbis[4-chloro-)

> <TS_CASRN>
80-07-9

> <CASRN_ChemName_Relationship>
primary

> <TS_Description>
single chemical compound

> <ChemNote>


> <STRUCTURE_Shown>
tested chemical

> <STRUCTURE_Formula>
C12H8Cl2O2S

> <STRUCTURE_MW>
287.1617

> <STRUCTURE_ChemType>
defined organic

> <STRUCTURE_DefinedOrganicForm>
parent

> <STRUCTURE_IUPAC>
bis(4-chlorophenyl) sulfone

> <STRUCTURE_SMILES>
O=S(=O)(c1ccc(Cl)cc1)c2ccc(Cl)cc2

> <STRUCTURE_SMILES_Desalt>
O=S(=O)(c1ccc(Cl)cc1)c2ccc(Cl)cc2

> <Substance_modify_yyyymmdd>
20080429

$$$$
