80-06-8
ChemmineR-0915142007XD

 17 18  0  0  0  0  0  0  0  0  1 V2000
    3.8224   -0.9556    0.0000 C    0  0  0  0  0  0  0  0  0  0  0  0
    2.8668   -1.8811    0.0000 C    0  0  0  0  0  0  0  0  0  0  0  0
    4.7479   -1.9112    0.0000 C    0  0  0  0  0  0  0  0  0  0  0  0
    3.1903   -3.1678    0.0000 C    0  0  0  0  0  0  0  0  0  0  0  0
    6.0421   -1.5876    0.0000 C    0  0  0  0  0  0  0  0  0  0  0  0
    1.5876   -1.5124    0.0000 C    0  0  0  0  0  0  0  0  0  0  0  0
    4.3867   -3.1903    0.0000 C    0  0  0  0  0  0  0  0  0  0  0  0
    2.8969    0.0000    0.0000 O    0  0  0  0  0  0  0  0  0  0  0  0
    0.9556   -3.7246    0.0000 C    0  0  0  0  0  0  0  0  0  0  0  0
    6.5989   -3.8224    0.0000 C    0  0  0  0  0  0  0  0  0  0  0  0
    0.6320   -2.4379    0.0000 C    0  0  0  0  0  0  0  0  0  0  0  0
    5.3122   -4.1459    0.0000 C    0  0  0  0  0  0  0  0  0  0  0  0
    2.2347   -4.0933    0.0000 C    0  0  0  0  0  0  0  0  0  0  0  0
    6.9676   -2.5432    0.0000 C    0  0  0  0  0  0  0  0  0  0  0  0
    0.0000   -4.6501    0.0000 Cl   0  0  0  0  0  0  0  0  0  0  0  0
    7.5244   -4.7780    0.0000 Cl   0  0  0  0  0  0  0  0  0  0  0  0
    4.7780   -0.0301    0.0000 C    0  0  0  0  0  0  0  0  0  0  0  0
  1  2  1  0  0  0  0
  1  3  1  0  0  0  0
  1  8  1  0  0  0  0
  1 17  1  0  0  0  0
  2  4  2  0  0  0  0
  2  6  1  0  0  0  0
  3  5  2  0  0  0  0
  3  7  1  0  0  0  0
  4 13  1  0  0  0  0
  5 14  1  0  0  0  0
  6 11  2  0  0  0  0
  7 12  2  0  0  0  0
  9 11  1  0  0  0  0
  9 15  1  0  0  0  0
  9 13  2  0  0  0  0
 10 12  1  0  0  0  0
 10 16  1  0  0  0  0
 10 14  2  0  0  0  0
M  END
> <ID>
7660

> <Formula>
C14H12Cl2O

> <FW>
267.1505

> <DSSTox_CID>
20283

> <DSSTox_RID>
79468

> <DSSTox_GSID>
40283

> <DSSTox_FileID_Sort>
4150

> <TS_ChemName>
Chlorfenethol

> <TS_ChemName_Synonyms>


> <TS_CASRN>
80-06-8

> <CASRN_ChemName_Relationship>
primary

> <TS_Description>
single chemical compound

> <ChemNote>


> <STRUCTURE_Shown>
tested chemical

> <STRUCTURE_Formula>
C14H12Cl2O

> <STRUCTURE_MW>
267.1505

> <STRUCTURE_ChemType>
defined organic

> <STRUCTURE_DefinedOrganicForm>
parent

> <STRUCTURE_IUPAC>
1,1-bis(4-chlorophenyl)ethanol

> <STRUCTURE_SMILES>
OC(C)(c1ccc(Cl)cc1)c2ccc(Cl)cc2

> <STRUCTURE_SMILES_Desalt>
OC(C)(c1ccc(Cl)cc1)c2ccc(Cl)cc2

> <Substance_modify_yyyymmdd>
20080429

$$$$
