80-00-2
ChemmineR-0915142007XD

 16 17  0  0  0  0  0  0  0  0  1 V2000
    8.6747   -0.1776    0.0000 C    0  0  0  0  0  0  0  0  0  0  0  0
    9.3478   -1.3180    0.0000 C    0  0  0  0  0  0  0  0  0  0  0  0
    7.3380   -0.1776    0.0000 C    0  0  0  0  0  0  0  0  0  0  0  0
    8.6747   -2.4678    0.0000 C    0  0  0  0  0  0  0  0  0  0  0  0
    6.6837   -1.3274    0.0000 C    0  0  0  0  0  0  0  0  0  0  0  0
    7.3380   -2.4678    0.0000 C    0  0  0  0  0  0  0  0  0  0  0  0
    5.3469   -1.3274    0.0000 S    0  0  0  0  0  0  0  0  0  0  0  0
    5.3469   -2.6641    0.0000 O    0  0  0  0  0  0  0  0  0  0  0  0
    5.3469    0.0000    0.0000 O    0  0  0  0  0  0  0  0  0  0  0  0
    4.0195   -1.3274    0.0000 C    0  0  0  0  0  0  0  0  0  0  0  0
    3.3372   -2.4678    0.0000 C    0  0  0  0  0  0  0  0  0  0  0  0
    3.3372   -0.1776    0.0000 C    0  0  0  0  0  0  0  0  0  0  0  0
    2.0098   -2.4678    0.0000 C    0  0  0  0  0  0  0  0  0  0  0  0
    2.0098   -0.1776    0.0000 C    0  0  0  0  0  0  0  0  0  0  0  0
    1.3367   -1.3274    0.0000 C    0  0  0  0  0  0  0  0  0  0  0  0
    0.0000   -1.3274    0.0000 Cl   0  0  0  0  0  0  0  0  0  0  0  0
  1  2  1  0  0  0  0
  1  3  2  0  0  0  0
  2  4  2  0  0  0  0
  3  5  1  0  0  0  0
  4  6  1  0  0  0  0
  5  6  2  0  0  0  0
  5  7  1  0  0  0  0
  7  8  2  0  0  0  0
  7  9  2  0  0  0  0
  7 10  1  0  0  0  0
 10 11  1  0  0  0  0
 10 12  2  0  0  0  0
 11 13  2  0  0  0  0
 12 14  1  0  0  0  0
 13 15  1  0  0  0  0
 14 15  2  0  0  0  0
 15 16  1  0  0  0  0
M  END
> <ID>
9188

> <Formula>
C12H9ClO2S

> <FW>
252.7167

> <DSSTox_CID>
22259

> <DSSTox_RID>
79977

> <DSSTox_GSID>
42259

> <DSSTox_FileID_Sort>
4659

> <TS_ChemName>
4-Chlorophenyl phenyl sulfone

> <TS_ChemName_Synonyms>


> <TS_CASRN>
80-00-2

> <CASRN_ChemName_Relationship>
primary

> <TS_Description>
single chemical compound

> <ChemNote>


> <STRUCTURE_Shown>
tested chemical

> <STRUCTURE_Formula>
C12H9ClO2S

> <STRUCTURE_MW>
252.7167

> <STRUCTURE_ChemType>
defined organic

> <STRUCTURE_DefinedOrganicForm>
parent

> <STRUCTURE_IUPAC>
4-chlorophenyl phenyl sulfone

> <STRUCTURE_SMILES>
O=S(=O)(c1ccc(Cl)cc1)c2ccccc2

> <STRUCTURE_SMILES_Desalt>
O=S(=O)(c1ccc(Cl)cc1)c2ccccc2

> <Substance_modify_yyyymmdd>
20080825

$$$$
