80-13-7
ChemmineR-0915142007XD

 15 15  0  0  0  0  0  0  0  0  1 V2000
    1.3321   -1.9941    0.0000 S    0  0  0  0  0  0  0  0  0  0  0  0
    2.6561   -1.9941    0.0000 O    0  0  0  0  0  0  0  0  0  0  0  0
    0.0000   -1.9941    0.0000 O    0  0  0  0  0  0  0  0  0  0  0  0
    1.3321   -0.6620    0.0000 N    0  0  0  0  0  0  0  0  0  0  0  0
    2.4807    0.0000    0.0000 Cl   0  0  0  0  0  0  0  0  0  0  0  0
    0.1755    0.0000    0.0000 Cl   0  0  0  0  0  0  0  0  0  0  0  0
    1.3321   -3.3262    0.0000 C    0  0  0  0  0  0  0  0  0  0  0  0
    0.1755   -3.9882    0.0000 C    0  0  0  0  0  0  0  0  0  0  0  0
    0.1755   -5.3203    0.0000 C    0  0  0  0  0  0  0  0  0  0  0  0
    1.3321   -5.9823    0.0000 C    0  0  0  0  0  0  0  0  0  0  0  0
    2.4807   -5.3203    0.0000 C    0  0  0  0  0  0  0  0  0  0  0  0
    2.4807   -3.9882    0.0000 C    0  0  0  0  0  0  0  0  0  0  0  0
    1.3321   -7.3144    0.0000 C    0  0  0  0  0  0  0  0  0  0  0  0
    0.1755   -7.9764    0.0000 O    0  0  0  0  0  0  0  0  0  0  0  0
    2.4807   -7.9764    0.0000 O    0  0  0  0  0  0  0  0  0  0  0  0
  1  2  2  0  0  0  0
  1  3  2  0  0  0  0
  1  4  1  0  0  0  0
  1  7  1  0  0  0  0
  4  5  1  0  0  0  0
  4  6  1  0  0  0  0
  7  8  2  0  0  0  0
  7 12  1  0  0  0  0
  8  9  1  0  0  0  0
  9 10  2  0  0  0  0
 10 11  1  0  0  0  0
 10 13  1  0  0  0  0
 11 12  2  0  0  0  0
 13 14  2  0  0  0  0
 13 15  1  0  0  0  0
M  END
> <ID>
4164

> <Formula>
C7H5Cl2NO4S

> <FW>
270.0899

> <DSSTox_CID>
5370

> <DSSTox_RID>
77766

> <DSSTox_GSID>
25370

> <DSSTox_FileID_Sort>
2449

> <TS_ChemName>
Halazone

> <TS_ChemName_Synonyms>


> <TS_CASRN>
80-13-7

> <CASRN_ChemName_Relationship>
primary

> <TS_Description>
single chemical compound

> <ChemNote>


> <STRUCTURE_Shown>
tested chemical

> <STRUCTURE_Formula>
C7H5Cl2NO4S

> <STRUCTURE_MW>
270.0899

> <STRUCTURE_ChemType>
defined organic

> <STRUCTURE_DefinedOrganicForm>
parent

> <STRUCTURE_IUPAC>
4-(dichlorosulfamoyl)benzoic acid

> <STRUCTURE_SMILES>
O=S(=O)(N(Cl)Cl)c1ccc(cc1)C(=O)O

> <STRUCTURE_SMILES_Desalt>
O=S(=O)(N(Cl)Cl)c1ccc(cc1)C(=O)O

> <Substance_modify_yyyymmdd>
20080429

$$$$
