80-27-3
ChemmineR-0915142007XD

 15 15  0  0  0  0  0  0  0  0  1 V2000
    3.9950   -2.3002    0.0000 C   0  0  0  0  0  0  0  0  0  0  0  0
    3.3431   -1.1547    0.0000 C   0  0  0  0  0  0  0  0  0  0  0  0
    2.0115   -1.1547    0.0000 C   0  0  0  0  0  0  0  0  0  0  0  0
    1.3317   -2.3002    0.0000 C   0  0  0  0  0  0  0  0  0  0  0  0
    2.0115   -3.4549    0.0000 C   0  0  0  0  0  0  0  0  0  0  0  0
    3.3431   -3.4549    0.0000 C   0  0  0  0  0  0  0  0  0  0  0  0
    0.0000   -2.3002    0.0000 C   0  0  0  0  0  0  0  0  0  0  0  0
    5.3267   -2.3002    0.0000 C   0  0  0  0  0  0  0  0  0  0  0  0
    6.6677   -2.3002    0.0000 O   0  0  0  0  0  0  0  0  0  0  0  0
    5.3267   -3.6318    0.0000 C   0  0  0  0  0  0  0  0  0  0  0  0
    5.3174   -0.9685    0.0000 C   0  0  0  0  0  0  0  0  0  0  0  0
    7.3009   -1.1454    0.0000 C   0  0  0  0  0  0  0  0  0  0  0  0
    8.6419   -1.1454    0.0000 C   0  0  0  0  0  0  0  0  0  0  0  0
    6.6490    0.0000    0.0000 O   0  0  0  0  0  0  0  0  0  0  0  0
    9.3124    0.0000    0.0000 C   0  0  0  0  0  0  0  0  0  0  0  0
  1  2  1  0  0  0  0
  1  6  1  0  0  0  0
  1  8  1  0  0  0  0
  2  3  1  0  0  0  0
  3  4  2  0  0  0  0
  4  5  1  0  0  0  0
  4  7  1  0  0  0  0
  5  6  1  0  0  0  0
  8  9  1  0  0  0  0
  8 10  1  0  0  0  0
  8 11  1  0  0  0  0
  9 12  1  0  0  0  0
 12 13  1  0  0  0  0
 12 14  2  0  0  0  0
 13 15  1  0  0  0  0
M  END
> <ID>
10481

> <Formula>
C13H22O2

> <FW>
210.3126

> <DSSTox_CID>
24833

> <DSSTox_RID>
80514

> <DSSTox_GSID>
44833

> <DSSTox_FileID_Sort>
5196

> <TS_ChemName>
2-(4-Methylcyclohex-3-en-1-yl)propan-2-yl propanoate

> <TS_ChemName_Synonyms>
2-(4-Methylcyclohex-3-en-1-yl)propan-2-yl propanoate (3-Cyclohexene-1-methanol, .alpha.,.alpha.,4-trimethyl-, propanoate) (Terpinyl propionate)

> <TS_CASRN>
80-27-3

> <CASRN_ChemName_Relationship>
primary

> <TS_Description>
single chemical compound

> <ChemNote>


> <STRUCTURE_Shown>
tested chemical

> <STRUCTURE_Formula>
C13H22O2

> <STRUCTURE_MW>
210.3126

> <STRUCTURE_ChemType>
defined organic

> <STRUCTURE_DefinedOrganicForm>
parent

> <STRUCTURE_IUPAC>
2-(4-methylcyclohex-3-en-1-yl)propan-2-yl propanoate

> <STRUCTURE_SMILES>
CCC(=O)OC(C)(C)C1CC=C(C)CC1

> <STRUCTURE_SMILES_Desalt>
CCC(=O)OC(C)(C)C1CC=C(C)CC1

> <Substance_modify_yyyymmdd>
20091116

$$$$
