80-32-0
ChemmineR-0915142007XD

 18 19  0  0  0  0  0  0  0  0  1 V2000
    5.7399   -2.6523    0.0000 S    0  0  0  0  0  0  0  0  0  0  0  0
    4.5898   -3.3051    0.0000 N    0  0  0  0  0  0  0  0  0  0  0  0
    3.4605   -2.6523    0.0000 C    0  0  0  0  0  0  0  0  0  0  0  0
    2.2794   -3.3051    0.0000 N    0  0  0  0  0  0  0  0  0  0  0  0
    1.1397   -2.6523    0.0000 N    0  0  0  0  0  0  0  0  0  0  0  0
    6.8899   -1.9789    0.0000 C    0  0  0  0  0  0  0  0  0  0  0  0
    5.0871   -1.4919    0.0000 O    0  0  0  0  0  0  0  0  0  0  0  0
    6.4029   -3.7920    0.0000 O    0  0  0  0  0  0  0  0  0  0  0  0
    1.1397   -1.3158    0.0000 C    0  0  0  0  0  0  0  0  0  0  0  0
    6.8899   -0.6424    0.0000 C    0  0  0  0  0  0  0  0  0  0  0  0
    8.0607   -2.6523    0.0000 C    0  0  0  0  0  0  0  0  0  0  0  0
    3.4605   -1.3158    0.0000 C    0  0  0  0  0  0  0  0  0  0  0  0
    0.0000   -0.6424    0.0000 Cl   0  0  0  0  0  0  0  0  0  0  0  0
    9.2003   -0.6424    0.0000 C    0  0  0  0  0  0  0  0  0  0  0  0
    2.2794   -0.6424    0.0000 C    0  0  0  0  0  0  0  0  0  0  0  0
   10.3607    0.0000    0.0000 N    0  0  0  0  0  0  0  0  0  0  0  0
    8.0607    0.0000    0.0000 C    0  0  0  0  0  0  0  0  0  0  0  0
    9.2003   -1.9789    0.0000 C    0  0  0  0  0  0  0  0  0  0  0  0
  1  2  1  0  0  0  0
  1  6  1  0  0  0  0
  1  7  2  0  0  0  0
  1  8  2  0  0  0  0
  2  3  1  0  0  0  0
  3  4  1  0  0  0  0
  3 12  2  0  0  0  0
  4  5  2  0  0  0  0
  5  9  1  0  0  0  0
  6 10  2  0  0  0  0
  6 11  1  0  0  0  0
  9 15  2  0  0  0  0
  9 13  1  0  0  0  0
 10 17  1  0  0  0  0
 11 18  2  0  0  0  0
 12 15  1  0  0  0  0
 14 18  1  0  0  0  0
 14 16  1  0  0  0  0
 14 17  2  0  0  0  0
M  END
> <ID>
10848

> <Formula>
C10H9ClN4O2S

> <FW>
284.7221

> <DSSTox_CID>
25265

> <DSSTox_RID>
80778

> <DSSTox_GSID>
45265

> <DSSTox_FileID_Sort>
5459

> <TS_ChemName>
Sulfachloropyridazine

> <TS_ChemName_Synonyms>


> <TS_CASRN>
80-32-0

> <CASRN_ChemName_Relationship>
primary

> <TS_Description>
single chemical compound

> <ChemNote>


> <STRUCTURE_Shown>
tested chemical

> <STRUCTURE_Formula>
C10H9ClN4O2S

> <STRUCTURE_MW>
284.7221

> <STRUCTURE_ChemType>
defined organic

> <STRUCTURE_DefinedOrganicForm>
parent

> <STRUCTURE_IUPAC>
4-amino-N-(6-chloropyridazin-3-yl)benzenesulfonamide

> <STRUCTURE_SMILES>
O=S(=O)(Nc1ccc(Cl)nn1)c2ccc(N)cc2

> <STRUCTURE_SMILES_Desalt>
O=S(=O)(Nc1ccc(Cl)nn1)c2ccc(N)cc2

> <Substance_modify_yyyymmdd>
20100107

$$$$
