80-35-3
ChemmineR-0915142007XD

 19 20  0  0  0  0  0  0  0  0  1 V2000
    5.7697   -3.3207    0.0000 S   0  0  0  0  0  0  0  0  0  0  0  0
    4.6075   -3.9848    0.0000 N   0  0  0  0  0  0  0  0  0  0  0  0
    3.4660   -3.3207    0.0000 C   0  0  0  0  0  0  0  0  0  0  0  0
    2.3037   -3.9848    0.0000 N   0  0  0  0  0  0  0  0  0  0  0  0
    1.1622   -3.3207    0.0000 N   0  0  0  0  0  0  0  0  0  0  0  0
    6.9112   -2.6566    0.0000 C   0  0  0  0  0  0  0  0  0  0  0  0
    5.0952   -2.1792    0.0000 O   0  0  0  0  0  0  0  0  0  0  0  0
    6.4338   -4.4829    0.0000 O   0  0  0  0  0  0  0  0  0  0  0  0
    1.1622   -1.9924    0.0000 C   0  0  0  0  0  0  0  0  0  0  0  0
    6.9112   -1.3283    0.0000 C   0  0  0  0  0  0  0  0  0  0  0  0
    8.0734   -3.3207    0.0000 C   0  0  0  0  0  0  0  0  0  0  0  0
    3.4660   -1.9924    0.0000 C   0  0  0  0  0  0  0  0  0  0  0  0
    9.2149   -1.3283    0.0000 C   0  0  0  0  0  0  0  0  0  0  0  0
    2.3037   -1.3283    0.0000 C   0  0  0  0  0  0  0  0  0  0  0  0
   10.3772   -0.6641    0.0000 N   0  0  0  0  0  0  0  0  0  0  0  0
    8.0734   -0.6641    0.0000 C   0  0  0  0  0  0  0  0  0  0  0  0
    9.2149   -2.6566    0.0000 C   0  0  0  0  0  0  0  0  0  0  0  0
    0.0000   -1.3283    0.0000 O   0  0  0  0  0  0  0  0  0  0  0  0
    0.0000    0.0000    0.0000 C   0  0  0  0  0  0  0  0  0  0  0  0
  1  2  1  0  0  0  0
  1  6  1  0  0  0  0
  1  7  2  0  0  0  0
  1  8  2  0  0  0  0
  2  3  1  0  0  0  0
  3  4  1  0  0  0  0
  3 12  2  0  0  0  0
  4  5  2  0  0  0  0
  5  9  1  0  0  0  0
  6 10  2  0  0  0  0
  6 11  1  0  0  0  0
  9 14  2  0  0  0  0
  9 18  1  0  0  0  0
 10 16  1  0  0  0  0
 11 17  2  0  0  0  0
 12 14  1  0  0  0  0
 13 17  1  0  0  0  0
 13 15  1  0  0  0  0
 13 16  2  0  0  0  0
 18 19  1  0  0  0  0
M  END
> <ID>
3230

> <Formula>
C11H12N4O3S

> <FW>
280.303

> <DSSTox_CID>
3611

> <DSSTox_RID>
77108

> <DSSTox_GSID>
23611

> <DSSTox_FileID_Sort>
1791

> <TS_ChemName>
Sulfamethoxypyridazine

> <TS_ChemName_Synonyms>


> <TS_CASRN>
80-35-3

> <CASRN_ChemName_Relationship>
primary

> <TS_Description>
single chemical compound

> <ChemNote>


> <STRUCTURE_Shown>
tested chemical

> <STRUCTURE_Formula>
C11H12N4O3S

> <STRUCTURE_MW>
280.303

> <STRUCTURE_ChemType>
defined organic

> <STRUCTURE_DefinedOrganicForm>
parent

> <STRUCTURE_IUPAC>
4-amino-N-(6-methoxypyridazin-3-yl)benzenesulfonamide

> <STRUCTURE_SMILES>
O=S(=O)(Nc1ccc(OC)nn1)c2ccc(N)cc2

> <STRUCTURE_SMILES_Desalt>
O=S(=O)(Nc1ccc(OC)nn1)c2ccc(N)cc2

> <Substance_modify_yyyymmdd>
20080429

$$$$
