80-33-1
ChemmineR-0915142007XD

 18 19  0  0  0  0  0  0  0  0  1 V2000
    6.4219    0.0000    0.0000 O    0  0  0  0  0  0  0  0  0  0  0  0
    5.7590   -1.1497    0.0000 S    0  0  0  0  0  0  0  0  0  0  0  0
    5.0858   -2.3098    0.0000 O    0  0  0  0  0  0  0  0  0  0  0  0
    6.9087   -1.8230    0.0000 C    0  0  0  0  0  0  0  0  0  0  0  0
    8.0585   -1.1497    0.0000 C    0  0  0  0  0  0  0  0  0  0  0  0
    9.2082   -1.8230    0.0000 C    0  0  0  0  0  0  0  0  0  0  0  0
    9.2082   -3.1488    0.0000 C    0  0  0  0  0  0  0  0  0  0  0  0
    8.0585   -3.8117    0.0000 C    0  0  0  0  0  0  0  0  0  0  0  0
    6.9087   -3.1488    0.0000 C    0  0  0  0  0  0  0  0  0  0  0  0
   10.3579   -3.8117    0.0000 Cl   0  0  0  0  0  0  0  0  0  0  0  0
    4.5989   -0.4868    0.0000 O    0  0  0  0  0  0  0  0  0  0  0  0
    3.4492   -1.1497    0.0000 C    0  0  0  0  0  0  0  0  0  0  0  0
    2.2995   -0.4868    0.0000 C    0  0  0  0  0  0  0  0  0  0  0  0
    1.1497   -1.1497    0.0000 C    0  0  0  0  0  0  0  0  0  0  0  0
    1.1497   -2.4859    0.0000 C    0  0  0  0  0  0  0  0  0  0  0  0
    2.2995   -3.1488    0.0000 C    0  0  0  0  0  0  0  0  0  0  0  0
    3.4492   -2.4859    0.0000 C    0  0  0  0  0  0  0  0  0  0  0  0
    0.0000   -3.1488    0.0000 Cl   0  0  0  0  0  0  0  0  0  0  0  0
  1  2  2  0  0  0  0
  2  3  2  0  0  0  0
  2  4  1  0  0  0  0
  2 11  1  0  0  0  0
  4  5  2  0  0  0  0
  4  9  1  0  0  0  0
  5  6  1  0  0  0  0
  6  7  2  0  0  0  0
  7  8  1  0  0  0  0
  7 10  1  0  0  0  0
  8  9  2  0  0  0  0
 11 12  1  0  0  0  0
 12 13  2  0  0  0  0
 12 17  1  0  0  0  0
 13 14  1  0  0  0  0
 14 15  2  0  0  0  0
 15 16  1  0  0  0  0
 15 18  1  0  0  0  0
 16 17  2  0  0  0  0
M  END
> <ID>
301

> <Formula>
C12H8Cl2O3S

> <FW>
303.1611

> <DSSTox_CID>
310

> <DSSTox_RID>
75505

> <DSSTox_GSID>
20310

> <DSSTox_FileID_Sort>
189

> <TS_ChemName>
Chlorfenson

> <TS_ChemName_Synonyms>
Chlorfenson (Ovex) (p-Chlorophenyl-p-chlorobenzene sulfonate)

> <TS_CASRN>
80-33-1

> <CASRN_ChemName_Relationship>
primary

> <TS_Description>
single chemical compound

> <ChemNote>


> <STRUCTURE_Shown>
tested chemical

> <STRUCTURE_Formula>
C12H8Cl2O3S

> <STRUCTURE_MW>
303.1611

> <STRUCTURE_ChemType>
defined organic

> <STRUCTURE_DefinedOrganicForm>
parent

> <STRUCTURE_IUPAC>
4-chlorophenyl 4-chlorobenzenesulfonate

> <STRUCTURE_SMILES>
Clc1ccc(cc1)S(=O)(=O)Oc2ccc(Cl)cc2

> <STRUCTURE_SMILES_Desalt>
Clc1ccc(cc1)S(=O)(=O)Oc2ccc(Cl)cc2

> <Substance_modify_yyyymmdd>
20080429

$$$$
