80-38-6
ChemmineR-0915142007XD

 17 18  0  0  0  0  0  0  0  0  1 V2000
    2.6638   -1.3233    0.0000 C    0  0  0  0  0  0  0  0  0  0  0  0
    2.0022   -2.4834    0.0000 C    0  0  0  0  0  0  0  0  0  0  0  0
    0.6703   -2.4834    0.0000 C    0  0  0  0  0  0  0  0  0  0  0  0
    0.0000   -1.3233    0.0000 C    0  0  0  0  0  0  0  0  0  0  0  0
    0.6703   -0.1719    0.0000 C    0  0  0  0  0  0  0  0  0  0  0  0
    2.0022   -0.1719    0.0000 C    0  0  0  0  0  0  0  0  0  0  0  0
    3.9958   -1.3233    0.0000 S    0  0  0  0  0  0  0  0  0  0  0  0
    3.9958    0.0000    0.0000 O    0  0  0  0  0  0  0  0  0  0  0  0
    3.9958   -2.6552    0.0000 O    0  0  0  0  0  0  0  0  0  0  0  0
    5.3191   -1.3233    0.0000 O    0  0  0  0  0  0  0  0  0  0  0  0
    5.1472   -3.3169    0.0000 C    0  0  0  0  0  0  0  0  0  0  0  0
    6.2987   -2.6552    0.0000 C    0  0  0  0  0  0  0  0  0  0  0  0
    5.1472   -4.6488    0.0000 C    0  0  0  0  0  0  0  0  0  0  0  0
    7.4416   -3.3169    0.0000 C    0  0  0  0  0  0  0  0  0  0  0  0
    6.2987   -5.3191    0.0000 C    0  0  0  0  0  0  0  0  0  0  0  0
    7.4416   -4.6488    0.0000 C    0  0  0  0  0  0  0  0  0  0  0  0
    8.5930   -5.3191    0.0000 Cl   0  0  0  0  0  0  0  0  0  0  0  0
  1  2  1  0  0  0  0
  1  6  2  0  0  0  0
  1  7  1  0  0  0  0
  2  3  2  0  0  0  0
  3  4  1  0  0  0  0
  4  5  2  0  0  0  0
  5  6  1  0  0  0  0
  7  8  2  0  0  0  0
  7  9  1  0  0  0  0
  7 10  2  0  0  0  0
  9 11  1  0  0  0  0
 11 12  2  0  0  0  0
 11 13  1  0  0  0  0
 12 14  1  0  0  0  0
 13 15  2  0  0  0  0
 14 16  2  0  0  0  0
 15 16  1  0  0  0  0
 16 17  1  0  0  0  0
M  END
> <ID>
8908

> <Formula>
C12H9ClO3S

> <FW>
268.7161

> <DSSTox_CID>
21973

> <DSSTox_RID>
79891

> <DSSTox_GSID>
41973

> <DSSTox_FileID_Sort>
4573

> <TS_ChemName>
Fenson

> <TS_ChemName_Synonyms>


> <TS_CASRN>
80-38-6

> <CASRN_ChemName_Relationship>
primary

> <TS_Description>
single chemical compound

> <ChemNote>


> <STRUCTURE_Shown>
tested chemical

> <STRUCTURE_Formula>
C12H9ClO3S

> <STRUCTURE_MW>
268.7161

> <STRUCTURE_ChemType>
defined organic

> <STRUCTURE_DefinedOrganicForm>
parent

> <STRUCTURE_IUPAC>
4-chlorophenyl benzenesulfonate

> <STRUCTURE_SMILES>
Clc2ccc(OS(=O)(=O)c1ccccc1)cc2

> <STRUCTURE_SMILES_Desalt>
Clc2ccc(OS(=O)(=O)c1ccccc1)cc2

> <Substance_modify_yyyymmdd>
20080825

$$$$
