80-56-8
ChemmineR-0915142007XD

 10 11  0  0  0  0  0  0  0  0  1 V2000
    1.8080   -1.1533    0.0000 C   0  0  0  0  0  0  0  0  0  0  0  0
    1.8080   -3.4562    0.0000 C   0  0  0  0  0  0  0  0  0  0  0  0
    3.1364   -1.1533    0.0000 C   0  0  0  0  0  0  0  0  0  0  0  0
    3.8063   -2.3028    0.0000 C   0  0  0  0  0  0  0  0  0  0  0  0
    3.1364   -3.4562    0.0000 C   0  0  0  0  0  0  0  0  0  0  0  0
    0.0000   -2.9766    0.0000 C   0  0  0  0  0  0  0  0  0  0  0  0
    0.0000   -1.6481    0.0000 C   0  0  0  0  0  0  0  0  0  0  0  0
    3.8063    0.0000    0.0000 C   0  0  0  0  0  0  0  0  0  0  0  0
    1.1533   -2.3028    0.0000 C   0  0  0  0  0  0  0  0  0  0  0  0
    2.4779   -2.3028    0.0000 C   0  0  0  0  0  0  0  0  0  0  0  0
  1  9  1  0  0  0  0
  1  3  1  0  0  0  0
  1 10  1  0  0  0  0
  2  9  1  0  0  0  0
  2  5  1  0  0  0  0
  2 10  1  0  0  0  0
  3  4  2  0  0  0  0
  3  8  1  0  0  0  0
  4  5  1  0  0  0  0
  6  9  1  0  0  0  0
  7  9  1  0  0  0  0
M  END
> <ID>
4700

> <Formula>
C10H16

> <FW>
136.234

> <DSSTox_CID>
6501

> <DSSTox_RID>
78126

> <DSSTox_GSID>
26501

> <DSSTox_FileID_Sort>
2809

> <TS_ChemName>
alpha-Pinene

> <TS_ChemName_Synonyms>
alpha-Pinene (Bicyclo[3.1.1]hept-2-ene, 2,6,6-trimethyl-)

> <TS_CASRN>
80-56-8

> <CASRN_ChemName_Relationship>
primary

> <TS_Description>
single chemical compound

> <ChemNote>


> <STRUCTURE_Shown>
tested chemical

> <STRUCTURE_Formula>
C10H16

> <STRUCTURE_MW>
136.234

> <STRUCTURE_ChemType>
defined organic

> <STRUCTURE_DefinedOrganicForm>
parent

> <STRUCTURE_IUPAC>
2,6,6-trimethylbicyclo[3.1.1]hept-2-ene

> <STRUCTURE_SMILES>
CC2(C)C1CC=C(C)C2C1

> <STRUCTURE_SMILES_Desalt>
CC2(C)C1CC=C(C)C2C1

> <Substance_modify_yyyymmdd>
20120529

$$$$
