80-51-3
ChemmineR-0915142007XD

 23 24  0  0  0  0  0  0  0  0  1 V2000
    9.2227   -2.0034    0.0000 C   0  0  0  0  0  0  0  0  0  0  0  0
    8.0713   -2.6597    0.0000 C   0  0  0  0  0  0  0  0  0  0  0  0
    6.9199   -2.0034    0.0000 C   0  0  0  0  0  0  0  0  0  0  0  0
    6.9199   -0.6793    0.0000 C   0  0  0  0  0  0  0  0  0  0  0  0
    8.0713    0.0000    0.0000 C   0  0  0  0  0  0  0  0  0  0  0  0
    9.2227   -0.6793    0.0000 C   0  0  0  0  0  0  0  0  0  0  0  0
   10.3626   -2.6597    0.0000 S   0  0  0  0  0  0  0  0  0  0  0  0
    9.7063   -3.8111    0.0000 O   0  0  0  0  0  0  0  0  0  0  0  0
   11.0304   -1.5083    0.0000 O   0  0  0  0  0  0  0  0  0  0  0  0
    2.3028   -2.0034    0.0000 C   0  0  0  0  0  0  0  0  0  0  0  0
    2.3028   -0.6793    0.0000 C   0  0  0  0  0  0  0  0  0  0  0  0
    3.4542    0.0000    0.0000 C   0  0  0  0  0  0  0  0  0  0  0  0
    4.6171   -0.6793    0.0000 C   0  0  0  0  0  0  0  0  0  0  0  0
    4.6171   -2.0034    0.0000 C   0  0  0  0  0  0  0  0  0  0  0  0
    3.4542   -2.6597    0.0000 C   0  0  0  0  0  0  0  0  0  0  0  0
    1.1514   -2.6597    0.0000 S   0  0  0  0  0  0  0  0  0  0  0  0
    0.4951   -1.5083    0.0000 O   0  0  0  0  0  0  0  0  0  0  0  0
    1.8307   -3.8111    0.0000 O   0  0  0  0  0  0  0  0  0  0  0  0
    5.7685    0.0000    0.0000 O   0  0  0  0  0  0  0  0  0  0  0  0
    0.0000   -3.3391    0.0000 N   0  0  0  0  0  0  0  0  0  0  0  0
    0.0000   -4.6632    0.0000 N   0  0  0  0  0  0  0  0  0  0  0  0
   11.5140   -3.3391    0.0000 N   0  0  0  0  0  0  0  0  0  0  0  0
   11.5140   -4.6632    0.0000 N   0  0  0  0  0  0  0  0  0  0  0  0
  1  2  2  0  0  0  0
  1  6  1  0  0  0  0
  1  7  1  0  0  0  0
  2  3  1  0  0  0  0
  3  4  2  0  0  0  0
  4  5  1  0  0  0  0
  4 19  1  0  0  0  0
  5  6  2  0  0  0  0
  7  8  2  0  0  0  0
  7  9  2  0  0  0  0
  7 22  1  0  0  0  0
 10 11  2  0  0  0  0
 10 15  1  0  0  0  0
 10 16  1  0  0  0  0
 11 12  1  0  0  0  0
 12 13  2  0  0  0  0
 13 14  1  0  0  0  0
 13 19  1  0  0  0  0
 14 15  2  0  0  0  0
 16 17  2  0  0  0  0
 16 18  2  0  0  0  0
 16 20  1  0  0  0  0
 20 21  1  0  0  0  0
 22 23  1  0  0  0  0
M  END
> <ID>
4698

> <Formula>
C12H14N4O5S2

> <FW>
358.3934

> <DSSTox_CID>
6499

> <DSSTox_RID>
78124

> <DSSTox_GSID>
26499

> <DSSTox_FileID_Sort>
2807

> <TS_ChemName>
Benzenesulfonic acid, 4,4'-oxybis-, dihydrazide

> <TS_ChemName_Synonyms>


> <TS_CASRN>
80-51-3

> <CASRN_ChemName_Relationship>
primary

> <TS_Description>
single chemical compound

> <ChemNote>


> <STRUCTURE_Shown>
tested chemical

> <STRUCTURE_Formula>
C12H14N4O5S2

> <STRUCTURE_MW>
358.3934

> <STRUCTURE_ChemType>
defined organic

> <STRUCTURE_DefinedOrganicForm>
parent

> <STRUCTURE_IUPAC>
4,4'-oxydibenzenesulfonohydrazide

> <STRUCTURE_SMILES>
O=S(=O)(NN)c2ccc(Oc1ccc(cc1)S(=O)(=O)NN)cc2

> <STRUCTURE_SMILES_Desalt>
O=S(=O)(NN)c2ccc(Oc1ccc(cc1)S(=O)(=O)NN)cc2

> <Substance_modify_yyyymmdd>
20080429

$$$$
