80-54-6
ChemmineR-0915142007XD

 15 15  0  0  0  0  0  0  0  0  1 V2000
    5.3101   -2.3063    0.0000 C   0  0  0  0  0  0  0  0  0  0  0  0
    4.6591   -3.4595    0.0000 C   0  0  0  0  0  0  0  0  0  0  0  0
    3.3293   -3.4595    0.0000 C   0  0  0  0  0  0  0  0  0  0  0  0
    2.6597   -2.3063    0.0000 C   0  0  0  0  0  0  0  0  0  0  0  0
    3.3293   -1.1532    0.0000 C   0  0  0  0  0  0  0  0  0  0  0  0
    4.6591   -1.1532    0.0000 C   0  0  0  0  0  0  0  0  0  0  0  0
    8.6394   -1.1532    0.0000 C   0  0  0  0  0  0  0  0  0  0  0  0
    7.3188   -1.1532    0.0000 C   0  0  0  0  0  0  0  0  0  0  0  0
    6.6400   -2.3063    0.0000 C   0  0  0  0  0  0  0  0  0  0  0  0
    9.2997   -2.3063    0.0000 O   0  0  0  0  0  0  0  0  0  0  0  0
    1.3299   -2.3063    0.0000 C   0  0  0  0  0  0  0  0  0  0  0  0
    1.3299   -3.6362    0.0000 C   0  0  0  0  0  0  0  0  0  0  0  0
    1.3299   -0.9765    0.0000 C   0  0  0  0  0  0  0  0  0  0  0  0
    0.0000   -2.3063    0.0000 C   0  0  0  0  0  0  0  0  0  0  0  0
    6.6400    0.0000    0.0000 C   0  0  0  0  0  0  0  0  0  0  0  0
  1  2  2  0  0  0  0
  1  6  1  0  0  0  0
  1  9  1  0  0  0  0
  2  3  1  0  0  0  0
  3  4  2  0  0  0  0
  4  5  1  0  0  0  0
  4 11  1  0  0  0  0
  5  6  2  0  0  0  0
  7  8  1  0  0  0  0
  7 10  2  0  0  0  0
  8  9  1  0  0  0  0
  8 15  1  0  0  0  0
 11 12  1  0  0  0  0
 11 13  1  0  0  0  0
 11 14  1  0  0  0  0
M  END
> <ID>
4699

> <Formula>
C14H20O

> <FW>
204.308

> <DSSTox_CID>
6500

> <DSSTox_RID>
78125

> <DSSTox_GSID>
26500

> <DSSTox_FileID_Sort>
2808

> <TS_ChemName>
3-(4-tert-Butylphenyl)-2-methylpropanal

> <TS_ChemName_Synonyms>
Benzenepropanal, 4-(1,1-dimethylethyl)-alpha-methyl- (2-(4-tert-Butylbenzyl)propionaldehyde) (3-(4-tert-butylphenyl)-2-methylpropanal)

> <TS_CASRN>
80-54-6

> <CASRN_ChemName_Relationship>
primary

> <TS_Description>
single chemical compound

> <ChemNote>


> <STRUCTURE_Shown>
tested chemical

> <STRUCTURE_Formula>
C14H20O

> <STRUCTURE_MW>
204.308

> <STRUCTURE_ChemType>
defined organic

> <STRUCTURE_DefinedOrganicForm>
parent

> <STRUCTURE_IUPAC>
3-(4-tert-butylphenyl)-2-methylpropanal

> <STRUCTURE_SMILES>
CC(C)(C)c1ccc(CC(C)C=O)cc1

> <STRUCTURE_SMILES_Desalt>
CC(C)(C)c1ccc(CC(C)C=O)cc1

> <Substance_modify_yyyymmdd>
20080429

$$$$
