80-77-3
ChemmineR-0915142007XD

 17 18  0  0  0  0  0  0  0  0  1 V2000
    7.3149   -1.3082    0.0000 C    0  0  0  0  0  0  0  0  0  0  0  0
    7.9770   -2.4569    0.0000 C    0  0  0  0  0  0  0  0  0  0  0  0
    7.3149   -3.6136    0.0000 C    0  0  0  0  0  0  0  0  0  0  0  0
    7.9770   -4.7623    0.0000 O    0  0  0  0  0  0  0  0  0  0  0  0
    5.9828   -3.6136    0.0000 N    0  0  0  0  0  0  0  0  0  0  0  0
    5.3207   -4.7623    0.0000 C    0  0  0  0  0  0  0  0  0  0  0  0
    5.3207   -2.4569    0.0000 C    0  0  0  0  0  0  0  0  0  0  0  0
    3.9885   -2.4569    0.0000 C    0  0  0  0  0  0  0  0  0  0  0  0
    3.3264   -3.6136    0.0000 C    0  0  0  0  0  0  0  0  0  0  0  0
    1.9943   -3.6136    0.0000 C    0  0  0  0  0  0  0  0  0  0  0  0
    1.3322   -2.4569    0.0000 C    0  0  0  0  0  0  0  0  0  0  0  0
    0.0000   -2.4569    0.0000 Cl   0  0  0  0  0  0  0  0  0  0  0  0
    1.9943   -1.3082    0.0000 C    0  0  0  0  0  0  0  0  0  0  0  0
    3.3264   -1.3082    0.0000 C    0  0  0  0  0  0  0  0  0  0  0  0
    5.9828   -1.3082    0.0000 S    0  0  0  0  0  0  0  0  0  0  0  0
    4.7304   -0.8535    0.0000 O    0  0  0  0  0  0  0  0  0  0  0  0
    6.2141    0.0000    0.0000 O    0  0  0  0  0  0  0  0  0  0  0  0
  1  2  1  0  0  0  0
  1 15  1  0  0  0  0
  2  3  1  0  0  0  0
  3  4  2  0  0  0  0
  3  5  1  0  0  0  0
  5  6  1  0  0  0  0
  5  7  1  0  0  0  0
  7  8  1  0  0  0  0
  7 15  1  0  0  0  0
  8  9  2  0  0  0  0
  8 14  1  0  0  0  0
  9 10  1  0  0  0  0
 10 11  2  0  0  0  0
 11 12  1  0  0  0  0
 11 13  1  0  0  0  0
 13 14  2  0  0  0  0
 15 16  2  0  0  0  0
 15 17  2  0  0  0  0
M  END
> <ID>
2531

> <Formula>
C11H12ClNO3S

> <FW>
273.7359

> <DSSTox_CID>
2798

> <DSSTox_RID>
76732

> <DSSTox_GSID>
22798

> <DSSTox_FileID_Sort>
1416

> <TS_ChemName>
Chlormezanone

> <TS_ChemName_Synonyms>


> <TS_CASRN>
80-77-3

> <CASRN_ChemName_Relationship>
primary

> <TS_Description>
single chemical compound

> <ChemNote>


> <STRUCTURE_Shown>
tested chemical

> <STRUCTURE_Formula>
C11H12ClNO3S

> <STRUCTURE_MW>
273.7359

> <STRUCTURE_ChemType>
defined organic

> <STRUCTURE_DefinedOrganicForm>
parent

> <STRUCTURE_IUPAC>
2-(4-chlorophenyl)-3-methyl-1,3-thiazinan-4-one 1,1-dioxide

> <STRUCTURE_SMILES>
O=C1CCS(=O)(=O)C(N1C)c2ccc(Cl)cc2

> <STRUCTURE_SMILES_Desalt>
O=C1CCS(=O)(=O)C(N1C)c2ccc(Cl)cc2

> <Substance_modify_yyyymmdd>
20080429

$$$$
