80-74-0
ChemmineR-0915142007XD

 21 22  0  0  0  0  0  0  0  0  1 V2000
    5.9737    0.0000    0.0000 C   0  0  0  0  0  0  0  0  0  0  0  0
    7.0994   -0.6491    0.0000 C   0  0  0  0  0  0  0  0  0  0  0  0
    8.2169    0.0000    0.0000 N   0  0  0  0  0  0  0  0  0  0  0  0
    7.0994   -1.9392    0.0000 C   0  0  0  0  0  0  0  0  0  0  0  0
    5.9737   -2.5883    0.0000 C   0  0  0  0  0  0  0  0  0  0  0  0
    4.8562   -1.9392    0.0000 C   0  0  0  0  0  0  0  0  0  0  0  0
    3.7305   -2.5883    0.0000 S   0  0  0  0  0  0  0  0  0  0  0  0
    4.3796   -3.7140    0.0000 O   0  0  0  0  0  0  0  0  0  0  0  0
    3.0895   -1.4708    0.0000 O   0  0  0  0  0  0  0  0  0  0  0  0
    2.2761   -3.4347    0.0000 N   0  0  0  0  0  0  0  0  0  0  0  0
    2.2761   -5.1109    0.0000 C   0  0  0  0  0  0  0  0  0  0  0  0
    3.3278   -5.8751    0.0000 O   0  0  0  0  0  0  0  0  0  0  0  0
    2.9252   -7.1076    0.0000 N   0  0  0  0  0  0  0  0  0  0  0  0
    1.6269   -7.1076    0.0000 C   0  0  0  0  0  0  0  0  0  0  0  0
    0.8710   -8.1512    0.0000 C   0  0  0  0  0  0  0  0  0  0  0  0
    1.2325   -5.8751    0.0000 C   0  0  0  0  0  0  0  0  0  0  0  0
    0.0000   -5.4724    0.0000 C   0  0  0  0  0  0  0  0  0  0  0  0
    1.1586   -2.7855    0.0000 C   0  0  0  0  0  0  0  0  0  0  0  0
    0.0329   -3.4347    0.0000 O   0  0  0  0  0  0  0  0  0  0  0  0
    1.1586   -1.4873    0.0000 C   0  0  0  0  0  0  0  0  0  0  0  0
    4.8562   -0.6491    0.0000 C   0  0  0  0  0  0  0  0  0  0  0  0
  1  2  2  0  0  0  0
  1 21  1  0  0  0  0
  2  3  1  0  0  0  0
  2  4  1  0  0  0  0
  4  5  2  0  0  0  0
  5  6  1  0  0  0  0
  6  7  1  0  0  0  0
  6 21  2  0  0  0  0
  7  8  2  0  0  0  0
  7  9  2  0  0  0  0
  7 10  1  0  0  0  0
 10 11  1  0  0  0  0
 10 18  1  0  0  0  0
 11 12  1  0  0  0  0
 11 16  2  0  0  0  0
 12 13  1  0  0  0  0
 13 14  2  0  0  0  0
 14 15  1  0  0  0  0
 14 16  1  0  0  0  0
 16 17  1  0  0  0  0
 18 19  2  0  0  0  0
 18 20  1  0  0  0  0
M  END
> <ID>
3237

> <Formula>
C13H15N3O4S

> <FW>
309.3409

> <DSSTox_CID>
3620

> <DSSTox_RID>
97551

> <DSSTox_GSID>
23620

> <DSSTox_FileID_Sort>
8326

> <TS_ChemName>
Sulfisoxazole acetal

> <TS_ChemName_Synonyms>


> <TS_CASRN>
80-74-0

> <CASRN_ChemName_Relationship>
primary

> <TS_Description>
single chemical compound

> <ChemNote>


> <STRUCTURE_Shown>
tested chemical

> <STRUCTURE_Formula>
C13H15N3O4S

> <STRUCTURE_MW>
309.3409

> <STRUCTURE_ChemType>
defined organic

> <STRUCTURE_DefinedOrganicForm>
parent

> <STRUCTURE_IUPAC>
N-[(4-aminophenyl)sulfonyl]-N-(3,4-dimethyl-1,2-oxazol-5-yl)acetamide

> <STRUCTURE_SMILES>
Cc1c(onc1C)N(C(C)=O)S(=O)(=O)c2ccc(N)cc2

> <STRUCTURE_SMILES_Desalt>
Cc1c(onc1C)N(C(C)=O)S(=O)(=O)c2ccc(N)cc2

> <Substance_modify_yyyymmdd>
20080429

$$$$
