80-92-2
ChemmineR-0915142007XD

 28 31  0  0  1  0  0  0  0  0  1 V2000
    6.9374   -2.6485    0.0000 C   0  0  0  0  0  0  0  0  0  0  0  0
    3.4786   -4.6645    0.0000 C   0  0  0  0  0  0  0  0  0  0  0  0
    6.9374   -3.9826    0.0000 C   0  0  0  0  0  0  0  0  0  0  0  0
    4.6151   -3.9826    0.0000 C   0  0  0  0  0  0  0  0  0  0  0  0
    5.7812   -4.6645    0.0000 C   0  0  0  0  0  0  0  0  0  0  0  0
    8.1925   -2.2532    0.0000 C   0  0  0  0  0  0  0  0  0  0  0  0
    3.4786   -5.9690    0.0000 C   0  0  0  0  0  0  0  0  0  0  0  0
    5.7812   -1.9962    0.0000 C   0  0  0  0  0  0  0  0  0  0  0  0
    4.6151   -2.6485    0.0000 C   0  0  0  0  0  0  0  0  0  0  0  0
    8.1925   -4.3878    0.0000 C   0  0  0  0  0  0  0  0  0  0  0  0
    2.3224   -3.9826    0.0000 C   0  0  0  0  0  0  0  0  0  0  0  0
    8.9831   -3.3106    0.0000 C   0  0  0  0  0  0  0  0  0  0  0  0
    5.7812   -5.9690    0.0000 C   0  0  0  0  0  0  0  0  0  0  0  0
    4.6151   -6.6410    0.0000 C   0  0  0  0  0  0  0  0  0  0  0  0
    2.3224   -6.6410    0.0000 C   0  0  0  0  0  0  0  0  0  0  0  0
    8.5977   -0.9586    0.0000 C   0  0  0  0  0  0  0  0  0  0  0  0
    6.9374   -1.3144    0.0000 C   0  0  0  0  0  0  0  0  0  0  0  0
    1.1760   -4.6645    0.0000 C   0  0  0  0  0  0  0  0  0  0  0  0
    1.1760   -5.9690    0.0000 C   0  0  0  0  0  0  0  0  0  0  0  0
    3.4786   -3.3106    0.0000 C   0  0  0  0  0  0  0  0  0  0  0  0
    7.6984    0.0000    0.0000 O   0  0  0  0  0  0  0  0  0  0  0  0
    0.0000   -6.6607    0.0000 O   0  0  0  0  0  0  0  0  0  0  0  0
    9.8824   -0.6918    0.0000 C   0  0  0  0  0  0  0  0  0  0  0  0
    3.4786   -7.3031    0.0000 H   0  0  0  0  0  0  0  0  0  0  0  0
    8.1925   -3.5675    0.0000 H   0  0  0  0  0  0  0  0  0  0  0  0
    5.7812   -3.3304    0.0000 H   0  0  0  0  0  0  0  0  0  0  0  0
    4.6151   -5.3068    0.0000 H   0  0  0  0  0  0  0  0  0  0  0  0
    6.9374   -5.3068    0.0000 H   0  0  0  0  0  0  0  0  0  0  0  0
  1  3  1  0  0  0  0
  1  6  1  0  0  0  0
  1  8  1  0  0  0  0
  1 17  1  1  0  0  0
  2  4  1  0  0  0  0
  2  7  1  0  0  0  0
  2 11  1  0  0  0  0
  2 20  1  1  0  0  0
  3  5  1  0  0  0  0
  3 10  1  0  0  0  0
  3 28  1  6  0  0  0
  4  9  1  0  0  0  0
  4  5  1  0  0  0  0
  4 27  1  6  0  0  0
  5 13  1  0  0  0  0
  5 26  1  1  0  0  0
  6 12  1  0  0  0  0
  6 16  1  0  0  0  0
  6 25  1  6  0  0  0
  7 15  1  0  0  0  0
  7 14  1  0  0  0  0
  7 24  1  1  0  0  0
  8  9  1  0  0  0  0
 10 12  1  0  0  0  0
 11 18  1  0  0  0  0
 13 14  1  0  0  0  0
 15 19  1  0  0  0  0
 16 21  1  0  0  0  0
 16 23  1  0  0  0  0
 18 19  1  0  0  0  0
 19 22  1  1  0  0  0
M  END
> <ID>
11513

> <Formula>
C21H36O2

> <FW>
320.5093

> <DSSTox_CID>
26218

> <DSSTox_RID>
81446

> <DSSTox_GSID>
46218

> <DSSTox_FileID_Sort>
6127

> <TS_ChemName>
Pregnandiol

> <TS_ChemName_Synonyms>


> <TS_CASRN>
80-92-2

> <CASRN_ChemName_Relationship>
primary

> <TS_Description>
single chemical compound

> <ChemNote>


> <STRUCTURE_Shown>
tested chemical

> <STRUCTURE_Formula>
C21H36O2

> <STRUCTURE_MW>
320.5093

> <STRUCTURE_ChemType>
defined organic

> <STRUCTURE_DefinedOrganicForm>
parent

> <STRUCTURE_IUPAC>
(3beta,5beta)-pregnane-3,20-diol

> <STRUCTURE_SMILES>
CC(O)[C@H]4CC[C@@H]3[C@]4(C)CC[C@H]1[C@H]3CC[C@@H]2C[C@@H](O)CC[C@]12C

> <STRUCTURE_SMILES_Desalt>
CC(O)[C@H]4CC[C@@H]3[C@]4(C)CC[C@H]1[C@H]3CC[C@@H]2C[C@@H](O)CC[C@]12C

> <Substance_modify_yyyymmdd>
20110817

$$$$
