800-22-6
ChemmineR-0915142007XD

 24 26  0  0  0  0  0  0  0  0  1 V2000
    3.4559    0.0000    0.0000 C    0  0  0  0  0  0  0  0  0  0  0  0
    2.2982   -0.6653    0.0000 C    0  0  0  0  0  0  0  0  0  0  0  0
    2.2982   -1.9958    0.0000 N    0  0  0  0  0  0  0  0  0  0  0  0
    1.1491   -2.6610    0.0000 C    0  0  0  0  0  0  0  0  0  0  0  0
    1.1491   -3.9915    0.0000 C    0  0  0  0  0  0  0  0  0  0  0  0
    3.4559   -2.6610    0.0000 C    0  0  0  0  0  0  0  0  0  0  0  0
    3.4559   -3.9915    0.0000 C    0  0  0  0  0  0  0  0  0  0  0  0
    4.6049   -4.6481    0.0000 C    0  0  0  0  0  0  0  0  0  0  0  0
    5.7540   -3.9915    0.0000 O    0  0  0  0  0  0  0  0  0  0  0  0
    4.6049   -5.9787    0.0000 N    0  0  0  0  0  0  0  0  0  0  0  0
    5.7540   -6.6439    0.0000 C    0  0  0  0  0  0  0  0  0  0  0  0
    6.9031   -5.9787    0.0000 C    0  0  0  0  0  0  0  0  0  0  0  0
    8.0608   -6.6439    0.0000 C    0  0  0  0  0  0  0  0  0  0  0  0
    8.0608   -7.9744    0.0000 C    0  0  0  0  0  0  0  0  0  0  0  0
    6.9031   -8.6397    0.0000 C    0  0  0  0  0  0  0  0  0  0  0  0
    5.7540   -7.9744    0.0000 C    0  0  0  0  0  0  0  0  0  0  0  0
    4.6049   -8.6397    0.0000 S    0  0  0  0  0  0  0  0  0  0  0  0
    3.4559   -7.9744    0.0000 C    0  0  0  0  0  0  0  0  0  0  0  0
    2.2982   -8.6397    0.0000 C    0  0  0  0  0  0  0  0  0  0  0  0
    1.1491   -7.9744    0.0000 C    0  0  0  0  0  0  0  0  0  0  0  0
    1.1491   -6.6439    0.0000 C    0  0  0  0  0  0  0  0  0  0  0  0
    0.0000   -5.9787    0.0000 Cl   0  0  0  0  0  0  0  0  0  0  0  0
    2.2982   -5.9787    0.0000 C    0  0  0  0  0  0  0  0  0  0  0  0
    3.4559   -6.6439    0.0000 C    0  0  0  0  0  0  0  0  0  0  0  0
  1  2  1  0  0  0  0
  2  3  1  0  0  0  0
  3  4  1  0  0  0  0
  3  6  1  0  0  0  0
  4  5  1  0  0  0  0
  6  7  1  0  0  0  0
  7  8  1  0  0  0  0
  8  9  2  0  0  0  0
  8 10  1  0  0  0  0
 10 11  1  0  0  0  0
 10 24  1  0  0  0  0
 11 12  2  0  0  0  0
 11 16  1  0  0  0  0
 12 13  1  0  0  0  0
 13 14  2  0  0  0  0
 14 15  1  0  0  0  0
 15 16  2  0  0  0  0
 16 17  1  0  0  0  0
 17 18  1  0  0  0  0
 18 19  2  0  0  0  0
 18 24  1  0  0  0  0
 19 20  1  0  0  0  0
 20 21  2  0  0  0  0
 21 22  1  0  0  0  0
 21 23  1  0  0  0  0
 23 24  2  0  0  0  0
M  END
> <ID>
11481

> <Formula>
C19H21ClN2OS

> <FW>
360.9008

> <DSSTox_CID>
26183

> <DSSTox_RID>
81414

> <DSSTox_GSID>
46183

> <DSSTox_FileID_Sort>
6095

> <TS_ChemName>
Chloracizine

> <TS_ChemName_Synonyms>


> <TS_CASRN>
800-22-6

> <CASRN_ChemName_Relationship>
primary

> <TS_Description>
single chemical compound

> <ChemNote>


> <STRUCTURE_Shown>
tested chemical

> <STRUCTURE_Formula>
C19H21ClN2OS

> <STRUCTURE_MW>
360.9008

> <STRUCTURE_ChemType>
defined organic

> <STRUCTURE_DefinedOrganicForm>
parent

> <STRUCTURE_IUPAC>
1-(2-chloro-10H-phenothiazin-10-yl)-3-(diethylamino)propan-1-one

> <STRUCTURE_SMILES>
CCN(CC)CCC(=O)N1c3ccccc3Sc2ccc(Cl)cc12

> <STRUCTURE_SMILES_Desalt>
CCN(CC)CCC(=O)N1c3ccccc3Sc2ccc(Cl)cc12

> <Substance_modify_yyyymmdd>
20110818

$$$$
