8001-54-5
ChemmineR-0915142007XD

 23 22  0  0  0  0  0  0  0  0  2 V2000
    3.5705   -3.8317    0.0000 C    0  0  0  0  0  0  0  0  0  0  0  0
    3.5705   -5.1554    0.0000 C    0  0  0  0  0  0  0  0  0  0  0  0
    2.4209   -3.1699    0.0000 C    0  0  0  0  0  0  0  0  0  0  0  0
    2.4209   -5.8346    0.0000 C    0  0  0  0  0  0  0  0  0  0  0  0
    1.2714   -3.8317    0.0000 C    0  0  0  0  0  0  0  0  0  0  0  0
    1.2714   -5.1554    0.0000 C    0  0  0  0  0  0  0  0  0  0  0  0
    2.4209   -1.8462    0.0000 C    0  0  0  0  0  0  0  0  0  0  0  0
    3.5705   -1.1669    0.0000 N    0  3  0  0  0  0  0  0  0  0  0  0
    2.9086    0.0000    0.0000 C    0  0  0  0  0  0  0  0  0  0  0  0
    4.2323   -2.3164    0.0000 C    0  0  0  0  0  0  0  0  0  0  0  0
    4.7200   -0.5051    0.0000 C    0  0  0  0  0  0  0  0  0  0  0  0
    5.8695   -1.1669    0.0000 C    0  0  0  0  0  0  0  0  0  0  0  0
    7.0364   -0.5051    0.0000 C    0  0  0  0  0  0  0  0  0  0  0  0
    8.1859   -1.1669    0.0000 C    0  0  0  0  0  0  0  0  0  0  0  0
    9.3354   -0.5051    0.0000 C    0  0  0  0  0  0  0  0  0  0  0  0
   10.5024   -1.1669    0.0000 C    0  0  0  0  0  0  0  0  0  0  0  0
   11.6519   -0.5051    0.0000 C    0  0  0  0  0  0  0  0  0  0  0  0
   12.8014   -1.1669    0.0000 C    0  0  0  0  0  0  0  0  0  0  0  0
   13.9509   -0.5051    0.0000 C    0  0  0  0  0  0  0  0  0  0  0  0
   15.1004   -1.1669    0.0000 C    0  0  0  0  0  0  0  0  0  0  0  0
   16.2673   -0.5051    0.0000 C    0  0  0  0  0  0  0  0  0  0  0  0
   17.4169   -1.1669    0.0000 C    0  0  0  0  0  0  0  0  0  0  0  0
    0.0000   -1.1321    0.0000 Cl   0  5  0  0  0  0  0  0  0  0  0  0
  1  2  1  0  0  0  0
  1  3  2  0  0  0  0
  2  4  2  0  0  0  0
  3  5  1  0  0  0  0
  3  7  1  0  0  0  0
  4  6  1  0  0  0  0
  5  6  2  0  0  0  0
  7  8  1  0  0  0  0
  8  9  1  0  0  0  0
  8 10  1  0  0  0  0
  8 11  1  0  0  0  0
 11 12  1  0  0  0  0
 12 13  1  0  0  0  0
 13 14  1  0  0  0  0
 14 15  1  0  0  0  0
 15 16  1  0  0  0  0
 16 17  1  0  0  0  0
 17 18  1  0  0  0  0
 18 19  1  0  0  0  0
 19 20  1  0  0  0  0
 20 21  1  0  0  0  0
 21 22  1  0  0  0  0
M  END
> <ID>
6735

> <Formula>
C21H38ClN

> <FW>
339.9861 (304.5326+35.4535)

> <DSSTox_CID>
14317

> <DSSTox_RID>
79142

> <DSSTox_GSID>
34317

> <DSSTox_FileID_Sort>
3824

> <TS_ChemName>
Benzalkonium chloride

> <TS_ChemName_Synonyms>
Benzalkonium chloride (Alkyl* dimethyl benzyl ammonium chloride *(50%C12, 30%C14, 17%C16, 3%C18))

> <TS_CASRN>
8001-54-5

> <CASRN_ChemName_Relationship>
primary

> <TS_Description>
mixture or formulation

> <ChemNote>
mixture of alkyldimethylbenzyl ammmonium chlorides; structure shown C12 [139-07-1]; ammonium

> <STRUCTURE_Shown>
representative component

> <STRUCTURE_Formula>
C21H38ClN

> <STRUCTURE_MW>
339.9861

> <STRUCTURE_ChemType>
defined organic

> <STRUCTURE_DefinedOrganicForm>
salt

> <STRUCTURE_IUPAC>
N-benzyl-N,N-dimethyldodecan-1-aminium chloride

> <STRUCTURE_SMILES>
[Cl-].C[N+](C)(Cc1ccccc1)CCCCCCCCCCCC

> <STRUCTURE_SMILES_Desalt>
C[N+](C)(Cc1ccccc1)CCCCCCCCCCCC

> <Substance_modify_yyyymmdd>
20120530

$$$$
