8003-22-3
ChemmineR-0915142007XD

 21 24  0  0  0  0  0  0  0  0  1 V2000
    0.0000   -1.1884    0.0000 C   0  0  0  0  0  0  0  0  0  0  0  0
    0.6614   -0.0413    0.0000 C   0  0  0  0  0  0  0  0  0  0  0  0
    1.9945   -0.0413    0.0000 C   0  0  0  0  0  0  0  0  0  0  0  0
    2.6559   -1.1884    0.0000 C   0  0  0  0  0  0  0  0  0  0  0  0
    3.9890   -1.1884    0.0000 N   0  0  0  0  0  0  0  0  0  0  0  0
    4.6504   -2.3459    0.0000 C   0  0  0  0  0  0  0  0  0  0  0  0
    5.9836   -2.3459    0.0000 C   0  0  0  0  0  0  0  0  0  0  0  0
    6.7690   -1.2608    0.0000 C   0  0  0  0  0  0  0  0  0  0  0  0
    6.3556    0.0000    0.0000 O   0  0  0  0  0  0  0  0  0  0  0  0
    8.0298   -1.6742    0.0000 C   0  0  0  0  0  0  0  0  0  0  0  0
    9.1872   -1.0128    0.0000 C   0  0  0  0  0  0  0  0  0  0  0  0
   10.3343   -1.6742    0.0000 C   0  0  0  0  0  0  0  0  0  0  0  0
   10.3343   -3.0073    0.0000 C   0  0  0  0  0  0  0  0  0  0  0  0
    9.1872   -3.6687    0.0000 C   0  0  0  0  0  0  0  0  0  0  0  0
    8.0298   -3.0073    0.0000 C   0  0  0  0  0  0  0  0  0  0  0  0
    6.7690   -3.4207    0.0000 C   0  0  0  0  0  0  0  0  0  0  0  0
    6.3556   -4.6814    0.0000 O   0  0  0  0  0  0  0  0  0  0  0  0
    3.9890   -3.4930    0.0000 C   0  0  0  0  0  0  0  0  0  0  0  0
    2.6559   -3.4930    0.0000 C   0  0  0  0  0  0  0  0  0  0  0  0
    1.9945   -2.3459    0.0000 C   0  0  0  0  0  0  0  0  0  0  0  0
    0.6614   -2.3459    0.0000 C   0  0  0  0  0  0  0  0  0  0  0  0
  1  2  2  0  0  0  0
  1 21  1  0  0  0  0
  2  3  1  0  0  0  0
  3  4  2  0  0  0  0
  4  5  1  0  0  0  0
  4 20  1  0  0  0  0
  5  6  2  0  0  0  0
  6  7  1  0  0  0  0
  6 18  1  0  0  0  0
  7  8  1  0  0  0  0
  7 16  1  0  0  0  0
  8  9  2  0  0  0  0
  8 10  1  0  0  0  0
 10 11  2  0  0  0  0
 10 15  1  0  0  0  0
 11 12  1  0  0  0  0
 12 13  2  0  0  0  0
 13 14  1  0  0  0  0
 14 15  2  0  0  0  0
 15 16  1  0  0  0  0
 16 17  2  0  0  0  0
 18 19  2  0  0  0  0
 19 20  1  0  0  0  0
 20 21  2  0  0  0  0
M  END
> <ID>
3909

> <Formula>
C18H11NO2

> <FW>
273.2854

> <DSSTox_CID>
4906

> <DSSTox_RID>
77574

> <DSSTox_GSID>
24906

> <DSSTox_FileID_Sort>
2257

> <TS_ChemName>
D&C yellow 11

> <TS_ChemName_Synonyms>
D & C yellow 11 (C.I. Solvent Yellow 33) (Quinoline Yellow)

> <TS_CASRN>
8003-22-3

> <CASRN_ChemName_Relationship>
primary

> <TS_Description>
single chemical compound

> <ChemNote>
C.I. 4700; tautomers

> <STRUCTURE_Shown>
tested chemical

> <STRUCTURE_Formula>
C18H11NO2

> <STRUCTURE_MW>
273.2854

> <STRUCTURE_ChemType>
defined organic

> <STRUCTURE_DefinedOrganicForm>
parent

> <STRUCTURE_IUPAC>
2-(quinolin-2-yl)-1H-indene-1,3(2H)-dione

> <STRUCTURE_SMILES>
O=C4c1ccccc1C(=O)C4c2ccc3ccccc3n2

> <STRUCTURE_SMILES_Desalt>
O=C4c1ccccc1C(=O)C4c2ccc3ccccc3n2

> <Substance_modify_yyyymmdd>
20080429

$$$$
