8004-92-0
ChemmineR-0915142007XD

 31 32  0  0  0  0  0  0  0  0  2 V2000
    5.8081   -3.5115    0.0000 C    0  0  0  0  0  0  0  0  0  0  0  0
    5.8081   -4.8467    0.0000 C    0  0  0  0  0  0  0  0  0  0  0  0
    4.6598   -2.8439    0.0000 C    0  0  0  0  0  0  0  0  0  0  0  0
    4.6598   -5.5010    0.0000 C    0  0  0  0  0  0  0  0  0  0  0  0
    3.5115   -3.5115    0.0000 C    0  0  0  0  0  0  0  0  0  0  0  0
    3.5115   -4.8467    0.0000 C    0  0  0  0  0  0  0  0  0  0  0  0
    6.9697   -2.8439    0.0000 N    0  0  0  0  0  0  0  0  0  0  0  0
    8.1179   -3.5115    0.0000 C    0  0  0  0  0  0  0  0  0  0  0  0
    6.9697   -5.5010    0.0000 C    0  0  0  0  0  0  0  0  0  0  0  0
    8.1179   -4.8467    0.0000 C    0  0  0  0  0  0  0  0  0  0  0  0
    9.2662   -2.8439    0.0000 C    0  0  0  0  0  0  0  0  0  0  0  0
    9.3997   -1.5088    0.0000 C    0  0  0  0  0  0  0  0  0  0  0  0
   10.4679   -3.3780    0.0000 C    0  0  0  0  0  0  0  0  0  0  0  0
   10.6948   -1.2417    0.0000 C    0  0  0  0  0  0  0  0  0  0  0  0
   11.3624   -2.3900    0.0000 C    0  0  0  0  0  0  0  0  0  0  0  0
   11.3624   -0.0801    0.0000 C    0  0  0  0  0  0  0  0  0  0  0  0
   12.6976   -0.0801    0.0000 C    0  0  0  0  0  0  0  0  0  0  0  0
   12.6976   -2.3900    0.0000 C    0  0  0  0  0  0  0  0  0  0  0  0
   13.3519   -1.2417    0.0000 C    0  0  0  0  0  0  0  0  0  0  0  0
    8.4250   -0.6275    0.0000 O    0  0  0  0  0  0  0  0  0  0  0  0
   10.7616   -4.6865    0.0000 O    0  0  0  0  0  0  0  0  0  0  0  0
    4.6598   -1.5088    0.0000 S    0  0  0  0  0  0  0  0  0  0  0  0
    4.6598   -0.1869    0.0000 O    0  5  0  0  0  0  0  0  0  0  0  0
    3.3246   -1.5088    0.0000 O    0  0  0  0  0  0  0  0  0  0  0  0
    5.9816   -1.5088    0.0000 O    0  0  0  0  0  0  0  0  0  0  0  0
    2.3499   -5.5010    0.0000 S    0  0  0  0  0  0  0  0  0  0  0  0
    1.2017   -6.1686    0.0000 O    0  5  0  0  0  0  0  0  0  0  0  0
    3.0309   -6.6492    0.0000 O    0  0  0  0  0  0  0  0  0  0  0  0
    1.6957   -4.3394    0.0000 O    0  0  0  0  0  0  0  0  0  0  0  0
    0.0000   -6.1018    0.0000 Na   0  3  0  0  0  0  0  0  0  0  0  0
    3.5115    0.0000    0.0000 Na   0  3  0  0  0  0  0  0  0  0  0  0
  1  3  2  0  0  0  0
  1  7  1  0  0  0  0
  1  2  1  0  0  0  0
  2  4  2  0  0  0  0
  2  9  1  0  0  0  0
  3  5  1  0  0  0  0
  3 22  1  0  0  0  0
  4  6  1  0  0  0  0
  5  6  2  0  0  0  0
  6 26  1  0  0  0  0
  7  8  2  0  0  0  0
  8 10  1  0  0  0  0
  8 11  1  0  0  0  0
  9 10  2  0  0  0  0
 11 12  1  0  0  0  0
 11 13  1  0  0  0  0
 12 14  1  0  0  0  0
 12 20  2  0  0  0  0
 13 15  1  0  0  0  0
 13 21  2  0  0  0  0
 14 16  1  0  0  0  0
 14 15  2  0  0  0  0
 15 18  1  0  0  0  0
 16 17  2  0  0  0  0
 17 19  1  0  0  0  0
 18 19  2  0  0  0  0
 22 23  1  0  0  0  0
 22 24  2  0  0  0  0
 22 25  2  0  0  0  0
 26 27  1  0  0  0  0
 26 28  2  0  0  0  0
 26 29  2  0  0  0  0
M  END
> <ID>
8676

> <Formula>
C18H9NNa2O8S2

> <FW>
477.3755 (431.3971+22.9892+22.9892)

> <DSSTox_CID>
21721

> <DSSTox_RID>
79831

> <DSSTox_GSID>
41721

> <DSSTox_FileID_Sort>
4513

> <TS_ChemName>
C.I. Acid yellow 3 disodium salt

> <TS_ChemName_Synonyms>
C.I. Acid yellow 3; C.I. Acid Yellow 4

> <TS_CASRN>
8004-92-0

> <CASRN_ChemName_Relationship>
primary

> <TS_Description>
single chemical compound

> <ChemNote>
C.I. 47005

> <STRUCTURE_Shown>
tested chemical

> <STRUCTURE_Formula>
C18H9NNa2O8S2

> <STRUCTURE_MW>
477.3755

> <STRUCTURE_ChemType>
defined organic

> <STRUCTURE_DefinedOrganicForm>
salt

> <STRUCTURE_IUPAC>
disodium 2-(1,3-dioxo-2,3-dihydro-1H-inden-2-yl)quinoline-6,8-disulfonate

> <STRUCTURE_SMILES>
[Na+].[Na+].[O-]S(=O)(=O)c1cc(cc2ccc(nc12)C4C(=O)c3ccccc3C4=O)S([O-])(=O)=O

> <STRUCTURE_SMILES_Desalt>
O=S(=O)(O)c1cc(cc2ccc(nc12)C4C(=O)c3ccccc3C4=O)S(=O)(=O)O

> <Substance_modify_yyyymmdd>
20080825

$$$$
