80125-14-0
ChemmineR-0915142007XD

 23 24  0  0  1  0  0  0  0  0  1 V2000
    3.4100   -3.3273    0.0000 C    0  0  0  0  0  0  0  0  0  0  0  0
    2.2611   -3.9615    0.0000 C    0  0  0  0  0  0  0  0  0  0  0  0
    4.5497   -3.9799    0.0000 C    0  0  0  0  0  0  0  0  0  0  0  0
    3.4100   -1.9670    0.0000 C    0  0  0  0  0  0  0  0  0  0  0  0
    2.2611   -5.2758    0.0000 C    0  0  0  0  0  0  0  0  0  0  0  0
    1.1305   -3.2813    0.0000 O    0  0  0  0  0  0  0  0  0  0  0  0
    4.5497   -5.2942    0.0000 C    0  0  0  0  0  0  0  0  0  0  0  0
    5.7722   -3.3181    0.0000 O    0  0  0  0  0  0  0  0  0  0  0  0
    4.5681   -1.2684    0.0000 N    0  0  0  0  0  0  0  0  0  0  0  0
    2.2611   -1.3144    0.0000 O    0  0  0  0  0  0  0  0  0  0  0  0
    3.3916   -5.9284    0.0000 C    0  0  0  0  0  0  0  0  0  0  0  0
    1.0938   -5.9284    0.0000 Br   0  0  0  0  0  0  0  0  0  0  0  0
    0.0000   -3.9247    0.0000 C    0  0  0  0  0  0  0  0  0  0  0  0
    6.8751   -4.0166    0.0000 C    0  0  0  0  0  0  0  0  0  0  0  0
    5.6986   -1.9026    0.0000 C    0  0  0  0  0  0  0  0  0  0  0  0
    6.9946   -1.2500    0.0000 C    0  0  0  0  0  0  0  0  0  0  0  0
    8.0516   -2.0313    0.0000 N    0  0  0  0  0  0  0  0  0  0  0  0
    7.3899    0.0000    0.0000 C    0  0  0  0  0  0  0  0  0  0  0  0
    9.1178   -1.2500    0.0000 C    0  0  0  0  0  0  0  0  0  0  0  0
    8.0516   -3.3457    0.0000 C    0  0  0  0  0  0  0  0  0  0  0  0
    8.7042    0.0000    0.0000 C    0  0  0  0  0  0  0  0  0  0  0  0
    9.1914   -4.0166    0.0000 C    0  0  0  0  0  0  0  0  0  0  0  0
    5.7722   -0.5882    0.0000 H    0  0  0  0  0  0  0  0  0  0  0  0
  1  2  1  0  0  0  0
  1  3  2  0  0  0  0
  1  4  1  0  0  0  0
  2  5  2  0  0  0  0
  2  6  1  0  0  0  0
  3  7  1  0  0  0  0
  3  8  1  0  0  0  0
  4  9  1  0  0  0  0
  4 10  2  0  0  0  0
  5 11  1  0  0  0  0
  5 12  1  0  0  0  0
  6 13  1  0  0  0  0
  7 11  2  0  0  0  0
  8 14  1  0  0  0  0
  9 15  1  0  0  0  0
 16 15  1  6  0  0  0
 16 17  1  0  0  0  0
 16 18  1  0  0  0  0
 16 23  1  1  0  0  0
 17 19  1  0  0  0  0
 17 20  1  0  0  0  0
 18 21  1  0  0  0  0
 19 21  1  0  0  0  0
 20 22  1  0  0  0  0
M  END
> <ID>
11111

> <Formula>
C16H23BrN2O3

> <FW>
371.2694

> <DSSTox_CID>
25668

> <DSSTox_RID>
81043

> <DSSTox_GSID>
45668

> <DSSTox_FileID_Sort>
5724

> <TS_ChemName>
Remoxipride

> <TS_ChemName_Synonyms>


> <TS_CASRN>
80125-14-0

> <CASRN_ChemName_Relationship>
primary

> <TS_Description>
single chemical compound

> <ChemNote>


> <STRUCTURE_Shown>
tested chemical

> <STRUCTURE_Formula>
C16H23BrN2O3

> <STRUCTURE_MW>
371.2694

> <STRUCTURE_ChemType>
defined organic

> <STRUCTURE_DefinedOrganicForm>
parent

> <STRUCTURE_IUPAC>
3-bromo-N-{[(2S)-1-ethylpyrrolidin-2-yl]methyl}-2,6-dimethoxybenzamide

> <STRUCTURE_SMILES>
CCN2CCC[C@H]2CNC(=O)c1c(OC)ccc(Br)c1OC

> <STRUCTURE_SMILES_Desalt>
CCN2CCC[C@H]2CNC(=O)c1c(OC)ccc(Br)c1OC

> <Substance_modify_yyyymmdd>
20100107

$$$$
