8015-61-0
ChemmineR-0915142007XD

 32 35  0  0  1  0  0  0  0  0  1 V2000
    4.5955   -1.9956    0.0000 C   0  0  0  0  0  0  0  0  0  0  0  0
    4.5955   -3.3195    0.0000 C   0  0  0  0  0  0  0  0  0  0  0  0
    3.4443   -1.3240    0.0000 C   0  0  0  0  0  0  0  0  0  0  0  0
    3.4443   -3.9719    0.0000 C   0  0  0  0  0  0  0  0  0  0  0  0
    2.3026   -1.9956    0.0000 C   0  0  0  0  0  0  0  0  0  0  0  0
    2.3026   -3.3195    0.0000 O   0  0  0  0  0  0  0  0  0  0  0  0
    2.3026   -6.2937    0.0000 C   0  0  0  0  0  0  0  0  0  0  0  0
    2.3026   -7.6176    0.0000 C   0  0  0  0  0  0  0  0  0  0  0  0
    1.1513   -5.6221    0.0000 C   0  0  0  0  0  0  0  0  0  0  0  0
    1.1513   -8.2700    0.0000 C   0  0  0  0  0  0  0  0  0  0  0  0
    0.0000   -6.2937    0.0000 C   0  0  0  0  0  0  0  0  0  0  0  0
    0.0000   -7.6176    0.0000 C   0  0  0  0  0  0  0  0  0  0  0  0
    3.4443   -5.6221    0.0000 C   0  0  0  0  0  0  0  0  0  0  0  0
    4.5955   -6.2937    0.0000 C   0  0  0  0  0  0  0  0  0  0  0  0
    3.4443   -8.2700    0.0000 C   0  0  0  0  0  0  0  0  0  0  0  0
    4.5955   -7.6176    0.0000 C   0  0  0  0  0  0  0  0  0  0  0  0
    5.7468   -5.6221    0.0000 C   0  0  0  0  0  0  0  0  0  0  0  0
    6.8789   -6.2937    0.0000 C   0  0  0  0  0  0  0  0  0  0  0  0
    5.7276   -8.2700    0.0000 C   0  0  0  0  0  0  0  0  0  0  0  0
    6.8789   -7.6176    0.0000 C   0  0  0  0  0  0  0  0  0  0  0  0
    3.4443   -9.5940    0.0000 O   0  0  0  0  0  0  0  0  0  0  0  0
    1.1513   -9.5940    0.0000 O   0  0  0  0  0  0  0  0  0  0  0  0
    5.7276   -9.5940    0.0000 O   0  0  0  0  0  0  0  0  0  0  0  0
    8.0302   -5.6221    0.0000 C   0  0  0  0  0  0  0  0  0  0  0  0
    9.1815   -6.2937    0.0000 O   0  0  0  0  0  0  0  0  0  0  0  0
    2.3985   -4.7682    0.0000 H   0  0  0  0  0  0  0  0  0  0  0  0
    4.4996   -5.1040    0.0000 H   0  0  0  0  0  0  0  0  0  0  0  0
    1.1513   -1.3240    0.0000 C   0  0  0  0  0  0  0  0  0  0  0  0
    0.0000   -1.9956    0.0000 O   0  0  0  0  0  0  0  0  0  0  0  0
    3.4443    0.0000    0.0000 O   0  0  0  0  0  0  0  0  0  0  0  0
    5.7468   -1.3240    0.0000 O   0  0  0  0  0  0  0  0  0  0  0  0
    5.7468   -3.9719    0.0000 O   0  0  0  0  0  0  0  0  0  0  0  0
  1  2  1  0  0  0  0
  1  3  1  0  0  0  0
  1 31  1  6  0  0  0
  2  4  1  0  0  0  0
  2 32  1  1  0  0  0
  3  5  1  0  0  0  0
  3 30  1  1  0  0  0
  4  6  1  0  0  0  0
  4 13  1  0  0  0  0
  4 26  1  1  0  0  0
  5  6  1  0  0  0  0
  5 28  1  6  0  0  0
  7  9  2  0  0  0  0
  7 13  1  0  0  0  0
  7  8  1  0  0  0  0
  8 10  2  0  0  0  0
  8 15  1  0  0  0  0
  9 11  1  0  0  0  0
 10 12  1  0  0  0  0
 10 22  1  0  0  0  0
 11 12  2  0  0  0  0
 13 14  1  0  0  0  0
 13 27  1  1  0  0  0
 14 17  1  0  0  0  0
 14 16  2  0  0  0  0
 15 16  1  0  0  0  0
 15 21  2  0  0  0  0
 16 19  1  0  0  0  0
 17 18  2  0  0  0  0
 18 20  1  0  0  0  0
 18 24  1  0  0  0  0
 19 20  2  0  0  0  0
 19 23  1  0  0  0  0
 24 25  1  0  0  0  0
 28 29  1  0  0  0  0
M  END
> <ID>
11330

> <Formula>
C21H22O9

> <FW>
418.394

> <DSSTox_CID>
25967

> <DSSTox_RID>
82951

> <DSSTox_GSID>
48755

> <DSSTox_FileID_Sort>
7628

> <TS_ChemName>
Aloin

> <TS_ChemName_Synonyms>


> <TS_CASRN>
8015-61-0

> <CASRN_ChemName_Relationship>
primary

> <TS_Description>
mixture or formulation

> <ChemNote>
complex mixture obtained by treating aloe plants with sulfuric acid

> <STRUCTURE_Shown>
representative component

> <STRUCTURE_Formula>
C21H22O9

> <STRUCTURE_MW>
418.394

> <STRUCTURE_ChemType>
defined organic

> <STRUCTURE_DefinedOrganicForm>
parent

> <STRUCTURE_IUPAC>
(1S)-1,5-anhydro-1-[(9S)-4,5-dihydroxy-2-(hydroxymethyl)-10-oxo-9,10-dihydroanthracen-9-yl]-D-glucitol

> <STRUCTURE_SMILES>
O[C@H]1[C@H](O)[C@@H](O)[C@@H](O[C@@H]1CO)[C@H]4c2cccc(O)c2C(=O)c3c(O)cc(CO)cc34

> <STRUCTURE_SMILES_Desalt>
O[C@H]1[C@H](O)[C@@H](O)[C@@H](O[C@@H]1CO)[C@H]4c2cccc(O)c2C(=O)c3c(O)cc(CO)cc34

> <Substance_modify_yyyymmdd>
20111130

$$$$
