8018-01-7
ChemmineR-0915142007XD

 22 18  0  0  0  0  0  0  0  0  2 V2000
    9.3262   -1.5295    0.0000 Zn   0  2  0  0  0  0  0  0  0  0  0  0
    4.5232   -3.6186    0.0000 C    0  0  0  0  0  0  0  0  0  0  0  0
    5.8475   -3.6186    0.0000 C    0  0  0  0  0  0  0  0  0  0  0  0
    3.8517   -2.4528    0.0000 N    0  0  0  0  0  0  0  0  0  0  0  0
    6.5190   -4.7750    0.0000 N    0  0  0  0  0  0  0  0  0  0  0  0
    5.8475   -5.9222    0.0000 C    0  0  0  0  0  0  0  0  0  0  0  0
    6.5004   -7.0879    0.0000 S    0  0  0  0  0  0  0  0  0  0  0  0
    4.5232   -5.9222    0.0000 S    0  5  0  0  0  0  0  0  0  0  0  0
    4.5232   -1.3057    0.0000 C    0  0  0  0  0  0  0  0  0  0  0  0
    3.8517   -0.1585    0.0000 S    0  0  0  0  0  0  0  0  0  0  0  0
    5.8475   -1.3057    0.0000 S    0  5  0  0  0  0  0  0  0  0  0  0
    0.6528   -3.4600    0.0000 C    0  0  0  0  0  0  0  0  0  0  0  0
    1.9772   -3.4600    0.0000 C    0  0  0  0  0  0  0  0  0  0  0  0
    0.0000   -2.3129    0.0000 N    0  0  0  0  0  0  0  0  0  0  0  0
    2.6486   -4.6165    0.0000 N    0  0  0  0  0  0  0  0  0  0  0  0
    1.9772   -5.7823    0.0000 C    0  0  0  0  0  0  0  0  0  0  0  0
    2.6486   -6.9294    0.0000 S    0  0  0  0  0  0  0  0  0  0  0  0
    0.6528   -5.7823    0.0000 S    0  5  0  0  0  0  0  0  0  0  0  0
    0.6528   -1.1471    0.0000 C    0  0  0  0  0  0  0  0  0  0  0  0
    0.0000    0.0000    0.0000 S    0  0  0  0  0  0  0  0  0  0  0  0
    1.9772   -1.1471    0.0000 S    0  5  0  0  0  0  0  0  0  0  0  0
    9.2609   -4.2901    0.0000 Mn   0  2  0  0  0  0  0  0  0  0  0  0
  2  3  1  0  0  0  0
  2  4  1  0  0  0  0
  3  5  1  0  0  0  0
  4  9  1  0  0  0  0
  5  6  1  0  0  0  0
  6  7  2  0  0  0  0
  6  8  1  0  0  0  0
  9 10  2  0  0  0  0
  9 11  1  0  0  0  0
 12 13  1  0  0  0  0
 12 14  1  0  0  0  0
 13 15  1  0  0  0  0
 14 19  1  0  0  0  0
 15 16  1  0  0  0  0
 16 17  2  0  0  0  0
 16 18  1  0  0  0  0
 19 20  2  0  0  0  0
 19 21  1  0  0  0  0
M  END
> <ID>
6874

> <Formula>
C8H12MnN4S8Zn

> <FW>
541.0747 (65.4079+210.3649+210.3649+54.9369)

> <DSSTox_CID>
14695

> <DSSTox_RID>
79192

> <DSSTox_GSID>
34695

> <DSSTox_FileID_Sort>
3874

> <TS_ChemName>
Mancozeb

> <TS_ChemName_Synonyms>


> <TS_CASRN>
8018-01-7

> <CASRN_ChemName_Relationship>
primary

> <TS_Description>
single chemical compound

> <ChemNote>


> <STRUCTURE_Shown>
tested chemical

> <STRUCTURE_Formula>
C8H12MnN4S8Zn

> <STRUCTURE_MW>
541.0747

> <STRUCTURE_ChemType>
organometallic

> <STRUCTURE_DefinedOrganicForm>


> <STRUCTURE_IUPAC>
manganese(2+) zinc ethane-1,2-diyldicarbamodithioate (1:1:2)

> <STRUCTURE_SMILES>
[Mn+2].[Zn+2].[S-]C(=S)NCCNC(=S)[S-].[S-]C(=S)NCCNC([S-])=S

> <STRUCTURE_SMILES_Desalt>
SC(=S)NCCNC(=S)S

> <Substance_modify_yyyymmdd>
20080429

$$$$
