80214-83-1
ChemmineR-0915142007XD

 58 60  0  0  1  0  0  0  0  0  1 V2000
    5.6638  -14.6898    0.0000 C   0  0  0  0  0  0  0  0  0  0  0  0
    3.4223  -14.6898    0.0000 C   0  0  0  0  0  0  0  0  0  0  0  0
    2.3215  -11.4476    0.0000 C   0  0  0  0  0  0  0  0  0  0  0  0
    4.5230  -15.3302    0.0000 C   0  0  0  0  0  0  0  0  0  0  0  0
    6.8045  -12.7885    0.0000 C   0  0  0  0  0  0  0  0  0  0  0  0
    5.6638  -13.3889    0.0000 C   0  0  0  0  0  0  0  0  0  0  0  0
    3.4223   -9.5263    0.0000 C   0  0  0  0  0  0  0  0  0  0  0  0
    3.4223  -13.3889    0.0000 O   0  0  0  0  0  0  0  0  0  0  0  0
    3.4223  -10.8472    0.0000 C   0  0  0  0  0  0  0  0  0  0  0  0
    4.5430   -8.7658    0.0000 C   0  0  0  0  0  0  0  0  0  0  0  0
    7.8852  -13.4089    0.0000 O   0  0  0  0  0  0  0  0  0  0  0  0
    6.8045  -11.4476    0.0000 C   0  0  0  0  0  0  0  0  0  0  0  0
    2.3215  -12.7885    0.0000 C   0  0  0  0  0  0  0  0  0  0  0  0
    6.8446  -15.3702    0.0000 O   0  0  0  0  0  0  0  0  0  0  0  0
    5.6638   -9.5263    0.0000 C   0  0  0  0  0  0  0  0  0  0  0  0
    5.6638  -10.8472    0.0000 C   0  0  0  0  0  0  0  0  0  0  0  0
    4.5430   -7.4049    0.0000 N   0  0  0  0  0  0  0  0  0  0  0  0
    2.3215  -15.3702    0.0000 O   0  0  0  0  0  0  0  0  0  0  0  0
    2.1014  -10.0467    0.0000 O   0  0  0  0  0  0  0  0  0  0  0  0
    7.2248  -10.3269    0.0000 O   0  0  0  0  0  0  0  0  0  0  0  0
    4.5230  -11.4476    0.0000 O   0  0  0  0  0  0  0  0  0  0  0  0
    4.5430   -6.0440    0.0000 O   0  0  0  0  0  0  0  0  0  0  0  0
    5.8639   -5.3836    0.0000 C   0  0  0  0  0  0  0  0  0  0  0  0
    1.2208  -11.4476    0.0000 C   0  0  0  0  0  0  0  0  0  0  0  0
    4.5230  -16.6711    0.0000 C   0  0  0  0  0  0  0  0  0  0  0  0
    4.5230  -12.7685    0.0000 C   0  0  0  0  0  0  0  0  0  0  0  0
    2.3215   -8.8059    0.0000 C   0  0  0  0  0  0  0  0  0  0  0  0
    7.9453  -11.7678    0.0000 C   0  0  0  0  0  0  0  0  0  0  0  0
    5.8839   -4.0027    0.0000 O   0  0  0  0  0  0  0  0  0  0  0  0
    1.1608  -13.4089    0.0000 C   0  0  0  0  0  0  0  0  0  0  0  0
    6.8446   -8.8059    0.0000 C   0  0  0  0  0  0  0  0  0  0  0  0
    8.7258   -1.4810    0.0000 O   0  0  0  0  0  0  0  0  0  0  0  0
    7.2248   -3.4623    0.0000 C   0  0  0  0  0  0  0  0  0  0  0  0
    7.4650   -2.0213    0.0000 C   0  0  0  0  0  0  0  0  0  0  0  0
    8.8259    0.0000    0.0000 C   0  0  0  0  0  0  0  0  0  0  0  0
    0.0000  -12.8686    0.0000 C   0  0  0  0  0  0  0  0  0  0  0  0
    7.5450  -16.5110    0.0000 C   0  0  0  0  0  0  0  0  0  0  0  0
    8.8859  -16.5110    0.0000 C   0  0  0  0  0  0  0  0  0  0  0  0
    6.8646  -17.6918    0.0000 O   0  0  0  0  0  0  0  0  0  0  0  0
    9.5464  -17.6918    0.0000 C   0  0  0  0  0  0  0  0  0  0  0  0
    7.5450  -18.8726    0.0000 C   0  0  0  0  0  0  0  0  0  0  0  0
    8.8859  -18.8525    0.0000 C   0  0  0  0  0  0  0  0  0  0  0  0
   10.8872  -17.6918    0.0000 O   0  0  0  0  0  0  0  0  0  0  0  0
    9.5664  -19.9933    0.0000 O   0  0  0  0  0  0  0  0  0  0  0  0
    6.8846  -20.0133    0.0000 C   0  0  0  0  0  0  0  0  0  0  0  0
   11.5677  -18.8325    0.0000 C   0  0  0  0  0  0  0  0  0  0  0  0
   10.2268  -18.8525    0.0000 C   0  0  0  0  0  0  0  0  0  0  0  0
    9.2261  -13.4089    0.0000 C   0  0  0  0  0  0  0  0  0  0  0  0
    9.9066  -12.2682    0.0000 C   0  0  0  0  0  0  0  0  0  0  0  0
    9.9066  -14.5897    0.0000 O   0  0  0  0  0  0  0  0  0  0  0  0
   11.2475  -12.2682    0.0000 C   0  0  0  0  0  0  0  0  0  0  0  0
   11.2475  -14.5897    0.0000 C   0  0  0  0  0  0  0  0  0  0  0  0
   11.9079  -13.4289    0.0000 C   0  0  0  0  0  0  0  0  0  0  0  0
    9.2261  -11.1074    0.0000 O   0  0  0  0  0  0  0  0  0  0  0  0
   11.9079  -11.1074    0.0000 N   0  0  0  0  0  0  0  0  0  0  0  0
   11.8879  -15.7505    0.0000 C   0  0  0  0  0  0  0  0  0  0  0  0
   13.2488  -11.1074    0.0000 C   0  0  0  0  0  0  0  0  0  0  0  0
   11.2475   -9.9466    0.0000 C   0  0  0  0  0  0  0  0  0  0  0  0
  1  6  1  0  0  0  0
  1  4  1  0  0  0  0
  1 14  1  6  0  0  0
  2  4  1  0  0  0  0
  2  8  1  0  0  0  0
  2 18  2  0  0  0  0
  3  9  1  0  0  0  0
  3 19  1  1  0  0  0
  3 24  1  0  0  0  0
  3 13  1  0  0  0  0
  4 25  1  1  0  0  0
  5 11  1  6  0  0  0
  5  6  1  0  0  0  0
  5 12  1  0  0  0  0
  6 26  1  6  0  0  0
  7 10  1  0  0  0  0
  7  9  1  0  0  0  0
  7 27  1  1  0  0  0
  8 13  1  0  0  0  0
  9 21  1  1  0  0  0
 10 15  1  0  0  0  0
 10 17  2  0  0  0  0
 48 11  1  1  0  0  0
 12 16  1  0  0  0  0
 12 20  1  1  0  0  0
 12 28  1  0  0  0  0
 13 30  1  6  0  0  0
 37 14  1  1  0  0  0
 15 16  1  0  0  0  0
 15 31  1  6  0  0  0
 17 22  1  0  0  0  0
 22 23  1  0  0  0  0
 23 29  1  0  0  0  0
 29 33  1  0  0  0  0
 30 36  1  0  0  0  0
 32 34  1  0  0  0  0
 32 35  1  0  0  0  0
 33 34  1  0  0  0  0
 37 38  1  0  0  0  0
 37 39  1  0  0  0  0
 38 40  1  0  0  0  0
 39 41  1  0  0  0  0
 40 42  1  0  0  0  0
 40 43  1  1  0  0  0
 40 47  1  0  0  0  0
 41 42  1  0  0  0  0
 41 45  1  6  0  0  0
 42 44  1  1  0  0  0
 43 46  1  0  0  0  0
 48 49  1  0  0  0  0
 48 50  1  0  0  0  0
 49 51  1  0  0  0  0
 49 54  1  6  0  0  0
 50 52  1  0  0  0  0
 51 53  1  0  0  0  0
 51 55  1  1  0  0  0
 52 53  1  0  0  0  0
 52 56  1  1  0  0  0
 55 57  1  0  0  0  0
 55 58  1  0  0  0  0
M  END
> <ID>
8119

> <Formula>
C41H76N2O15

> <FW>
837.0465

> <DSSTox_CID>
21117

> <DSSTox_RID>
79628

> <DSSTox_GSID>
41117

> <DSSTox_FileID_Sort>
4310

> <TS_ChemName>
Roxithromycin

> <TS_ChemName_Synonyms>


> <TS_CASRN>
80214-83-1

> <CASRN_ChemName_Relationship>
primary

> <TS_Description>
single chemical compound

> <ChemNote>
stereochem

> <STRUCTURE_Shown>
tested chemical

> <STRUCTURE_Formula>
C41H76N2O15

> <STRUCTURE_MW>
837.0465

> <STRUCTURE_ChemType>
defined organic

> <STRUCTURE_DefinedOrganicForm>
parent

> <STRUCTURE_IUPAC>
(3R,4S,5S,6R,7R,9R,11S,12R,13S,14R)-6-{[(2S,3R,4S,6R)-4-(dimethylamino)-3-hydroxy-6-methyltetrahydro-2H-pyran-2-yl]oxy}-14-ethyl-7,12,13-trihydroxy-4-{[(2R,4R,5S,6S)-5-hydroxy-4-methoxy-4,6-dimethyltetrahydro-2H-pyran-2-yl]oxy}-10-{[(2-methoxyethoxy)metho

> <STRUCTURE_SMILES>
CN(C)[C@H]3C[C@@H](C)O[C@@H](O[C@@H]2[C@@H](C)[C@H](O[C@H]1C[C@@](C)(OC)[C@@H](O)[C@H](C)O1)[C@@H](C)C(=O)O[C@H](CC)[C@@](C)(O)[C@H](O)[C@@H](C)\C(=N\OCOCCOC)[C@H](C)C[C@@]2(C)O)[C@@H]3O

> <STRUCTURE_SMILES_Desalt>
CN(C)[C@H]3C[C@@H](C)O[C@@H](O[C@@H]2[C@@H](C)[C@H](O[C@H]1C[C@@](C)(OC)[C@@H](O)[C@H](C)O1)[C@@H](C)C(=O)O[C@H](CC)[C@@](C)(O)[C@H](O)[C@@H](C)\C(=N\OCOCCOC)[C@H](C)C[C@@]2(C)O)[C@@H]3O

> <Substance_modify_yyyymmdd>
20080429

$$$$
