80226-00-2
ChemmineR-0915142007XD

 22 23  0  0  1  0  0  0  0  0  1 V2000
    2.3045   -2.6732    0.0000 C   0  0  0  0  0  0  0  0  0  0  0  0
    2.3045   -4.0098    0.0000 C   0  0  0  0  0  0  0  0  0  0  0  0
    1.1522   -2.0049    0.0000 C   0  0  0  0  0  0  0  0  0  0  0  0
    1.1522   -4.6666    0.0000 C   0  0  0  0  0  0  0  0  0  0  0  0
    0.0000   -2.6732    0.0000 C   0  0  0  0  0  0  0  0  0  0  0  0
    0.0000   -4.0098    0.0000 C   0  0  0  0  0  0  0  0  0  0  0  0
    1.1522   -5.9917    0.0000 O   0  0  0  0  0  0  0  0  0  0  0  0
    3.4567   -2.0049    0.0000 C   0  0  0  0  0  0  0  0  0  0  0  0
    4.6205   -2.6617    0.0000 C   0  0  0  0  0  0  0  0  0  0  0  0
    5.7728   -2.0049    0.0000 C   0  0  0  0  0  0  0  0  0  0  0  0
    4.6205   -3.9868    0.0000 C   0  0  0  0  0  0  0  0  0  0  0  0
    3.4567   -4.6666    0.0000 O   0  0  0  0  0  0  0  0  0  0  0  0
    6.9020   -2.6617    0.0000 C   0  0  0  0  0  0  0  0  0  0  0  0
    5.7728   -0.6683    0.0000 C   0  0  0  0  0  0  0  0  0  0  0  0
    6.9020    0.0000    0.0000 O   0  0  0  0  0  0  0  0  0  0  0  0
    8.0657   -2.0049    0.0000 C   0  0  0  0  0  0  0  0  0  0  0  0
    8.0657   -0.6683    0.0000 C   0  0  0  0  0  0  0  0  0  0  0  0
    9.2180   -2.6617    0.0000 C   0  0  0  0  0  0  0  0  0  0  0  0
    9.2180    0.0000    0.0000 C   0  0  0  0  0  0  0  0  0  0  0  0
   10.3702   -2.0049    0.0000 C   0  0  0  0  0  0  0  0  0  0  0  0
   10.3702   -0.6683    0.0000 C   0  0  0  0  0  0  0  0  0  0  0  0
   11.5225   -2.6617    0.0000 O   0  0  0  0  0  0  0  0  0  0  0  0
  1  2  1  0  0  0  0
  1  3  2  0  0  0  0
  1  8  1  0  0  0  0
  2  4  2  0  0  0  0
  3  5  1  0  0  0  0
  4  6  1  0  0  0  0
  4  7  1  0  0  0  0
  5  6  2  0  0  0  0
  8  9  1  0  0  0  0
  9 10  1  0  0  0  0
  9 11  1  6  0  0  0
 10 13  1  0  0  0  0
 10 14  1  6  0  0  0
 11 12  1  0  0  0  0
 13 16  1  0  0  0  0
 14 15  1  0  0  0  0
 16 17  1  0  0  0  0
 16 18  2  0  0  0  0
 17 19  2  0  0  0  0
 18 20  1  0  0  0  0
 19 21  1  0  0  0  0
 20 21  2  0  0  0  0
 20 22  1  0  0  0  0
M  END
> <ID>
12951

> <Formula>
C18H22O4

> <FW>
302.3649

> <DSSTox_CID>
27852

> <DSSTox_RID>
82605

> <DSSTox_GSID>
47876

> <DSSTox_FileID_Sort>
7282

> <TS_ChemName>
(-)-Enterodiol

> <TS_ChemName_Synonyms>


> <TS_CASRN>
80226-00-2

> <CASRN_ChemName_Relationship>
primary

> <TS_Description>
single chemical compound

> <ChemNote>
stereochem

> <STRUCTURE_Shown>
tested chemical

> <STRUCTURE_Formula>
C18H22O4

> <STRUCTURE_MW>
302.3649

> <STRUCTURE_ChemType>
defined organic

> <STRUCTURE_DefinedOrganicForm>
parent

> <STRUCTURE_IUPAC>
(2R,3R)-2,3-bis(3-hydroxybenzyl)butane-1,4-diol

> <STRUCTURE_SMILES>
Oc2cc(C[C@@H](CO)[C@@H](Cc1cccc(O)c1)CO)ccc2

> <STRUCTURE_SMILES_Desalt>
Oc2cc(C[C@@H](CO)[C@@H](Cc1cccc(O)c1)CO)ccc2

> <Substance_modify_yyyymmdd>


$$$$
