8025-81-8
ChemmineR-0915142007XD

 59 62  0  0  1  0  0  0  0  0  1 V2000
    5.7497   -6.0013    0.0000 C   0  0  0  0  0  0  0  0  0  0  0  0
    5.7497   -7.3129    0.0000 C   0  0  0  0  0  0  0  0  0  0  0  0
    4.6178   -5.3185    0.0000 C   0  0  0  0  0  0  0  0  0  0  0  0
    4.6178   -7.9778    0.0000 C   0  0  0  0  0  0  0  0  0  0  0  0
    3.4678   -6.0013    0.0000 C   0  0  0  0  0  0  0  0  0  0  0  0
    3.4678   -7.3129    0.0000 C   0  0  0  0  0  0  0  0  0  0  0  0
    4.6178   -9.3074    0.0000 O   0  0  0  0  0  0  0  0  0  0  0  0
    3.4498   -9.9722    0.0000 O   0  0  0  0  0  0  0  0  0  0  0  0
    2.2999   -7.9778    0.0000 C   0  0  0  0  0  0  0  0  0  0  0  0
    2.2999   -9.3074    0.0000 C   0  0  0  0  0  0  0  0  0  0  0  0
    6.9177   -7.9778    0.0000 C   0  0  0  0  0  0  0  0  0  0  0  0
    6.9177   -9.3074    0.0000 C   0  0  0  0  0  0  0  0  0  0  0  0
    5.7497   -9.9902    0.0000 C   0  0  0  0  0  0  0  0  0  0  0  0
    3.4498  -11.3018    0.0000 C   0  0  0  0  0  0  0  0  0  0  0  0
    2.2999  -11.9666    0.0000 O   0  0  0  0  0  0  0  0  0  0  0  0
    1.1679   -9.9722    0.0000 C   0  0  0  0  0  0  0  0  0  0  0  0
    1.1679  -11.3018    0.0000 C   0  0  0  0  0  0  0  0  0  0  0  0
    5.7497  -11.3018    0.0000 C   0  0  0  0  0  0  0  0  0  0  0  0
    4.6178  -11.9666    0.0000 C   0  0  0  0  0  0  0  0  0  0  0  0
    4.6537   -3.9889    0.0000 O   0  0  0  0  0  0  0  0  0  0  0  0
    8.0317   -9.9722    0.0000 O   0  0  0  0  0  0  0  0  0  0  0  0
    8.0496   -7.3309    0.0000 C   0  0  0  0  0  0  0  0  0  0  0  0
    8.0496   -6.0013    0.0000 C   0  0  0  0  0  0  0  0  0  0  0  0
    9.2175   -5.3185    0.0000 O   0  0  0  0  0  0  0  0  0  0  0  0
    0.0000  -11.9666    0.0000 C   0  0  0  0  0  0  0  0  0  0  0  0
    6.9177   -5.3185    0.0000 C   0  0  0  0  0  0  0  0  0  0  0  0
    5.7857   -3.3241    0.0000 C   0  0  0  0  0  0  0  0  0  0  0  0
    5.7857   -1.9944    0.0000 C   0  0  0  0  0  0  0  0  0  0  0  0
    6.9536   -3.9889    0.0000 O   0  0  0  0  0  0  0  0  0  0  0  0
    6.9536   -1.3296    0.0000 C   0  0  0  0  0  0  0  0  0  0  0  0
    8.0856   -3.3241    0.0000 C   0  0  0  0  0  0  0  0  0  0  0  0
    8.0856   -1.9944    0.0000 C   0  0  0  0  0  0  0  0  0  0  0  0
    9.2535   -1.3296    0.0000 N   0  0  0  0  0  0  0  0  0  0  0  0
    9.2535   -3.9889    0.0000 C   0  0  0  0  0  0  0  0  0  0  0  0
   10.4034   -1.9944    0.0000 C   0  0  0  0  0  0  0  0  0  0  0  0
    9.2535    0.0000    0.0000 C   0  0  0  0  0  0  0  0  0  0  0  0
    9.3613   -9.9722    0.0000 C   0  0  0  0  0  0  0  0  0  0  0  0
   10.0441   -8.8043    0.0000 C   0  0  0  0  0  0  0  0  0  0  0  0
   10.0441  -11.1042    0.0000 O   0  0  0  0  0  0  0  0  0  0  0  0
   11.3737   -8.8043    0.0000 C   0  0  0  0  0  0  0  0  0  0  0  0
   11.3737  -11.1042    0.0000 C   0  0  0  0  0  0  0  0  0  0  0  0
   12.0205   -9.9722    0.0000 C   0  0  0  0  0  0  0  0  0  0  0  0
    9.3613   -7.6543    0.0000 O   0  0  0  0  0  0  0  0  0  0  0  0
   12.0205   -7.6543    0.0000 N   0  0  0  0  0  0  0  0  0  0  0  0
   13.3502   -9.9722    0.0000 O   0  0  0  0  0  0  0  0  0  0  0  0
   12.0205  -12.2721    0.0000 C   0  0  0  0  0  0  0  0  0  0  0  0
   13.3502   -7.6543    0.0000 C   0  0  0  0  0  0  0  0  0  0  0  0
   11.3737   -6.5044    0.0000 C   0  0  0  0  0  0  0  0  0  0  0  0
   14.5001   -9.2894    0.0000 C   0  0  0  0  0  0  0  0  0  0  0  0
   14.5001   -7.9598    0.0000 C   0  0  0  0  0  0  0  0  0  0  0  0
   15.6680   -9.9722    0.0000 O   0  0  0  0  0  0  0  0  0  0  0  0
   15.6680   -7.3129    0.0000 C   0  0  0  0  0  0  0  0  0  0  0  0
   16.8000   -9.2894    0.0000 C   0  0  0  0  0  0  0  0  0  0  0  0
   16.8000   -7.9598    0.0000 C   0  0  0  0  0  0  0  0  0  0  0  0
   17.9679   -7.3129    0.0000 O   0  0  0  0  0  0  0  0  0  0  0  0
   17.9679   -9.9722    0.0000 C   0  0  0  0  0  0  0  0  0  0  0  0
   16.3149   -6.1271    0.0000 C   0  0  0  0  0  0  0  0  0  0  0  0
   14.9853   -6.1450    0.0000 O   0  0  0  0  0  0  0  0  0  0  0  0
    6.8997  -11.9666    0.0000 O   0  0  0  0  0  0  0  0  0  0  0  0
  1  2  1  0  0  0  0
  1  3  1  0  0  0  0
  1 26  1  6  0  0  0
  2 11  1  0  0  0  0
  3  5  1  0  0  0  0
  3 20  1  6  0  0  0
  4  7  1  0  0  0  0
  5  6  2  0  0  0  0
  6  9  1  0  0  0  0
 13  7  1  6  0  0  0
  8 14  2  0  0  0  0
  9 10  2  0  0  0  0
 10 16  1  0  0  0  0
 11 12  1  0  0  0  0
 11 22  1  6  0  0  0
 12 13  1  0  0  0  0
 12 21  1  6  0  0  0
 13 18  1  0  0  0  0
 14 15  1  0  0  0  0
 14 19  1  0  0  0  0
 15 17  1  0  0  0  0
 16 17  1  0  0  0  0
 17 25  1  6  0  0  0
 18 19  1  0  0  0  0
 18 59  1  6  0  0  0
 27 20  1  6  0  0  0
 37 21  1  1  0  0  0
 22 23  1  0  0  0  0
 23 24  2  0  0  0  0
 27 28  1  0  0  0  0
 27 29  1  0  0  0  0
 28 30  1  0  0  0  0
 29 31  1  0  0  0  0
 30 32  1  0  0  0  0
 31 32  1  0  0  0  0
 31 34  1  1  0  0  0
 32 33  1  6  0  0  0
 33 35  1  0  0  0  0
 33 36  1  0  0  0  0
 37 38  1  0  0  0  0
 37 39  1  0  0  0  0
 38 40  1  0  0  0  0
 38 43  1  6  0  0  0
 39 41  1  0  0  0  0
 40 42  1  0  0  0  0
 40 44  1  1  0  0  0
 41 42  1  0  0  0  0
 41 46  1  1  0  0  0
 42 45  1  6  0  0  0
 44 47  1  0  0  0  0
 44 48  1  0  0  0  0
 49 45  1  1  0  0  0
 49 50  1  0  0  0  0
 49 51  1  0  0  0  0
 50 52  1  0  0  0  0
 51 53  1  0  0  0  0
 52 54  1  0  0  0  0
 52 57  1  6  0  0  0
 52 58  1  1  0  0  0
 53 54  1  0  0  0  0
 53 56  1  6  0  0  0
 54 55  1  1  0  0  0
M  END
> <ID>
3214

> <Formula>
C43H74N2O14

> <FW>
843.0527

> <DSSTox_CID>
3594

> <DSSTox_RID>
80855

> <DSSTox_GSID>
45402

> <DSSTox_FileID_Sort>
5536

> <TS_ChemName>
Spiramycin

> <TS_ChemName_Synonyms>


> <TS_CASRN>
8025-81-8

> <CASRN_ChemName_Relationship>
primary

> <TS_Description>
mixture or formulation

> <ChemNote>
stereochem; spiramycin is a mixture of spiramycin I (alcohol at C4); spiramycin II (acetate at C4); spiramycin III (propanate at C4); structure shown spiramycin I

> <STRUCTURE_Shown>
representative component

> <STRUCTURE_Formula>
C43H74N2O14

> <STRUCTURE_MW>
843.0527

> <STRUCTURE_ChemType>
defined organic

> <STRUCTURE_DefinedOrganicForm>
parent

> <STRUCTURE_IUPAC>
[(4R,5S,6S,7R,9R,10R,11E,13E,16R)-6-{[(2S,3R,4R,5S,6R)-5-{[(2S,4R,5S,6S)-4,5-dihydroxy-4,6-dimethyltetrahydro-2H-pyran-2-yl]oxy}-4-(dimethylamino)-3-hydroxy-6-methyltetrahydro-2H-pyran-2-yl]oxy}-10-{[(2S,5S,6R)-5-(dimethylamino)-6-methyltetrahydro-2H-pyra

> <STRUCTURE_SMILES>
CN(C)[C@H]1CC[C@H](O[C@@H]1C)O[C@H]4C=CC=CC[C@@H](C)OC(=O)C[C@@H](O)[C@H](OC)[C@@H](O[C@@H]3O[C@H](C)[C@@H](O[C@H]2C[C@@](C)(O)[C@@H](O)[C@H](C)O2)[C@@H]([C@H]3O)N(C)C)[C@@H](CC=O)C[C@H]4C

> <STRUCTURE_SMILES_Desalt>
CN(C)[C@H]1CC[C@H](O[C@@H]1C)O[C@H]4C=CC=CC[C@@H](C)OC(=O)C[C@@H](O)[C@H](OC)[C@@H](O[C@@H]3O[C@H](C)[C@@H](O[C@H]2C[C@@](C)(O)[C@@H](O)[C@H](C)O2)[C@@H]([C@H]3O)N(C)C)[C@@H](CC=O)C[C@H]4C

> <Substance_modify_yyyymmdd>
20110722

$$$$
