80370-57-6
ChemmineR-0915142007XD

 36 39  0  0  1  0  0  0  0  0  1 V2000
    6.3052   -4.3652    0.0000 N   0  0  0  0  0  0  0  0  0  0  0  0
    4.7789   -4.3652    0.0000 C   0  0  0  0  0  0  0  0  0  0  0  0
    4.7789   -2.9529    0.0000 C   0  0  0  0  0  0  0  0  0  0  0  0
    6.3052   -2.9529    0.0000 C   0  0  0  0  0  0  0  0  0  0  0  0
    7.4322   -5.0356    0.0000 C   0  0  0  0  0  0  0  0  0  0  0  0
    1.4693   -4.1084    0.0000 C   0  0  0  0  0  0  0  0  0  0  0  0
    1.4693   -2.7532    0.0000 C   0  0  0  0  0  0  0  0  0  0  0  0
    0.3709   -4.7646    0.0000 N   0  0  0  0  0  0  0  0  0  0  0  0
    3.6804   -2.9529    0.0000 N   0  0  0  0  0  0  0  0  0  0  0  0
    2.5392   -2.1398    0.0000 C   0  0  0  0  0  0  0  0  0  0  0  0
    7.4322   -2.2824    0.0000 S   0  0  0  0  0  0  0  0  0  0  0  0
    8.6305   -4.3366    0.0000 C   0  0  0  0  0  0  0  0  0  0  0  0
    0.7846   -6.2054    0.0000 C   0  0  0  0  0  0  0  0  0  0  0  0
    2.5963   -4.9786    0.0000 C   0  0  0  0  0  0  0  0  0  0  0  0
    2.0542   -6.2054    0.0000 S   0  0  0  0  0  0  0  0  0  0  0  0
    7.4322   -6.3480    0.0000 C   0  0  0  0  0  0  0  0  0  0  0  0
   11.0128   -2.9957    0.0000 C   0  0  0  0  0  0  0  0  0  0  0  0
   12.1255   -2.3680    0.0000 C   0  0  0  0  0  0  0  0  0  0  0  0
    8.6305   -2.9529    0.0000 C   0  0  0  0  0  0  0  0  0  0  0  0
   11.0128   -4.2938    0.0000 S   0  0  0  0  0  0  0  0  0  0  0  0
    0.3281   -2.2254    0.0000 N   0  0  0  0  0  0  0  0  0  0  0  0
    3.9657   -5.3067    0.0000 O   0  0  0  0  0  0  0  0  0  0  0  0
    9.8145   -4.9500    0.0000 C   0  0  0  0  0  0  0  0  0  0  0  0
   12.2681   -1.0842    0.0000 O   0  0  0  0  0  0  0  0  0  0  0  0
    2.5392   -0.8416    0.0000 O   0  0  0  0  0  0  0  0  0  0  0  0
   13.3808   -2.8958    0.0000 C   0  0  0  0  0  0  0  0  0  0  0  0
    9.8715   -2.2396    0.0000 O   0  0  0  0  0  0  0  0  0  0  0  0
    8.5734   -7.0185    0.0000 O   0  0  0  0  0  0  0  0  0  0  0  0
   13.5520   -0.7561    0.0000 C   0  0  0  0  0  0  0  0  0  0  0  0
   14.2652   -1.9258    0.0000 C   0  0  0  0  0  0  0  0  0  0  0  0
    0.0000   -7.2182    0.0000 N   0  0  0  0  0  0  0  0  0  0  0  0
    6.3623   -7.0185    0.0000 O   0  0  0  0  0  0  0  0  0  0  0  0
    0.3281   -0.6562    0.0000 O   0  0  0  0  0  0  0  0  0  0  0  0
    1.4693    0.0000    0.0000 C   0  0  0  0  0  0  0  0  0  0  0  0
    6.3052   -1.8973    0.0000 H   0  0  0  0  0  0  0  0  0  0  0  0
    4.7789   -1.8545    0.0000 H   0  0  0  0  0  0  0  0  0  0  0  0
  1  2  1  0  0  0  0
  1  4  1  0  0  0  0
  1  5  1  0  0  0  0
  2 22  2  0  0  0  0
  2  3  1  0  0  0  0
  3  4  1  0  0  0  0
  3  9  1  1  0  0  0
  3 36  1  6  0  0  0
  4 11  1  0  0  0  0
  4 35  1  6  0  0  0
  5 12  2  0  0  0  0
  5 16  1  0  0  0  0
  6  7  1  0  0  0  0
  6  8  1  0  0  0  0
  6 14  2  0  0  0  0
  7 10  1  0  0  0  0
  7 21  2  0  0  0  0
  8 13  2  0  0  0  0
  9 10  1  0  0  0  0
 10 25  2  0  0  0  0
 11 19  1  0  0  0  0
 12 19  1  0  0  0  0
 12 23  1  0  0  0  0
 13 31  1  0  0  0  0
 13 15  1  0  0  0  0
 14 15  1  0  0  0  0
 16 28  2  0  0  0  0
 16 32  1  0  0  0  0
 17 20  1  0  0  0  0
 17 18  1  0  0  0  0
 17 27  2  0  0  0  0
 18 24  1  0  0  0  0
 18 26  2  0  0  0  0
 20 23  1  0  0  0  0
 21 33  1  0  0  0  0
 24 29  1  0  0  0  0
 26 30  1  0  0  0  0
 29 30  2  0  0  0  0
 33 34  1  0  0  0  0
M  END
> <ID>
11900

> <Formula>
C19H17N5O7S3

> <FW>
523.5626

> <DSSTox_CID>
26702

> <DSSTox_RID>
81836

> <DSSTox_GSID>
46702

> <DSSTox_FileID_Sort>
6517

> <TS_ChemName>
Ceftiofur

> <TS_ChemName_Synonyms>


> <TS_CASRN>
80370-57-6

> <CASRN_ChemName_Relationship>
primary

> <TS_Description>
single chemical compound

> <ChemNote>
stereochem

> <STRUCTURE_Shown>
tested chemical

> <STRUCTURE_Formula>
C19H17N5O7S3

> <STRUCTURE_MW>
523.5626

> <STRUCTURE_ChemType>
defined organic

> <STRUCTURE_DefinedOrganicForm>
parent

> <STRUCTURE_IUPAC>
(6R,7R)-7-{[(2Z)-2-(2-amino-1,3-thiazol-4-yl)-2-(methoxyimino)acetyl]amino}-3-{[(furan-2-ylcarbonyl)sulfanyl]methyl}-8-oxo-5-thia-1-azabicyclo[4.2.0]oct-2-ene-2-carboxylic acid

> <STRUCTURE_SMILES>
Nc1scc(n1)\C(=N\OC)C(=O)N[C@@H]4C(=O)N3C(=C(CSC(=O)c2ccco2)CS[C@@H]34)C(=O)O

> <STRUCTURE_SMILES_Desalt>
Nc1scc(n1)\C(=N\OC)C(=O)N[C@@H]4C(=O)N3C(=C(CSC(=O)c2ccco2)CS[C@@H]34)C(=O)O

> <Substance_modify_yyyymmdd>
20110805

$$$$
