804-30-8
ChemmineR-0915142007XD

 26 27  0  0  0  0  0  0  0  0  1 V2000
    2.3044   -1.3294    0.0000 N   0  0  0  0  0  0  0  0  0  0  0  0
    3.4565   -3.3236    0.0000 C   0  0  0  0  0  0  0  0  0  0  0  0
    3.4565   -1.9942    0.0000 C   0  0  0  0  0  0  0  0  0  0  0  0
    5.7609   -3.3236    0.0000 N   0  0  0  0  0  0  0  0  0  0  0  0
    6.9131   -3.9883    0.0000 C   0  0  0  0  0  0  0  0  0  0  0  0
    8.0653   -3.3236    0.0000 C   0  0  0  0  0  0  0  0  0  0  0  0
    4.6087   -3.9883    0.0000 C   0  0  0  0  0  0  0  0  0  0  0  0
    1.1522   -3.3236    0.0000 N   0  0  0  0  0  0  0  0  0  0  0  0
    1.1522   -1.9942    0.0000 C   0  0  0  0  0  0  0  0  0  0  0  0
    5.7609   -1.9942    0.0000 C   0  0  0  0  0  0  0  0  0  0  0  0
    2.3044   -3.9883    0.0000 C   0  0  0  0  0  0  0  0  0  0  0  0
    9.2175   -3.9883    0.0000 S   0  0  0  0  0  0  0  0  0  0  0  0
   10.3696   -3.3236    0.0000 S   0  0  0  0  0  0  0  0  0  0  0  0
    6.9131   -1.3294    0.0000 O   0  0  0  0  0  0  0  0  0  0  0  0
   13.8853   -3.8702    0.0000 O   0  0  0  0  0  0  0  0  0  0  0  0
    4.6087   -1.3294    0.0000 N   0  0  0  0  0  0  0  0  0  0  0  0
    8.0653   -1.9942    0.0000 C   0  0  0  0  0  0  0  0  0  0  0  0
   11.5218   -3.9883    0.0000 C   0  0  0  0  0  0  0  0  0  0  0  0
   12.6740   -3.3236    0.0000 C   0  0  0  0  0  0  0  0  0  0  0  0
    6.9131   -5.3178    0.0000 C   0  0  0  0  0  0  0  0  0  0  0  0
    9.2175    0.0000    0.0000 O   0  0  0  0  0  0  0  0  0  0  0  0
    0.0000   -1.3294    0.0000 C   0  0  0  0  0  0  0  0  0  0  0  0
    9.2175   -1.3294    0.0000 C   0  0  0  0  0  0  0  0  0  0  0  0
   14.7716   -2.8805    0.0000 C   0  0  0  0  0  0  0  0  0  0  0  0
   12.8070   -1.9942    0.0000 C   0  0  0  0  0  0  0  0  0  0  0  0
   14.1069   -1.7283    0.0000 C   0  0  0  0  0  0  0  0  0  0  0  0
  1  3  1  0  0  0  0
  1  9  2  0  0  0  0
  2  3  2  0  0  0  0
  2  7  1  0  0  0  0
  2 11  1  0  0  0  0
  3 16  1  0  0  0  0
  4  7  1  0  0  0  0
  4  5  1  0  0  0  0
  4 10  1  0  0  0  0
  5  6  2  0  0  0  0
  5 20  1  0  0  0  0
  6 12  1  0  0  0  0
  6 17  1  0  0  0  0
  8  9  1  0  0  0  0
  8 11  2  0  0  0  0
  9 22  1  0  0  0  0
 10 14  2  0  0  0  0
 12 13  1  0  0  0  0
 13 18  1  0  0  0  0
 15 19  1  0  0  0  0
 15 24  1  0  0  0  0
 17 23  1  0  0  0  0
 18 19  1  0  0  0  0
 19 25  1  0  0  0  0
 21 23  1  0  0  0  0
 24 26  1  0  0  0  0
 25 26  1  0  0  0  0
M  END
> <ID>
2772

> <Formula>
C17H26N4O3S2

> <FW>
398.5433

> <DSSTox_CID>
3084

> <DSSTox_RID>
76867

> <DSSTox_GSID>
23084

> <DSSTox_FileID_Sort>
1551

> <TS_ChemName>
Fursultiamine

> <TS_ChemName_Synonyms>


> <TS_CASRN>
804-30-8

> <CASRN_ChemName_Relationship>
primary

> <TS_Description>
mixture or formulation

> <ChemNote>
mixture of Z,E isomers; structure shown E; stereochem

> <STRUCTURE_Shown>
representative isomer in mixture

> <STRUCTURE_Formula>
C17H26N4O3S2

> <STRUCTURE_MW>
398.5433

> <STRUCTURE_ChemType>
defined organic

> <STRUCTURE_DefinedOrganicForm>
parent

> <STRUCTURE_IUPAC>
N-[(4-amino-2-methylpyrimidin-5-yl)methyl]-N-{(2E)-5-hydroxy-3-[(tetrahydrofuran-2-ylmethyl)disulfanyl]pent-2-en-2-yl}formamide

> <STRUCTURE_SMILES>
Cc2ncc(CN(C=O)C(/C)=C(/SSCC1CCCO1)CCO)c(N)n2

> <STRUCTURE_SMILES_Desalt>
Cc2ncc(CN(C=O)C(/C)=C(/SSCC1CCCO1)CCO)c(N)n2

> <Substance_modify_yyyymmdd>
20080429

$$$$
