804-36-4
ChemmineR-0915142007XD

 26 27  0  0  0  0  0  0  0  0  2 V2000
    2.1017   -5.1240    0.0000 C   0  0  0  0  0  0  0  0  0  0  0  0
   13.2241   -5.0933    0.0000 C   0  0  0  0  0  0  0  0  0  0  0  0
   14.5588   -4.9399    0.0000 N   0  3  0  0  0  0  0  0  0  0  0  0
    0.7824   -4.9859    0.0000 N   0  3  0  0  0  0  0  0  0  0  0  0
   12.3343   -4.0961    0.0000 O   0  0  0  0  0  0  0  0  0  0  0  0
    2.9915   -4.1421    0.0000 O   0  0  0  0  0  0  0  0  0  0  0  0
    2.7768   -6.2746    0.0000 C   0  0  0  0  0  0  0  0  0  0  0  0
   12.5645   -6.2439    0.0000 C   0  0  0  0  0  0  0  0  0  0  0  0
    8.7905   -0.6597    0.0000 C   0  0  0  0  0  0  0  0  0  0  0  0
   11.1224   -4.6484    0.0000 C   0  0  0  0  0  0  0  0  0  0  0  0
    4.2188   -4.6637    0.0000 C   0  0  0  0  0  0  0  0  0  0  0  0
    7.6706   -2.6847    0.0000 N   0  0  0  0  0  0  0  0  0  0  0  0
    4.0808   -5.9984    0.0000 C   0  0  0  0  0  0  0  0  0  0  0  0
   11.2605   -5.9677    0.0000 C   0  0  0  0  0  0  0  0  0  0  0  0
    8.8059   -1.9944    0.0000 N   0  0  0  0  0  0  0  0  0  0  0  0
    5.3541   -3.9887    0.0000 C   0  0  0  0  0  0  0  0  0  0  0  0
    9.9718   -3.9734    0.0000 C   0  0  0  0  0  0  0  0  0  0  0  0
    0.2455   -3.7739    0.0000 O   0  5  0  0  0  0  0  0  0  0  0  0
   15.0804   -3.7279    0.0000 O   0  5  0  0  0  0  0  0  0  0  0  0
    6.5200   -4.6637    0.0000 C   0  0  0  0  0  0  0  0  0  0  0  0
    8.8059   -4.6484    0.0000 C   0  0  0  0  0  0  0  0  0  0  0  0
   15.3412   -6.0138    0.0000 O   0  0  0  0  0  0  0  0  0  0  0  0
    0.0000   -6.0598    0.0000 O   0  0  0  0  0  0  0  0  0  0  0  0
    7.6553    0.0000    0.0000 N   0  0  0  0  0  0  0  0  0  0  0  0
    7.6706   -3.9887    0.0000 C   0  0  0  0  0  0  0  0  0  0  0  0
    9.9564    0.0000    0.0000 N   0  0  0  0  0  0  0  0  0  0  0  0
  1  4  1  0  0  0  0
  1  6  1  0  0  0  0
  1  7  2  0  0  0  0
  2  5  1  0  0  0  0
  2  3  1  0  0  0  0
  2  8  2  0  0  0  0
  3 19  1  0  0  0  0
  3 22  2  0  0  0  0
  4 18  1  0  0  0  0
  4 23  2  0  0  0  0
  5 10  1  0  0  0  0
  6 11  1  0  0  0  0
  7 13  1  0  0  0  0
  8 14  1  0  0  0  0
  9 15  1  0  0  0  0
  9 24  2  0  0  0  0
  9 26  1  0  0  0  0
 10 17  1  0  0  0  0
 10 14  2  0  0  0  0
 11 16  1  0  0  0  0
 11 13  2  0  0  0  0
 12 25  2  0  0  0  0
 12 15  1  0  0  0  0
 16 20  2  3  0  0  0
 17 21  2  3  0  0  0
 20 25  1  0  0  0  0
 21 25  1  0  0  0  0
M  END
> <ID>
12064

> <Formula>
C14H12N6O6

> <FW>
360.2817

> <DSSTox_CID>
26903

> <DSSTox_RID>
82002

> <DSSTox_GSID>
46903

> <DSSTox_FileID_Sort>
6683

> <TS_ChemName>
Nitrovin

> <TS_ChemName_Synonyms>


> <TS_CASRN>
804-36-4

> <CASRN_ChemName_Relationship>
primary

> <TS_Description>
mixture of Z,E isomers

> <ChemNote>
tautomers; mixture of Z,E isomers

> <STRUCTURE_Shown>
representative isomer in mixture

> <STRUCTURE_Formula>
C14H12N6O6

> <STRUCTURE_MW>
360.2817

> <STRUCTURE_ChemType>
defined organic

> <STRUCTURE_DefinedOrganicForm>
parent

> <STRUCTURE_IUPAC>
2-[1,5-bis(5-nitrofuran-2-yl)penta-1,4-dien-3-ylidene]hydrazinecarboximidamide

> <STRUCTURE_SMILES>
O=[N+]([O-])c2ccc(C=C/C(C=Cc1ccc(o1)[N+]([O-])=O)=N\NC(=N)N)o2

> <STRUCTURE_SMILES_Desalt>
O=[N+]([O-])c2ccc(C=C/C(C=Cc1ccc(o1)[N+]([O-])=O)=N\NC(=N)N)o2

> <Substance_modify_yyyymmdd>
20110727

$$$$
