80443-63-6
ChemmineR-0915142007XD

 16 17  0  0  0  0  0  0  0  0  1 V2000
    1.6412    0.0000    0.0000 O    0  0  0  0  0  0  0  0  0  0  0  0
    2.3143   -1.1618    0.0000 C    0  0  0  0  0  0  0  0  0  0  0  0
    2.9689    0.0000    0.0000 C    0  0  0  0  0  0  0  0  0  0  0  0
    3.4576   -1.8164    0.0000 C    0  0  0  0  0  0  0  0  0  0  0  0
    4.6102   -1.1618    0.0000 C    0  0  0  0  0  0  0  0  0  0  0  0
    6.9245   -3.8080    0.0000 C    0  0  0  0  0  0  0  0  0  0  0  0
    8.0678   -3.1533    0.0000 C    0  0  0  0  0  0  0  0  0  0  0  0
    8.0678   -1.8164    0.0000 C    0  0  0  0  0  0  0  0  0  0  0  0
    6.9060   -1.1618    0.0000 C    0  0  0  0  0  0  0  0  0  0  0  0
    5.7535   -1.8164    0.0000 C    0  0  0  0  0  0  0  0  0  0  0  0
    5.7627   -3.1533    0.0000 C    0  0  0  0  0  0  0  0  0  0  0  0
    9.2203   -3.8264    0.0000 Cl   0  0  0  0  0  0  0  0  0  0  0  0
    1.1525   -1.8164    0.0000 C    0  0  0  0  0  0  0  0  0  0  0  0
    0.4979   -0.6639    0.0000 C    0  0  0  0  0  0  0  0  0  0  0  0
    1.8164   -2.9782    0.0000 C    0  0  0  0  0  0  0  0  0  0  0  0
    0.0000   -2.4803    0.0000 C    0  0  0  0  0  0  0  0  0  0  0  0
  1  2  1  0  0  0  0
  1  3  1  0  0  0  0
  2  3  1  0  0  0  0
  2  4  1  0  0  0  0
  2 13  1  0  0  0  0
  4  5  1  0  0  0  0
  5 10  1  0  0  0  0
  6 11  2  0  0  0  0
  6  7  1  0  0  0  0
  7  8  2  0  0  0  0
  7 12  1  0  0  0  0
  8  9  1  0  0  0  0
  9 10  2  0  0  0  0
 10 11  1  0  0  0  0
 13 14  1  0  0  0  0
 13 15  1  0  0  0  0
 13 16  1  0  0  0  0
M  END
> <ID>
9176

> <Formula>
C14H19ClO

> <FW>
238.7531

> <DSSTox_CID>
22247

> <DSSTox_RID>
79971

> <DSSTox_GSID>
42247

> <DSSTox_FileID_Sort>
4653

> <TS_ChemName>
Oxirane, 2-[2-(4-chlorophenyl)ethyl]-2-(1,1-dimethylethyl)-

> <TS_ChemName_Synonyms>


> <TS_CASRN>
80443-63-6

> <CASRN_ChemName_Relationship>
primary

> <TS_Description>
single chemical compound

> <ChemNote>


> <STRUCTURE_Shown>
tested chemical

> <STRUCTURE_Formula>
C14H19ClO

> <STRUCTURE_MW>
238.7531

> <STRUCTURE_ChemType>
defined organic

> <STRUCTURE_DefinedOrganicForm>
parent

> <STRUCTURE_IUPAC>
2-tert-butyl-2-[2-(4-chlorophenyl)ethyl]oxirane

> <STRUCTURE_SMILES>
CC(C)(C)C2(CCc1ccc(Cl)cc1)CO2

> <STRUCTURE_SMILES_Desalt>
CC(C)(C)C2(CCc1ccc(Cl)cc1)CO2

> <Substance_modify_yyyymmdd>
20080825

$$$$
