80474-14-2
ChemmineR-0915142007XD

 35 38  0  0  1  0  0  0  0  0  1 V2000
    3.4527   -6.3489    0.0000 C   0  0  0  0  0  0  0  0  0  0  0  0
    3.4527   -7.7148    0.0000 C   0  0  0  0  0  0  0  0  0  0  0  0
    2.3018   -5.7039    0.0000 C   0  0  0  0  0  0  0  0  0  0  0  0
    2.3018   -8.3725    0.0000 C   0  0  0  0  0  0  0  0  0  0  0  0
    1.1509   -6.3489    0.0000 C   0  0  0  0  0  0  0  0  0  0  0  0
    1.1509   -7.7148    0.0000 C   0  0  0  0  0  0  0  0  0  0  0  0
    4.5909   -5.7039    0.0000 C   0  0  0  0  0  0  0  0  0  0  0  0
    5.7418   -6.3869    0.0000 C   0  0  0  0  0  0  0  0  0  0  0  0
    4.5909   -8.3725    0.0000 C   0  0  0  0  0  0  0  0  0  0  0  0
    5.7418   -7.7148    0.0000 C   0  0  0  0  0  0  0  0  0  0  0  0
    4.5909   -4.3633    0.0000 C   0  0  0  0  0  0  0  0  0  0  0  0
    5.7418   -3.7183    0.0000 C   0  0  0  0  0  0  0  0  0  0  0  0
    6.9180   -5.7039    0.0000 C   0  0  0  0  0  0  0  0  0  0  0  0
    6.9180   -4.3633    0.0000 C   0  0  0  0  0  0  0  0  0  0  0  0
    8.1701   -6.1086    0.0000 C   0  0  0  0  0  0  0  0  0  0  0  0
    8.9542   -5.0589    0.0000 C   0  0  0  0  0  0  0  0  0  0  0  0
    8.1701   -3.9712    0.0000 C   0  0  0  0  0  0  0  0  0  0  0  0
    0.0000   -8.3725    0.0000 O   0  0  0  0  0  0  0  0  0  0  0  0
    3.4527   -5.0589    0.0000 C   0  0  0  0  0  0  0  0  0  0  0  0
    4.5909   -9.7004    0.0000 F   0  0  0  0  0  0  0  0  0  0  0  0
    4.5909   -7.0445    0.0000 F   0  0  0  0  0  0  0  0  0  0  0  0
    3.4527   -3.7183    0.0000 O   0  0  0  0  0  0  0  0  0  0  0  0
    6.9180   -7.0445    0.0000 H   0  0  0  0  0  0  0  0  0  0  0  0
    6.9180   -3.0353    0.0000 C   0  0  0  0  0  0  0  0  0  0  0  0
    8.1701   -2.6306    0.0000 C   0  0  0  0  0  0  0  0  0  0  0  0
    9.3210   -1.9477    0.0000 O   0  0  0  0  0  0  0  0  0  0  0  0
    7.0066   -1.9856    0.0000 S   0  0  0  0  0  0  0  0  0  0  0  0
    7.0066   -0.6450    0.0000 C   0  0  0  0  0  0  0  0  0  0  0  0
    5.8430    0.0000    0.0000 F   0  0  0  0  0  0  0  0  0  0  0  0
    9.3210   -3.2756    0.0000 O   0  0  0  0  0  0  0  0  0  0  0  0
   10.6490   -3.2756    0.0000 C   0  0  0  0  0  0  0  0  0  0  0  0
   10.2822   -5.0589    0.0000 C   0  0  0  0  0  0  0  0  0  0  0  0
   11.3066   -2.1500    0.0000 C   0  0  0  0  0  0  0  0  0  0  0  0
   11.3066   -4.4392    0.0000 O   0  0  0  0  0  0  0  0  0  0  0  0
   12.6472   -2.1500    0.0000 C   0  0  0  0  0  0  0  0  0  0  0  0
  1  3  1  0  0  0  0
  1  7  1  0  0  0  0
  1  2  1  0  0  0  0
  1 19  1  1  0  0  0
  2  4  2  0  0  0  0
  2  9  1  0  0  0  0
  3  5  2  0  0  0  0
  4  6  1  0  0  0  0
  5  6  1  0  0  0  0
  6 18  2  0  0  0  0
  7 11  1  0  0  0  0
  7  8  1  0  0  0  0
  7 21  1  6  0  0  0
  8 10  1  0  0  0  0
  8 13  1  0  0  0  0
  9 10  1  0  0  0  0
  9 20  1  6  0  0  0
 11 12  1  0  0  0  0
 11 22  1  1  0  0  0
 12 14  1  0  0  0  0
 13 15  1  0  0  0  0
 13 14  1  0  0  0  0
 13 23  1  6  0  0  0
 14 17  1  0  0  0  0
 14 24  1  1  0  0  0
 15 16  1  0  0  0  0
 16 17  1  0  0  0  0
 16 32  1  6  0  0  0
 17 25  1  1  0  0  0
 17 30  1  6  0  0  0
 25 26  2  0  0  0  0
 25 27  1  0  0  0  0
 27 28  1  0  0  0  0
 28 29  1  0  0  0  0
 30 31  1  0  0  0  0
 31 33  1  0  0  0  0
 31 34  2  0  0  0  0
 33 35  1  0  0  0  0
M  END
> <ID>
10990

> <Formula>
C25H31F3O5S

> <FW>
500.5708

> <DSSTox_CID>
25511

> <DSSTox_RID>
80922

> <DSSTox_GSID>
45511

> <DSSTox_FileID_Sort>
5603

> <TS_ChemName>
Fluticasone propionate

> <TS_ChemName_Synonyms>


> <TS_CASRN>
80474-14-2

> <CASRN_ChemName_Relationship>
primary

> <TS_Description>
single chemical compound

> <ChemNote>
stereochem; parent [90566-53-3]

> <STRUCTURE_Shown>
tested chemical

> <STRUCTURE_Formula>
C25H31F3O5S

> <STRUCTURE_MW>
500.5708

> <STRUCTURE_ChemType>
defined organic

> <STRUCTURE_DefinedOrganicForm>
parent

> <STRUCTURE_IUPAC>
(6alpha,8xi,11beta,16alpha,17alpha)-6,9-difluoro-17-{[(fluoromethyl)sulfanyl]carbonyl}-11-hydroxy-16-methyl-3-oxoandrosta-1,4-dien-17-yl propanoate

> <STRUCTURE_SMILES>
O=C(SCF)[C@@]4(OC(=O)CC)[C@H](C)C[C@H]3C2C[C@H](F)C1=CC(=O)C=C[C@]1(C)[C@@]2(F)[C@@H](O)C[C@@]34C

> <STRUCTURE_SMILES_Desalt>
O=C(SCF)[C@@]4(OC(=O)CC)[C@H](C)C[C@H]3C2C[C@H](F)C1=CC(=O)C=C[C@]1(C)[C@@]2(F)[C@@H](O)C[C@@]34C

> <Substance_modify_yyyymmdd>
20100107

$$$$
