80573-04-2
ChemmineR-0915142007XD

 26 27  0  0  0  0  0  0  0  0  1 V2000
   13.8177   -5.9817    0.0000 C   0  0  0  0  0  0  0  0  0  0  0  0
   12.6729   -5.3207    0.0000 C   0  0  0  0  0  0  0  0  0  0  0  0
   14.9785   -5.3207    0.0000 C   0  0  0  0  0  0  0  0  0  0  0  0
   13.8177   -7.3200    0.0000 C   0  0  0  0  0  0  0  0  0  0  0  0
   12.6729   -3.9986    0.0000 C   0  0  0  0  0  0  0  0  0  0  0  0
   14.9785   -3.9986    0.0000 C   0  0  0  0  0  0  0  0  0  0  0  0
   16.1233   -5.9817    0.0000 O   0  0  0  0  0  0  0  0  0  0  0  0
   14.9785   -7.9810    0.0000 O   0  0  0  0  0  0  0  0  0  0  0  0
   12.6729   -7.9810    0.0000 O   0  0  0  0  0  0  0  0  0  0  0  0
   11.5120   -3.3214    0.0000 N   0  0  0  0  0  0  0  0  0  0  0  0
   13.8177   -3.3214    0.0000 C   0  0  0  0  0  0  0  0  0  0  0  0
   10.3673   -3.9986    0.0000 N   0  0  0  0  0  0  0  0  0  0  0  0
    9.2064   -3.3214    0.0000 C   0  0  0  0  0  0  0  0  0  0  0  0
    8.0616   -3.9986    0.0000 C   0  0  0  0  0  0  0  0  0  0  0  0
    9.2064   -1.9993    0.0000 C   0  0  0  0  0  0  0  0  0  0  0  0
    6.9169   -3.3214    0.0000 C   0  0  0  0  0  0  0  0  0  0  0  0
    8.0616   -1.3382    0.0000 C   0  0  0  0  0  0  0  0  0  0  0  0
    6.9169   -1.9993    0.0000 C   0  0  0  0  0  0  0  0  0  0  0  0
    5.7560   -1.3382    0.0000 C   0  0  0  0  0  0  0  0  0  0  0  0
    4.6113   -1.9993    0.0000 N   0  0  0  0  0  0  0  0  0  0  0  0
    5.7560    0.0000    0.0000 O   0  0  0  0  0  0  0  0  0  0  0  0
    3.4504   -1.3382    0.0000 C   0  0  0  0  0  0  0  0  0  0  0  0
    2.3056   -1.9993    0.0000 C   0  0  0  0  0  0  0  0  0  0  0  0
    1.1448   -1.3382    0.0000 C   0  0  0  0  0  0  0  0  0  0  0  0
    1.1448    0.0000    0.0000 O   0  0  0  0  0  0  0  0  0  0  0  0
    0.0000   -1.9993    0.0000 O   0  0  0  0  0  0  0  0  0  0  0  0
  1  2  1  0  0  0  0
  1  3  2  0  0  0  0
  1  4  1  0  0  0  0
  2  5  2  0  0  0  0
  3  6  1  0  0  0  0
  3  7  1  0  0  0  0
  4  8  2  0  0  0  0
  4  9  1  0  0  0  0
  5 10  1  0  0  0  0
  5 11  1  0  0  0  0
  6 11  2  0  0  0  0
 10 12  2  0  0  0  0
 12 13  1  0  0  0  0
 13 14  2  0  0  0  0
 13 15  1  0  0  0  0
 14 16  1  0  0  0  0
 15 17  2  0  0  0  0
 16 18  2  0  0  0  0
 17 18  1  0  0  0  0
 18 19  1  0  0  0  0
 19 20  1  0  0  0  0
 19 21  2  0  0  0  0
 20 22  1  0  0  0  0
 22 23  1  0  0  0  0
 23 24  1  0  0  0  0
 24 25  2  0  0  0  0
 24 26  1  0  0  0  0
M  END
> <ID>
7856

> <Formula>
C17H15N3O6

> <FW>
357.3175

> <DSSTox_CID>
20653

> <DSSTox_RID>
79523

> <DSSTox_GSID>
40653

> <DSSTox_FileID_Sort>
4205

> <TS_ChemName>
Balsalazide

> <TS_ChemName_Synonyms>


> <TS_CASRN>
80573-04-2

> <CASRN_ChemName_Relationship>
primary

> <TS_Description>
single chemical compound

> <ChemNote>
stereochem

> <STRUCTURE_Shown>
tested chemical

> <STRUCTURE_Formula>
C17H15N3O6

> <STRUCTURE_MW>
357.3175

> <STRUCTURE_ChemType>
defined organic

> <STRUCTURE_DefinedOrganicForm>
parent

> <STRUCTURE_IUPAC>
5-[(E)-{4-[(2-carboxyethyl)carbamoyl]phenyl}diazenyl]-2-hydroxybenzoic acid

> <STRUCTURE_SMILES>
OC(=O)c1cc(ccc1O)/N=N/c2ccc(cc2)C(=O)NCCC(=O)O

> <STRUCTURE_SMILES_Desalt>
OC(=O)c1cc(ccc1O)/N=N/c2ccc(cc2)C(=O)NCCC(=O)O

> <Substance_modify_yyyymmdd>
20080429

$$$$
