80621-81-4
ChemmineR-0915142007XD

 57 62  0  0  1  0  0  0  0  0  1 V2000
    8.8810   -7.0995    0.0000 C   0  0  0  0  0  0  0  0  0  0  0  0
    8.8810   -5.8099    0.0000 C   0  0  0  0  0  0  0  0  0  0  0  0
    9.9845   -7.7377    0.0000 N   0  0  0  0  0  0  0  0  0  0  0  0
    9.9845   -9.0273    0.0000 C   0  0  0  0  0  0  0  0  0  0  0  0
    7.7776   -9.0273    0.0000 N   0  0  0  0  0  0  0  0  0  0  0  0
    7.7776   -7.7377    0.0000 C   0  0  0  0  0  0  0  0  0  0  0  0
    5.5706   -7.7377    0.0000 C   0  0  0  0  0  0  0  0  0  0  0  0
    4.4538   -7.0995    0.0000 C   0  0  0  0  0  0  0  0  0  0  0  0
    6.6475   -5.8099    0.0000 C   0  0  0  0  0  0  0  0  0  0  0  0
    6.6475   -7.0995    0.0000 C   0  0  0  0  0  0  0  0  0  0  0  0
    3.3503   -9.0273    0.0000 C   0  0  0  0  0  0  0  0  0  0  0  0
    9.9845   -5.1850    0.0000 N   0  0  0  0  0  0  0  0  0  0  0  0
    3.3503   -7.7377    0.0000 O   0  0  0  0  0  0  0  0  0  0  0  0
    7.7776   -5.1850    0.0000 C   0  0  0  0  0  0  0  0  0  0  0  0
    5.5706   -5.1850    0.0000 C   0  0  0  0  0  0  0  0  0  0  0  0
    5.5706   -9.0273    0.0000 C   0  0  0  0  0  0  0  0  0  0  0  0
    4.4538   -5.8099    0.0000 C   0  0  0  0  0  0  0  0  0  0  0  0
    3.3503   -3.8688    0.0000 C   0  0  0  0  0  0  0  0  0  0  0  0
    9.9845   -3.8688    0.0000 C   0  0  0  0  0  0  0  0  0  0  0  0
    4.4538   -3.2307    0.0000 C   0  0  0  0  0  0  0  0  0  0  0  0
    5.5706   -1.2896    0.0000 C   0  0  0  0  0  0  0  0  0  0  0  0
    4.4538   -1.9411    0.0000 C   0  0  0  0  0  0  0  0  0  0  0  0
   11.0747   -7.0862    0.0000 C   0  0  0  0  0  0  0  0  0  0  0  0
    3.3503   -5.1850    0.0000 C   0  0  0  0  0  0  0  0  0  0  0  0
   11.1412   -9.7053    0.0000 C   0  0  0  0  0  0  0  0  0  0  0  0
    6.6475   -1.9411    0.0000 C   0  0  0  0  0  0  0  0  0  0  0  0
   11.1013   -3.2307    0.0000 C   0  0  0  0  0  0  0  0  0  0  0  0
    1.1301   -9.0273    0.0000 O   0  0  0  0  0  0  0  0  0  0  0  0
    2.2336   -3.2307    0.0000 O   0  0  0  0  0  0  0  0  0  0  0  0
   12.2713   -7.7510    0.0000 C   0  0  0  0  0  0  0  0  0  0  0  0
   12.2713   -9.0406    0.0000 C   0  0  0  0  0  0  0  0  0  0  0  0
    1.1301   -7.7377    0.0000 C   0  0  0  0  0  0  0  0  0  0  0  0
    0.9174   -3.2174    0.0000 C   0  0  0  0  0  0  0  0  0  0  0  0
    2.2336   -7.0995    0.0000 C   0  0  0  0  0  0  0  0  0  0  0  0
    2.2336   -5.8099    0.0000 C   0  0  0  0  0  0  0  0  0  0  0  0
    9.9845   -1.2896    0.0000 C   0  0  0  0  0  0  0  0  0  0  0  0
    6.6475   -9.6655    0.0000 O   0  0  0  0  0  0  0  0  0  0  0  0
   11.1013   -1.9411    0.0000 C   0  0  0  0  0  0  0  0  0  0  0  0
    8.8810   -3.2307    0.0000 O   0  0  0  0  0  0  0  0  0  0  0  0
    7.7776   -1.2896    0.0000 C   0  0  0  0  0  0  0  0  0  0  0  0
    8.8810   -1.9411    0.0000 C   0  0  0  0  0  0  0  0  0  0  0  0
    0.2659   -2.1006    0.0000 O   0  0  0  0  0  0  0  0  0  0  0  0
    7.7776   -3.8688    0.0000 O   0  0  0  0  0  0  0  0  0  0  0  0
    5.5706   -3.8688    0.0000 O   0  0  0  0  0  0  0  0  0  0  0  0
    3.3105   -1.2497    0.0000 O   0  0  0  0  0  0  0  0  0  0  0  0
    6.6475   -3.2307    0.0000 O   0  0  0  0  0  0  0  0  0  0  0  0
    3.3503  -10.3169    0.0000 C   0  0  0  0  0  0  0  0  0  0  0  0
    4.4538   -4.4671    0.0000 C   0  0  0  0  0  0  0  0  0  0  0  0
    5.4111   -2.5792    0.0000 C   0  0  0  0  0  0  0  0  0  0  0  0
    5.5706    0.0000    0.0000 C   0  0  0  0  0  0  0  0  0  0  0  0
    1.1301   -5.1850    0.0000 O   0  0  0  0  0  0  0  0  0  0  0  0
    3.3902   -6.3151    0.0000 C   0  0  0  0  0  0  0  0  0  0  0  0
   12.2447   -3.9220    0.0000 C   0  0  0  0  0  0  0  0  0  0  0  0
   13.2950   -9.6522    0.0000 C   0  0  0  0  0  0  0  0  0  0  0  0
    0.2925   -4.3342    0.0000 C   0  0  0  0  0  0  0  0  0  0  0  0
    7.7776    0.0000    0.0000 C   0  0  0  0  0  0  0  0  0  0  0  0
    0.0000   -5.8631    0.0000 C   0  0  0  0  0  0  0  0  0  0  0  0
  1  2  1  0  0  0  0
  1  3  1  0  0  0  0
  1  6  2  0  0  0  0
  2 12  1  0  0  0  0
  2 14  2  0  0  0  0
  3  4  1  0  0  0  0
  3 23  1  0  0  0  0
  4 25  1  0  0  0  0
  4  5  2  0  0  0  0
  5  6  1  0  0  0  0
  6 10  1  0  0  0  0
  7 10  1  0  0  0  0
  7  8  2  0  0  0  0
  7 16  1  0  0  0  0
  8 13  1  0  0  0  0
  8 17  1  0  0  0  0
  9 10  2  0  0  0  0
  9 15  1  0  0  0  0
  9 14  1  0  0  0  0
 11 16  1  0  0  0  0
 11 28  1  1  0  0  0
 11 47  1  6  0  0  0
 11 13  1  0  0  0  0
 12 19  1  0  0  0  0
 14 43  1  0  0  0  0
 15 17  2  0  0  0  0
 15 44  1  0  0  0  0
 16 37  2  0  0  0  0
 17 48  1  0  0  0  0
 18 24  1  0  0  0  0
 18 20  1  0  0  0  0
 18 29  1  1  0  0  0
 19 27  1  0  0  0  0
 19 39  2  0  0  0  0
 20 49  1  1  0  0  0
 20 22  1  0  0  0  0
 21 26  1  0  0  0  0
 21 22  1  0  0  0  0
 21 50  1  6  0  0  0
 22 45  1  6  0  0  0
 23 30  2  0  0  0  0
 24 35  1  0  0  0  0
 24 52  1  6  0  0  0
 25 31  2  0  0  0  0
 26 40  1  0  0  0  0
 26 46  1  6  0  0  0
 27 38  2  0  0  0  0
 27 53  1  0  0  0  0
 28 32  1  0  0  0  0
 29 33  1  0  0  0  0
 30 31  1  0  0  0  0
 31 54  1  0  0  0  0
 32 34  2  0  0  0  0
 33 42  2  0  0  0  0
 33 55  1  0  0  0  0
 34 35  1  0  0  0  0
 35 51  1  6  0  0  0
 36 38  1  0  0  0  0
 36 41  2  0  0  0  0
 40 41  1  0  0  0  0
 40 56  1  1  0  0  0
 51 57  1  0  0  0  0
M  END
> <ID>
11348

> <Formula>
C43H51N3O11

> <FW>
785.8785

> <DSSTox_CID>
25998

> <DSSTox_RID>
81280

> <DSSTox_GSID>
45998

> <DSSTox_FileID_Sort>
5961

> <TS_ChemName>
Rifaximin

> <TS_ChemName_Synonyms>


> <TS_CASRN>
80621-81-4

> <CASRN_ChemName_Relationship>
primary

> <TS_Description>
single chemical compound

> <ChemNote>
stereochem

> <STRUCTURE_Shown>
tested chemical

> <STRUCTURE_Formula>
C43H51N3O11

> <STRUCTURE_MW>
785.8785

> <STRUCTURE_ChemType>
defined organic

> <STRUCTURE_DefinedOrganicForm>
parent

> <STRUCTURE_IUPAC>
(2S,16Z,18E,20S,21S,22R,23R,24R,25S,26R,27S,28E)-5,6,21,23-tetrahydroxy-27-methoxy-2,4,11,16,20,22,24,26-octamethyl-1,15-dioxo-1,2-dihydro-2,7-(epoxypentadeca[1,11,13]trienoimino)furo[2'',3'':7',8']naphtho[1',2':4,5]imidazo[1,2-a]pyridin-25-yl acetate

> <STRUCTURE_SMILES>
CC(=O)O[C@@H]1[C@H](C)[C@@H](OC)C=CO[C@@]5(C)Oc4c(C)c(O)c3c(O)c(NC(=O)C(C)=CC=C[C@H](C)[C@H](O)[C@@H](C)[C@@H](O)[C@H]1C)c2n6ccc(C)cc6nc2c3c4C5=O

> <STRUCTURE_SMILES_Desalt>
CC(=O)O[C@@H]1[C@H](C)[C@@H](OC)C=CO[C@@]5(C)Oc4c(C)c(O)c3c(O)c(NC(=O)C(C)=CC=C[C@H](C)[C@H](O)[C@@H](C)[C@@H](O)[C@H]1C)c2n6ccc(C)cc6nc2c3c4C5=O

> <Substance_modify_yyyymmdd>
20110824

$$$$
