8065-48-3
ChemmineR-0915142007XD

 14 13  0  0  0  0  0  0  0  0  1 V2000
    3.4652   -1.3344    0.0000 P   0  0  0  0  0  0  0  0  0  0  0  0
    4.6133   -1.9964    0.0000 S   0  0  0  0  0  0  0  0  0  0  0  0
    3.4652    0.0000    0.0000 O   0  0  0  0  0  0  0  0  0  0  0  0
    5.7615   -1.3344    0.0000 C   0  0  0  0  0  0  0  0  0  0  0  0
    6.9097   -1.9964    0.0000 C   0  0  0  0  0  0  0  0  0  0  0  0
    8.0578   -1.3344    0.0000 S   0  0  0  0  0  0  0  0  0  0  0  0
    9.1853   -1.9964    0.0000 C   0  0  0  0  0  0  0  0  0  0  0  0
   10.3438   -1.3344    0.0000 C   0  0  0  0  0  0  0  0  0  0  0  0
    2.2963   -1.9964    0.0000 O   0  0  0  0  0  0  0  0  0  0  0  0
    1.1482   -1.3344    0.0000 C   0  0  0  0  0  0  0  0  0  0  0  0
    0.0000   -1.9964    0.0000 C   0  0  0  0  0  0  0  0  0  0  0  0
    2.8032   -2.5032    0.0000 O   0  0  0  0  0  0  0  0  0  0  0  0
    1.4585   -2.5032    0.0000 C   0  0  0  0  0  0  0  0  0  0  0  0
    0.7861   -3.6514    0.0000 C   0  0  0  0  0  0  0  0  0  0  0  0
  1  2  1  0  0  0  0
  1  3  2  0  0  0  0
  1  9  1  0  0  0  0
  1 12  1  0  0  0  0
  2  4  1  0  0  0  0
  4  5  1  0  0  0  0
  5  6  1  0  0  0  0
  6  7  1  0  0  0  0
  7  8  1  0  0  0  0
  9 10  1  0  0  0  0
 10 11  1  0  0  0  0
 12 13  1  0  0  0  0
 13 14  1  0  0  0  0
M  END
> <ID>
2140

> <Formula>
C8H19O3PS2

> <FW>
258.3384

> <DSSTox_CID>
2306

> <DSSTox_RID>
76540

> <DSSTox_GSID>
22306

> <DSSTox_FileID_Sort>
1224

> <TS_ChemName>
Demeton

> <TS_ChemName_Synonyms>
Demeton (Demeton O,S)

> <TS_CASRN>
8065-48-3

> <CASRN_ChemName_Relationship>
primary

> <TS_Description>
mixture or formulation

> <ChemNote>
CASRN [8065-48-3] is for defined mixture, Demeton-O [298-03-3] (35%); Demeton-S  [126-75-0] (56%); structure shown Demeton-S

> <STRUCTURE_Shown>
representative component

> <STRUCTURE_Formula>
C8H19O3PS2

> <STRUCTURE_MW>
258.3384

> <STRUCTURE_ChemType>
defined organic

> <STRUCTURE_DefinedOrganicForm>
parent

> <STRUCTURE_IUPAC>
O,O-diethyl S-[2-(ethylsulfanyl)ethyl] phosphorothioate

> <STRUCTURE_SMILES>
CCOP(=O)(OCC)SCCSCC

> <STRUCTURE_SMILES_Desalt>
CCOP(=O)(OCC)SCCSCC

> <Substance_modify_yyyymmdd>
20080429

$$$$
