8067-24-1
ChemmineR-0915142007XD

 49 54  0  0  1  0  0  0  0  0  1 V2000
   10.2846   -3.3031    0.0000 N   0  0  0  0  0  0  0  0  0  0  0  0
   10.2846   -2.0644    0.0000 C   0  0  0  0  0  0  0  0  0  0  0  0
    8.1263   -2.0644    0.0000 C   0  0  0  0  0  0  0  0  0  0  0  0
    8.1263   -3.3031    0.0000 C   0  0  0  0  0  0  0  0  0  0  0  0
    9.2336   -1.4263    0.0000 O   0  0  0  0  0  0  0  0  0  0  0  0
   12.5179   -3.3218    0.0000 C   0  0  0  0  0  0  0  0  0  0  0  0
   12.5179   -2.0644    0.0000 N   0  0  0  0  0  0  0  0  0  0  0  0
   11.4106   -3.9412    0.0000 C   0  0  0  0  0  0  0  0  0  0  0  0
    6.1182   -1.2387    0.0000 N   0  0  0  0  0  0  0  0  0  0  0  0
    3.4532   -4.8795    0.0000 C   0  0  0  0  0  0  0  0  0  0  0  0
    3.4532   -7.4695    0.0000 C   0  0  0  0  0  0  0  0  0  0  0  0
   11.4294   -1.4263    0.0000 C   0  0  0  0  0  0  0  0  0  0  0  0
    4.5980   -5.5364    0.0000 C   0  0  0  0  0  0  0  0  0  0  0  0
    2.3084   -5.5364    0.0000 C   0  0  0  0  0  0  0  0  0  0  0  0
    5.7616   -4.8232    0.0000 N   0  0  0  0  0  0  0  0  0  0  0  0
    4.5980   -2.7964    0.0000 C   0  0  0  0  0  0  0  0  0  0  0  0
    4.5980   -1.9143    0.0000 C   0  0  0  0  0  0  0  0  0  0  0  0
    2.3084   -6.7938    0.0000 C   0  0  0  0  0  0  0  0  0  0  0  0
    4.5980   -6.7938    0.0000 C   0  0  0  0  0  0  0  0  0  0  0  0
    3.4532   -3.4720    0.0000 C   0  0  0  0  0  0  0  0  0  0  0  0
    3.1529   -8.8395    0.0000 C   0  0  0  0  0  0  0  0  0  0  0  0
    1.4639   -8.8395    0.0000 N   0  0  0  0  0  0  0  0  0  0  0  0
    5.7616   -3.4720    0.0000 C   0  0  0  0  0  0  0  0  0  0  0  0
    1.1824   -7.4695    0.0000 C   0  0  0  0  0  0  0  0  0  0  0  0
    7.0190   -4.1101    0.0000 O   0  0  0  0  0  0  0  0  0  0  0  0
   13.5314   -3.7723    0.0000 O   0  0  0  0  0  0  0  0  0  0  0  0
   10.2846   -1.0885    0.0000 O   0  0  0  0  0  0  0  0  0  0  0  0
    8.1076   -0.7132    0.0000 C   0  0  0  0  0  0  0  0  0  0  0  0
    3.8849   -1.4639    0.0000 O   0  0  0  0  0  0  0  0  0  0  0  0
   11.3731   -5.0297    0.0000 C   0  0  0  0  0  0  0  0  0  0  0  0
   13.5501   -1.4639    0.0000 C   0  0  0  0  0  0  0  0  0  0  0  0
    1.1448   -4.8795    0.0000 C   0  0  0  0  0  0  0  0  0  0  0  0
    7.1504   -5.4613    0.0000 C   0  0  0  0  0  0  0  0  0  0  0  0
   11.4294   -0.2440    0.0000 C   0  0  0  0  0  0  0  0  0  0  0  0
   13.5501   -0.2627    0.0000 C   0  0  0  0  0  0  0  0  0  0  0  0
    0.0000   -5.4989    0.0000 C   0  0  0  0  0  0  0  0  0  0  0  0
    0.0000   -6.7938    0.0000 C   0  0  0  0  0  0  0  0  0  0  0  0
    7.0003    0.0000    0.0000 C   0  0  0  0  0  0  0  0  0  0  0  0
    9.2711   -0.0563    0.0000 C   0  0  0  0  0  0  0  0  0  0  0  0
   12.4991   -5.7241    0.0000 C   0  0  0  0  0  0  0  0  0  0  0  0
   10.1907   -5.6490    0.0000 C   0  0  0  0  0  0  0  0  0  0  0  0
    2.2521   -4.1664    0.0000 H   0  0  0  0  0  0  0  0  0  0  0  0
    5.8930   -6.2496    0.0000 H   0  0  0  0  0  0  0  0  0  0  0  0
   11.4106   -2.5899    0.0000 H   0  0  0  0  0  0  0  0  0  0  0  0
   18.7675   -1.3888    0.0000 C   0  0  0  0  0  0  0  0  0  0  0  0
   17.6414   -1.3888    0.0000 S   0  0  0  0  0  0  0  0  0  0  0  0
   17.6414   -0.1689    0.0000 O   0  0  0  0  0  0  0  0  0  0  0  0
   16.5529   -1.3888    0.0000 O   0  0  0  0  0  0  0  0  0  0  0  0
   17.6414   -2.4961    0.0000 O   0  0  0  0  0  0  0  0  0  0  0  0
  1  2  1  0  0  0  0
  1  4  1  0  0  0  0
  1  8  1  0  0  0  0
  2  5  1  0  0  0  0
  2 12  1  0  0  0  0
  2 27  1  6  0  0  0
  3  4  1  0  0  0  0
  3  9  1  6  0  0  0
  3 28  1  1  0  0  0
  3  5  1  0  0  0  0
  4 25  2  0  0  0  0
  6  8  1  0  0  0  0
  6  7  1  0  0  0  0
  6 26  2  0  0  0  0
  7 31  1  0  0  0  0
  7 12  1  0  0  0  0
  8 30  1  6  0  0  0
  9 17  1  0  0  0  0
 10 20  1  0  0  0  0
 10 14  1  0  0  0  0
 10 42  1  6  0  0  0
 10 13  1  0  0  0  0
 11 19  1  0  0  0  0
 11 21  2  0  0  0  0
 11 18  1  0  0  0  0
 12 34  1  0  0  0  0
 12 44  1  1  0  0  0
 13 15  1  0  0  0  0
 13 19  1  0  0  0  0
 13 43  1  1  0  0  0
 14 18  2  0  0  0  0
 14 32  1  0  0  0  0
 15 23  1  0  0  0  0
 15 33  1  0  0  0  0
 16 17  1  1  0  0  0
 16 20  1  0  0  0  0
 16 23  1  0  0  0  0
 17 29  2  0  0  0  0
 18 24  1  0  0  0  0
 21 22  1  0  0  0  0
 22 24  1  0  0  0  0
 24 37  2  0  0  0  0
 28 38  1  0  0  0  0
 28 39  1  0  0  0  0
 30 40  1  0  0  0  0
 30 41  1  0  0  0  0
 31 35  1  0  0  0  0
 32 36  2  0  0  0  0
 34 35  1  0  0  0  0
 36 37  1  0  0  0  0
 45 46  1  0  0  0  0
 46 47  2  0  0  0  0
 46 48  1  0  0  0  0
 46 49  2  0  0  0  0
M  END
> <ID>
6330

> <Formula>
C32H45N5O8S

> <FW>
659.7934 (563.6877+96.1057)

> <DSSTox_CID>
11428

> <DSSTox_RID>
78874

> <DSSTox_GSID>
31428

> <DSSTox_FileID_Sort>
3556

> <TS_ChemName>
Hydergine

> <TS_ChemName_Synonyms>


> <TS_CASRN>
8067-24-1

> <CASRN_ChemName_Relationship>
primary

> <TS_Description>
mixture or formulation

> <ChemNote>
mixture of 3 hydrogenated alkaloids; dihydroergocornine [25447-65-8]; dihydroergocristine [17479-19-5]; and dihydroergocryptine [25447-66-9] in approximately equal amounts with methanesulfonate; structure shown dihydroergocornine; stereochem

> <STRUCTURE_Shown>
representative component

> <STRUCTURE_Formula>
C32H45N5O8S

> <STRUCTURE_MW>
659.7934

> <STRUCTURE_ChemType>
defined organic

> <STRUCTURE_DefinedOrganicForm>
complex

> <STRUCTURE_IUPAC>
(5'alpha,10alpha)-12'-hydroxy-3',6',18-trioxo-2',5'-di(propan-2-yl)-9,10-dihydroergotaman methanesulfonate (1:1)

> <STRUCTURE_SMILES>
CS(=O)(=O)O.CN1C[C@@H](C[C@@H]2c3cccc4ncc(C[C@@H]12)c34)C(=O)N[C@@]7(O[C@]6(O)N([C@H](C(=O)N5CCC[C@H]56)C(C)C)C7=O)C(C)C

> <STRUCTURE_SMILES_Desalt>
CN1C[C@@H](C[C@@H]2c3cccc4ncc(C[C@@H]12)c34)C(=O)N[C@@]7(O[C@]6(O)N([C@H](C(=O)N5CCC[C@H]56)C(C)C)C7=O)C(C)C

> <Substance_modify_yyyymmdd>
20080429

$$$$
