8068-28-8
ChemmineR-0915142007XD

112107  0  0  1  0  0  0  0  0  3 V2000
    0.0000   -4.6248    0.0000 C    0  0  0  0  0  0  0  0  0  0  0  0
    1.1447   -3.9608    0.0000 C    0  0  0  0  0  0  0  0  0  0  0  0
    2.2666   -4.6248    0.0000 N    0  0  0  0  0  0  0  0  0  0  0  0
    1.1447   -2.6329    0.0000 O    0  0  0  0  0  0  0  0  0  0  0  0
    3.4342   -3.9837    0.0000 C    0  0  0  0  0  0  0  0  0  0  0  0
    4.5790   -4.6477    0.0000 C    0  0  0  0  0  0  0  0  0  0  0  0
    5.7237   -3.9837    0.0000 N    0  0  0  0  0  0  0  0  0  0  0  0
    4.5561   -5.9756    0.0000 O    0  0  0  0  0  0  0  0  0  0  0  0
    3.4342   -2.6558    0.0000 C    0  0  0  0  0  0  0  0  0  0  0  0
    2.2895   -1.9919    0.0000 C    0  0  0  0  0  0  0  0  0  0  0  0
    2.2895   -0.6640    0.0000 N    0  0  0  0  0  0  0  0  0  0  0  0
    6.8685   -4.6477    0.0000 C    0  0  0  0  0  0  0  0  0  0  0  0
    8.0132   -3.9837    0.0000 C    0  0  0  0  0  0  0  0  0  0  0  0
    9.1580   -4.6248    0.0000 N    0  0  0  0  0  0  0  0  0  0  0  0
    7.9903   -2.6558    0.0000 O    0  0  0  0  0  0  0  0  0  0  0  0
    6.8685   -5.9756    0.0000 C    0  0  0  0  0  0  0  0  0  0  0  0
    5.7237   -6.6395    0.0000 C    0  0  0  0  0  0  0  0  0  0  0  0
    8.0132   -6.6395    0.0000 O    0  0  0  0  0  0  0  0  0  0  0  0
   10.3256   -3.9837    0.0000 C    0  0  0  0  0  0  0  0  0  0  0  0
   11.4475   -4.6477    0.0000 C    0  0  0  0  0  0  0  0  0  0  0  0
   12.6151   -3.9837    0.0000 N    0  0  0  0  0  0  0  0  0  0  0  0
   11.4475   -5.9756    0.0000 O    0  0  0  0  0  0  0  0  0  0  0  0
   10.3256   -2.6558    0.0000 C    0  0  0  0  0  0  0  0  0  0  0  0
    9.1809   -1.9919    0.0000 C    0  0  0  0  0  0  0  0  0  0  0  0
    9.1809   -0.6640    0.0000 N    0  0  0  0  0  0  0  0  0  0  0  0
   13.7599   -4.6477    0.0000 C    0  0  0  0  0  0  0  0  0  0  0  0
   14.8817   -3.9837    0.0000 C    0  0  0  0  0  0  0  0  0  0  0  0
   16.0494   -4.6248    0.0000 N    0  0  0  0  0  0  0  0  0  0  0  0
   14.8817   -2.6558    0.0000 O    0  0  0  0  0  0  0  0  0  0  0  0
   13.7599   -5.9756    0.0000 C    0  0  0  0  0  0  0  0  0  0  0  0
   17.1941   -3.9837    0.0000 C    0  0  0  0  0  0  0  0  0  0  0  0
   18.3389   -4.6477    0.0000 C    0  0  0  0  0  0  0  0  0  0  0  0
   18.3160   -5.9756    0.0000 N    0  0  0  0  0  0  0  0  0  0  0  0
   19.4836   -3.9837    0.0000 O    0  0  0  0  0  0  0  0  0  0  0  0
   17.1941   -2.6558    0.0000 C    0  0  0  0  0  0  0  0  0  0  0  0
   16.0494   -1.9919    0.0000 C    0  0  0  0  0  0  0  0  0  0  0  0
   16.0494   -0.6640    0.0000 N    0  0  0  0  0  0  0  0  0  0  0  0
   19.5065   -6.6624    0.0000 C    0  0  0  0  0  0  0  0  0  0  0  0
   19.5065   -8.0590    0.0000 C    0  0  0  0  0  0  0  0  0  0  0  0
   18.2473   -8.6085    0.0000 N    0  0  0  0  0  0  0  0  0  0  0  0
   20.6284   -8.7459    0.0000 O    0  0  0  0  0  0  0  0  0  0  0  0
   20.6513   -6.0214    0.0000 C    0  0  0  0  0  0  0  0  0  0  0  0
   21.7273   -6.7082    0.0000 C    0  0  0  0  0  0  0  0  0  0  0  0
   18.2015   -9.9364    0.0000 C    0  0  0  0  0  0  0  0  0  0  0  0
   17.0110  -10.5317    0.0000 C    0  0  0  0  0  0  0  0  0  0  0  0
   16.9652  -11.8596    0.0000 N    0  0  0  0  0  0  0  0  0  0  0  0
   15.9120   -9.8448    0.0000 O    0  0  0  0  0  0  0  0  0  0  0  0
   19.3234  -10.6233    0.0000 C    0  0  0  0  0  0  0  0  0  0  0  0
   19.3234  -11.8367    0.0000 C    0  0  0  0  0  0  0  0  0  0  0  0
   15.7975  -12.5007    0.0000 C    0  0  0  0  0  0  0  0  0  0  0  0
   14.6757  -11.8138    0.0000 C    0  0  0  0  0  0  0  0  0  0  0  0
   13.5080  -12.4320    0.0000 N    0  0  0  0  0  0  0  0  0  0  0  0
   14.7215  -10.4859    0.0000 O    0  0  0  0  0  0  0  0  0  0  0  0
   15.7746  -13.8057    0.0000 C    0  0  0  0  0  0  0  0  0  0  0  0
   16.9194  -14.4925    0.0000 C    0  0  0  0  0  0  0  0  0  0  0  0
   16.8965  -15.8204    0.0000 N    0  0  0  0  0  0  0  0  0  0  0  0
   12.3633  -11.7680    0.0000 C    0  0  0  0  0  0  0  0  0  0  0  0
   12.3862  -10.4401    0.0000 C    0  0  0  0  0  0  0  0  0  0  0  0
   11.2414   -9.7762    0.0000 N    0  0  0  0  0  0  0  0  0  0  0  0
   13.5309   -9.7990    0.0000 O    0  0  0  0  0  0  0  0  0  0  0  0
   11.2185  -12.4091    0.0000 C    0  0  0  0  0  0  0  0  0  0  0  0
   11.2185  -13.7370    0.0000 C    0  0  0  0  0  0  0  0  0  0  0  0
   10.0738  -14.4009    0.0000 N    0  0  0  0  0  0  0  0  0  0  0  0
   11.2414   -8.4482    0.0000 C    0  0  0  0  0  0  0  0  0  0  0  0
   12.3633   -7.7843    0.0000 C    0  0  0  0  0  0  0  0  0  0  0  0
   12.3633   -6.4564    0.0000 O    0  0  0  0  0  0  0  0  0  0  0  0
   13.5080   -8.4254    0.0000 N    0  0  0  0  0  0  0  0  0  0  0  0
   10.0738   -7.8072    0.0000 C    0  0  0  0  0  0  0  0  0  0  0  0
    8.9519   -8.4940    0.0000 C    0  0  0  0  0  0  0  0  0  0  0  0
   10.0509   -6.4793    0.0000 O    0  0  0  0  0  0  0  0  0  0  0  0
   14.9046   -6.6395    0.0000 C    0  0  0  0  0  0  0  0  0  0  0  0
    3.4342   -0.0229    0.0000 C    0  0  0  0  0  0  0  0  0  0  0  0
    4.5790   -0.6640    0.0000 S    0  0  0  0  0  0  0  0  0  0  0  0
    5.7237    0.0000    0.0000 O    0  5  0  0  0  0  0  0  0  0  0  0
    3.9150   -1.8087    0.0000 O    0  0  0  0  0  0  0  0  0  0  0  0
    5.2201   -1.8087    0.0000 O    0  0  0  0  0  0  0  0  0  0  0  0
   10.3256   -0.0229    0.0000 C    0  0  0  0  0  0  0  0  0  0  0  0
   11.4704   -0.6640    0.0000 S    0  0  0  0  0  0  0  0  0  0  0  0
   12.5922    0.0000    0.0000 O    0  5  0  0  0  0  0  0  0  0  0  0
   10.8064   -1.8087    0.0000 O    0  0  0  0  0  0  0  0  0  0  0  0
   12.1114   -1.8087    0.0000 O    0  0  0  0  0  0  0  0  0  0  0  0
   17.1941   -0.0229    0.0000 C    0  0  0  0  0  0  0  0  0  0  0  0
   18.3389   -0.6640    0.0000 S    0  0  0  0  0  0  0  0  0  0  0  0
   19.4607    0.0000    0.0000 O    0  5  0  0  0  0  0  0  0  0  0  0
   17.6978   -1.8087    0.0000 O    0  0  0  0  0  0  0  0  0  0  0  0
   19.0028   -1.8087    0.0000 O    0  0  0  0  0  0  0  0  0  0  0  0
   18.0183  -16.4844    0.0000 C    0  0  0  0  0  0  0  0  0  0  0  0
   19.1631  -15.8433    0.0000 S    0  0  0  0  0  0  0  0  0  0  0  0
   20.3078  -16.5073    0.0000 O    0  5  0  0  0  0  0  0  0  0  0  0
   18.5220  -14.6986    0.0000 O    0  0  0  0  0  0  0  0  0  0  0  0
   19.8270  -14.6986    0.0000 O    0  0  0  0  0  0  0  0  0  0  0  0
    8.9519  -13.7370    0.0000 C    0  0  0  0  0  0  0  0  0  0  0  0
    7.8072  -14.4009    0.0000 S    0  0  0  0  0  0  0  0  0  0  0  0
    6.6624  -13.7141    0.0000 O    0  5  0  0  0  0  0  0  0  0  0  0
    8.4482  -15.5457    0.0000 O    0  0  0  0  0  0  0  0  0  0  0  0
    7.1432  -15.5457    0.0000 O    0  0  0  0  0  0  0  0  0  0  0  0
    0.0000   -5.9298    0.0000 C    0  0  0  0  0  0  0  0  0  0  0  0
    1.1219   -6.5938    0.0000 C    0  0  0  0  0  0  0  0  0  0  0  0
    1.1219   -7.8988    0.0000 C    0  0  0  0  0  0  0  0  0  0  0  0
    2.2666   -8.5856    0.0000 C    0  0  0  0  0  0  0  0  0  0  0  0
    2.2666   -9.8906    0.0000 C    0  0  0  0  0  0  0  0  0  0  0  0
    3.4342   -7.8988    0.0000 C    0  0  0  0  0  0  0  0  0  0  0  0
    3.4342  -10.5546    0.0000 C    0  0  0  0  0  0  0  0  0  0  0  0
   21.7273   -8.0132    0.0000 C    0  0  0  0  0  0  0  0  0  0  0  0
   22.8950   -6.0672    0.0000 C    0  0  0  0  0  0  0  0  0  0  0  0
   18.1557  -12.4549    0.0000 C    0  0  0  0  0  0  0  0  0  0  0  0
   20.4681  -12.5236    0.0000 C    0  0  0  0  0  0  0  0  0  0  0  0
    6.7769   -1.0303    0.0000 Na   0  3  0  0  0  0  0  0  0  0  0  0
   13.7599   -1.0990    0.0000 Na   0  3  0  0  0  0  0  0  0  0  0  0
   20.4910   -1.0074    0.0000 Na   0  3  0  0  0  0  0  0  0  0  0  0
    6.6853  -11.6764    0.0000 Na   0  3  0  0  0  0  0  0  0  0  0  0
   21.1092  -14.6528    0.0000 Na   0  3  0  0  0  0  0  0  0  0  0  0
  1  2  1  0  0  0  0
  1 97  1  0  0  0  0
  2  3  1  0  0  0  0
  2  4  2  0  0  0  0
  5  3  1  1  0  0  0
  5  6  1  0  0  0  0
  5  9  1  0  0  0  0
  6  7  1  0  0  0  0
  6  8  2  0  0  0  0
 12  7  1  6  0  0  0
  9 10  1  0  0  0  0
 10 11  1  0  0  0  0
 11 72  1  0  0  0  0
 12 13  1  0  0  0  0
 12 16  1  0  0  0  0
 13 14  1  0  0  0  0
 13 15  2  0  0  0  0
 19 14  1  1  0  0  0
 16 17  1  0  0  0  0
 16 18  1  6  0  0  0
 19 20  1  0  0  0  0
 19 23  1  0  0  0  0
 20 21  1  0  0  0  0
 20 22  2  0  0  0  0
 26 21  1  6  0  0  0
 23 24  1  0  0  0  0
 24 25  1  0  0  0  0
 25 77  1  0  0  0  0
 26 27  1  0  0  0  0
 26 30  1  0  0  0  0
 27 28  1  0  0  0  0
 27 29  2  0  0  0  0
 31 28  1  1  0  0  0
 30 71  1  0  0  0  0
 31 32  1  0  0  0  0
 31 35  1  0  0  0  0
 32 33  1  0  0  0  0
 32 34  2  0  0  0  0
 38 33  1  6  0  0  0
 35 36  1  0  0  0  0
 36 37  1  0  0  0  0
 37 82  1  0  0  0  0
 38 39  1  0  0  0  0
 38 42  1  0  0  0  0
 39 40  1  0  0  0  0
 39 41  2  0  0  0  0
 44 40  1  1  0  0  0
 42 43  1  0  0  0  0
 43104  1  0  0  0  0
 43105  1  0  0  0  0
 44 45  1  0  0  0  0
 44 48  1  0  0  0  0
 45 46  1  0  0  0  0
 45 47  2  0  0  0  0
 50 46  1  1  0  0  0
 48 49  1  0  0  0  0
 49106  1  0  0  0  0
 49107  1  0  0  0  0
 50 51  1  0  0  0  0
 50 54  1  0  0  0  0
 51 52  1  0  0  0  0
 51 53  2  0  0  0  0
 57 52  1  1  0  0  0
 54 55  1  0  0  0  0
 55 56  1  0  0  0  0
 56 87  1  0  0  0  0
 57 58  1  0  0  0  0
 57 61  1  0  0  0  0
 58 59  1  0  0  0  0
 58 60  2  0  0  0  0
 64 59  1  1  0  0  0
 61 62  1  0  0  0  0
 62 63  1  0  0  0  0
 63 92  1  0  0  0  0
 64 65  1  0  0  0  0
 64 68  1  0  0  0  0
 65 66  2  0  0  0  0
 65 67  1  0  0  0  0
 67 71  1  0  0  0  0
 68 69  1  0  0  0  0
 68 70  1  1  0  0  0
 72 73  1  0  0  0  0
 73 74  1  0  0  0  0
 73 75  2  0  0  0  0
 73 76  2  0  0  0  0
 77 78  1  0  0  0  0
 78 79  1  0  0  0  0
 78 80  2  0  0  0  0
 78 81  2  0  0  0  0
 82 83  1  0  0  0  0
 83 84  1  0  0  0  0
 83 85  2  0  0  0  0
 83 86  2  0  0  0  0
 87 88  1  0  0  0  0
 88 89  1  0  0  0  0
 88 90  2  0  0  0  0
 88 91  2  0  0  0  0
 92 93  1  0  0  0  0
 93 94  1  0  0  0  0
 93 95  2  0  0  0  0
 93 96  2  0  0  0  0
 97 98  1  0  0  0  0
 98 99  1  0  0  0  0
 99100  1  0  0  0  0
100101  1  0  0  0  0
100102  1  6  0  0  0
101103  1  0  0  0  0
M  END
> <ID>
11222

> <Formula>
C58H105N16Na5O28S5

> <FW>
1749.8185 (1634.8724+22.9892+22.9892+22.9892+22.9892+22.9892)

> <DSSTox_CID>
25822

> <DSSTox_RID>
81154

> <DSSTox_GSID>
45822

> <DSSTox_FileID_Sort>
5835

> <TS_ChemName>
Colistimethate sodium

> <TS_ChemName_Synonyms>


> <TS_CASRN>
8068-28-8

> <CASRN_ChemName_Relationship>
primary

> <TS_Description>
mixture or formulation

> <ChemNote>
generic name for a pharmaceutical preparation that is a sulfomethyl derivative of colistin in which four sulfomethyl groups are attached to four of the five free side chain amino groups. Since colistin is a mixture of at least three components (A,B and C)

> <STRUCTURE_Shown>
representative component

> <STRUCTURE_Formula>
C58H105N16Na5O28S5

> <STRUCTURE_MW>
1749.8185

> <STRUCTURE_ChemType>
defined organic

> <STRUCTURE_DefinedOrganicForm>
salt

> <STRUCTURE_IUPAC>
pentasodium {[(3S)-4-{[(3S,6S,9S,12S,15R,18S,21S)-3-[(1R)-1-hydroxyethyl]-12,15-bis(2-methylpropyl)-2,5,8,11,14,17,20-heptaoxo-6,9,18-tris{2-[(sulfonatomethyl)amino]ethyl}-1,4,7,10,13,16,19-heptaazacyclotricosan-21-yl]amino}-3-{[(2S,3R)-3-hydroxy-2-({(2S)

> <STRUCTURE_SMILES>
[Na+].[Na+].[Na+].[Na+].[Na+].O=S([O-])(=O)CNCC[C@H](NC(=O)CCCC[C@H](C)CC)C(=O)N[C@@H]([C@@H](C)O)C(=O)N[C@@H](CCNCS([O-])(=O)=O)C(=O)N[C@H]1CCNC(=O)[C@@H](NC(=O)[C@H](CCNCS([O-])(=O)=O)NC(=O)[C@H](CCNCS([O-])(=O)=O)NC(=O)[C@H](CC(C)C)NC(=O)[C@@H](CC(C)C)

> <STRUCTURE_SMILES_Desalt>
OS(=O)(=O)CNCC[C@H](NC(=O)CCCC[C@H](C)CC)C(=O)N[C@@H]([C@@H](C)O)C(=O)N[C@@H](CCNCS(=O)(=O)O)C(=O)N[C@H]1CCNC(=O)[C@@H](NC(=O)[C@H](CCNCS(=O)(=O)O)NC(=O)[C@H](CCNCS(=O)(=O)O)NC(=O)[C@H](CC(C)C)NC(=O)[C@@H](CC(C)C)NC(=O)[C@@H](NC1=O)CCNCS(=O)(=O)O)[C@@H](C

> <Substance_modify_yyyymmdd>
20110909

$$$$
