80734-02-7
ChemmineR-0915142007XD

 35 37  0  0  1  0  0  0  0  0  1 V2000
    8.4910   -3.6638    0.0000 N    0  0  0  0  0  0  0  0  0  0  0  0
    8.4910   -2.2747    0.0000 C    0  0  0  0  0  0  0  0  0  0  0  0
    6.9456   -3.6638    0.0000 C    0  0  0  0  0  0  0  0  0  0  0  0
    6.9456   -2.2747    0.0000 C    0  0  0  0  0  0  0  0  0  0  0  0
    9.8974   -4.1326    0.0000 C    0  0  0  0  0  0  0  0  0  0  0  0
    9.9495   -1.7364    0.0000 S    0  0  0  0  0  0  0  0  0  0  0  0
   10.7656   -2.9345    0.0000 C    0  0  0  0  0  0  0  0  0  0  0  0
    5.0876   -2.3962    0.0000 N    0  0  0  0  0  0  0  0  0  0  0  0
   14.0995   -5.2613    0.0000 C    0  0  0  0  0  0  0  0  0  0  0  0
   16.2874   -5.1918    0.0000 C    0  0  0  0  0  0  0  0  0  0  0  0
    4.0111   -1.7885    0.0000 C    0  0  0  0  0  0  0  0  0  0  0  0
   15.2282   -4.3931    0.0000 O    0  0  0  0  0  0  0  0  0  0  0  0
   15.9053   -6.3899    0.0000 O    0  0  0  0  0  0  0  0  0  0  0  0
   14.5683   -6.3899    0.0000 C    0  0  0  0  0  0  0  0  0  0  0  0
   10.3489   -5.5391    0.0000 C    0  0  0  0  0  0  0  0  0  0  0  0
    3.0040   -2.3268    0.0000 C    0  0  0  0  0  0  0  0  0  0  0  0
    6.1468   -4.6014    0.0000 O    0  0  0  0  0  0  0  0  0  0  0  0
   11.8248   -5.8690    0.0000 O    0  0  0  0  0  0  0  0  0  0  0  0
   12.8319   -4.8619    0.0000 C    0  0  0  0  0  0  0  0  0  0  0  0
   17.3639   -4.7230    0.0000 O    0  0  0  0  0  0  0  0  0  0  0  0
    4.0111   -0.5904    0.0000 O    0  0  0  0  0  0  0  0  0  0  0  0
    9.3592   -6.6677    0.0000 O    0  0  0  0  0  0  0  0  0  0  0  0
    2.0142   -1.7885    0.0000 C    0  0  0  0  0  0  0  0  0  0  0  0
    3.0040   -3.5249    0.0000 N    0  0  0  0  0  0  0  0  0  0  0  0
   11.6859   -4.0632    0.0000 C    0  0  0  0  0  0  0  0  0  0  0  0
   11.6338   -1.7364    0.0000 C    0  0  0  0  0  0  0  0  0  0  0  0
   14.1690   -7.4665    0.0000 C    0  0  0  0  0  0  0  0  0  0  0  0
    1.0071   -2.3268    0.0000 C    0  0  0  0  0  0  0  0  0  0  0  0
    2.0142   -0.5904    0.0000 C    0  0  0  0  0  0  0  0  0  0  0  0
    1.0071    0.0000    0.0000 C    0  0  0  0  0  0  0  0  0  0  0  0
    0.0000   -1.7885    0.0000 C    0  0  0  0  0  0  0  0  0  0  0  0
    0.0000   -0.5904    0.0000 C    0  0  0  0  0  0  0  0  0  0  0  0
    7.0324   -1.1287    0.0000 H    0  0  0  0  0  0  0  0  0  0  0  0
    8.4910   -1.1287    0.0000 H    0  0  0  0  0  0  0  0  0  0  0  0
    5.6259   -6.3378    0.0000 Cl   0  0  0  0  0  0  0  0  0  0  0  0
  1  2  1  0  0  0  0
  1  3  1  0  0  0  0
  1  5  1  0  0  0  0
  2  6  1  0  0  0  0
  2 34  1  6  0  0  0
  2  4  1  0  0  0  0
  3  4  1  0  0  0  0
  3 17  2  0  0  0  0
  4  8  1  1  0  0  0
  4 33  1  6  0  0  0
  5  7  1  0  0  0  0
  5 15  1  6  0  0  0
  6  7  1  0  0  0  0
  7 25  1  0  0  0  0
  7 26  1  0  0  0  0
  8 11  1  0  0  0  0
  9 19  1  0  0  0  0
  9 12  1  0  0  0  0
  9 14  2  0  0  0  0
 10 12  1  0  0  0  0
 10 20  2  0  0  0  0
 10 13  1  0  0  0  0
 11 16  1  0  0  0  0
 11 21  2  0  0  0  0
 13 14  1  0  0  0  0
 14 27  1  0  0  0  0
 15 18  1  0  0  0  0
 15 22  2  0  0  0  0
 16 23  1  0  0  0  0
 16 24  1  6  0  0  0
 18 19  1  0  0  0  0
 23 28  1  0  0  0  0
 23 29  2  0  0  0  0
 28 31  2  0  0  0  0
 29 30  1  0  0  0  0
 30 32  2  0  0  0  0
 31 32  1  0  0  0  0
M  END
> <ID>
16233

> <Formula>
C21H24ClN3O7S

> <FW>
497.9492 (461.4882+36.4609)

> <DSSTox_CID>
31624

> <DSSTox_RID>
97508

> <DSSTox_GSID>
57835

> <DSSTox_FileID_Sort>
8575

> <TS_ChemName>
Lenampicillin hydrochloride

> <TS_ChemName_Synonyms>


> <TS_CASRN>
80734-02-7

> <CASRN_ChemName_Relationship>
primary

> <TS_Description>
single chemical compound

> <ChemNote>


> <STRUCTURE_Shown>
tested chemical

> <STRUCTURE_Formula>
C21H24ClN3O7S

> <STRUCTURE_MW>
497.9492

> <STRUCTURE_ChemType>
defined organic

> <STRUCTURE_DefinedOrganicForm>
complex

> <STRUCTURE_IUPAC>
(5-methyl-2-oxo-1,3-dioxol-4-yl)methyl (2S,5R,6R)-6-{[(2R)-2-amino-2-phenylacetyl]amino}-3,3-dimethyl-7-oxo-4-thia-1-azabicyclo[3.2.0]heptane-2-carboxylate hydrochloride (1:1)

> <STRUCTURE_SMILES>
Cl.N[C@H](c1ccccc1)C(=O)N[C@@H]4C(=O)N3[C@@H](C(=O)OCC=2OC(=O)OC=2C)C(C)(C)S[C@@H]34

> <STRUCTURE_SMILES_Desalt>
N[C@H](c1ccccc1)C(=O)N[C@@H]4C(=O)N3[C@@H](C(=O)OCC=2OC(=O)OC=2C)C(C)(C)S[C@@H]34

> <Substance_modify_yyyymmdd>
20131121

$$$$
