808-48-0
ChemmineR-0915142007XD

 33 36  0  0  1  0  0  0  0  0  1 V2000
    6.9048   -3.7297    0.0000 C   0  0  0  0  0  0  0  0  0  0  0  0
    3.4663   -5.6985    0.0000 C   0  0  0  0  0  0  0  0  0  0  0  0
    3.4663   -7.0296    0.0000 C   0  0  0  0  0  0  0  0  0  0  0  0
    6.9048   -5.0192    0.0000 C   0  0  0  0  0  0  0  0  0  0  0  0
    4.5893   -5.0192    0.0000 C   0  0  0  0  0  0  0  0  0  0  0  0
    5.7679   -5.6985    0.0000 C   0  0  0  0  0  0  0  0  0  0  0  0
    8.1804   -3.3138    0.0000 C   0  0  0  0  0  0  0  0  0  0  0  0
    2.3155   -7.6674    0.0000 C   0  0  0  0  0  0  0  0  0  0  0  0
    5.7263   -3.0642    0.0000 C   0  0  0  0  0  0  0  0  0  0  0  0
    4.5893   -3.7297    0.0000 C   0  0  0  0  0  0  0  0  0  0  0  0
    8.1804   -5.4212    0.0000 C   0  0  0  0  0  0  0  0  0  0  0  0
    2.3155   -5.0192    0.0000 C   0  0  0  0  0  0  0  0  0  0  0  0
    8.9430   -4.3536    0.0000 C   0  0  0  0  0  0  0  0  0  0  0  0
    5.7679   -7.0296    0.0000 C   0  0  0  0  0  0  0  0  0  0  0  0
    8.1527   -1.9272    0.0000 C   0  0  0  0  0  0  0  0  0  0  0  0
    4.5893   -7.6674    0.0000 C   0  0  0  0  0  0  0  0  0  0  0  0
    1.1369   -7.0296    0.0000 C   0  0  0  0  0  0  0  0  0  0  0  0
    9.3173   -1.2756    0.0000 C   0  0  0  0  0  0  0  0  0  0  0  0
   10.4681   -1.9688    0.0000 O   0  0  0  0  0  0  0  0  0  0  0  0
    6.9741   -1.3033    0.0000 O   0  0  0  0  0  0  0  0  0  0  0  0
    0.0000   -7.7367    0.0000 O   0  0  0  0  0  0  0  0  0  0  0  0
    1.1369   -5.6985    0.0000 C   0  0  0  0  0  0  0  0  0  0  0  0
    6.9464   -2.3709    0.0000 C   0  0  0  0  0  0  0  0  0  0  0  0
    3.4663   -4.3814    0.0000 C   0  0  0  0  0  0  0  0  0  0  0  0
    5.7679   -4.3814    0.0000 H   0  0  0  0  0  0  0  0  0  0  0  0
    6.9048   -6.3779    0.0000 H   0  0  0  0  0  0  0  0  0  0  0  0
    4.5893   -6.3779    0.0000 H   0  0  0  0  0  0  0  0  0  0  0  0
   11.6051   -1.3033    0.0000 C   0  0  0  0  0  0  0  0  0  0  0  0
   12.7281   -1.9688    0.0000 C   0  0  0  0  0  0  0  0  0  0  0  0
   11.6051    0.0000    0.0000 O   0  0  0  0  0  0  0  0  0  0  0  0
   13.3798   -0.8180    0.0000 C   0  0  0  0  0  0  0  0  0  0  0  0
   12.0488   -3.1474    0.0000 C   0  0  0  0  0  0  0  0  0  0  0  0
   13.8651   -2.6344    0.0000 C   0  0  0  0  0  0  0  0  0  0  0  0
  1  4  1  0  0  0  0
  1  7  1  0  0  0  0
  1  9  1  0  0  0  0
  1 23  1  1  0  0  0
  2  5  1  0  0  0  0
  2  3  1  0  0  0  0
  2 12  1  0  0  0  0
  2 24  1  1  0  0  0
  3  8  2  0  0  0  0
  3 16  1  0  0  0  0
  4  6  1  0  0  0  0
  4 11  1  0  0  0  0
  4 26  1  6  0  0  0
  5 10  1  0  0  0  0
  5  6  1  0  0  0  0
  5 27  1  6  0  0  0
  6 14  1  0  0  0  0
  6 25  1  1  0  0  0
  7 13  1  0  0  0  0
  7 15  1  1  0  0  0
  8 17  1  0  0  0  0
  9 10  1  0  0  0  0
 11 13  1  0  0  0  0
 12 22  1  0  0  0  0
 14 16  1  0  0  0  0
 15 18  1  0  0  0  0
 15 20  2  0  0  0  0
 17 22  1  0  0  0  0
 17 21  2  0  0  0  0
 18 19  1  0  0  0  0
 19 28  1  0  0  0  0
 28 29  1  0  0  0  0
 28 30  2  0  0  0  0
 29 31  1  0  0  0  0
 29 32  1  0  0  0  0
 29 33  1  0  0  0  0
M  END
> <ID>
11369

> <Formula>
C26H38O4

> <FW>
414.5775

> <DSSTox_CID>
26036

> <DSSTox_RID>
81301

> <DSSTox_GSID>
46036

> <DSSTox_FileID_Sort>
5982

> <TS_ChemName>
Desoxycorticosterone pivalate

> <TS_ChemName_Synonyms>


> <TS_CASRN>
808-48-0

> <CASRN_ChemName_Relationship>
primary

> <TS_Description>
single chemical compound

> <ChemNote>
stereochem; tautomers

> <STRUCTURE_Shown>
tested chemical

> <STRUCTURE_Formula>
C26H38O4

> <STRUCTURE_MW>
414.5775

> <STRUCTURE_ChemType>
defined organic

> <STRUCTURE_DefinedOrganicForm>
parent

> <STRUCTURE_IUPAC>
3,20-dioxopregn-4-en-21-yl 2,2-dimethylpropanoate

> <STRUCTURE_SMILES>
CC(C)(C)C(=O)OCC(=O)[C@H]2CC[C@H]3[C@@H]4CCC1=CC(=O)CC[C@]1(C)[C@H]4CC[C@]23C

> <STRUCTURE_SMILES_Desalt>
CC(C)(C)C(=O)OCC(=O)[C@H]2CC[C@H]3[C@@H]4CCC1=CC(=O)CC[C@]1(C)[C@H]4CC[C@]23C

> <Substance_modify_yyyymmdd>
20110824

$$$$
