808-26-4
ChemmineR-0915142007XD

 32 35  0  0  1  0  0  0  0  0  1 V2000
    6.8093   -1.3113    0.0000 H   0  0  0  0  0  0  0  0  0  0  0  0
    4.5549   -1.3113    0.0000 H   0  0  0  0  0  0  0  0  0  0  0  0
    9.1903    0.0000    0.0000 C   0  0  0  0  0  0  0  0  0  0  0  0
    8.0400   -0.6671    0.0000 N   0  0  0  0  0  0  0  0  0  0  0  0
    6.8898    0.0000    0.0000 C   0  0  0  0  0  0  0  0  0  0  0  0
    8.0400   -1.9899    0.0000 C   0  0  0  0  0  0  0  0  0  0  0  0
    6.9013   -2.6685    0.0000 C   0  0  0  0  0  0  0  0  0  0  0  0
    5.7511   -2.0129    0.0000 C   0  0  0  0  0  0  0  0  0  0  0  0
    4.6009   -2.6685    0.0000 C   0  0  0  0  0  0  0  0  0  0  0  0
    3.4392   -2.0129    0.0000 C   0  0  0  0  0  0  0  0  0  0  0  0
    2.3004   -2.6800    0.0000 C   0  0  0  0  0  0  0  0  0  0  0  0
    2.3004   -4.0028    0.0000 C   0  0  0  0  0  0  0  0  0  0  0  0
    1.1502   -4.6814    0.0000 C   0  0  0  0  0  0  0  0  0  0  0  0
    0.0000   -4.0028    0.0000 C   0  0  0  0  0  0  0  0  0  0  0  0
    0.0000   -2.6800    0.0000 C   0  0  0  0  0  0  0  0  0  0  0  0
    1.1502   -2.0244    0.0000 C   0  0  0  0  0  0  0  0  0  0  0  0
    1.1502   -6.0041    0.0000 O   0  0  0  0  0  0  0  0  0  0  0  0
    3.4507   -4.6584    0.0000 C   0  0  0  0  0  0  0  0  0  0  0  0
    3.4622   -6.0041    0.0000 O   0  0  0  0  0  0  0  0  0  0  0  0
    4.6009   -3.9913    0.0000 C   0  0  0  0  0  0  0  0  0  0  0  0
    5.7511   -4.6584    0.0000 C   0  0  0  0  0  0  0  0  0  0  0  0
    5.7511   -5.9926    0.0000 O   0  0  0  0  0  0  0  0  0  0  0  0
    6.9013   -3.9913    0.0000 C   0  0  0  0  0  0  0  0  0  0  0  0
    6.9013   -5.3140    0.0000 O   0  0  0  0  0  0  0  0  0  0  0  0
    8.0515   -4.6469    0.0000 C   0  0  0  0  0  0  0  0  0  0  0  0
    8.0630   -5.9926    0.0000 O   0  0  0  0  0  0  0  0  0  0  0  0
    9.2018   -3.9798    0.0000 C   0  0  0  0  0  0  0  0  0  0  0  0
    9.2018   -2.6455    0.0000 C   0  0  0  0  0  0  0  0  0  0  0  0
   10.3520   -1.9899    0.0000 O   0  0  0  0  0  0  0  0  0  0  0  0
   10.3635   -4.6469    0.0000 C   0  0  0  0  0  0  0  0  0  0  0  0
   10.3635   -5.9696    0.0000 N   0  0  0  0  0  0  0  0  0  0  0  0
   11.5022   -3.9798    0.0000 O   0  0  0  0  0  0  0  0  0  0  0  0
  7  1  1  6  0  0  0
  9  2  1  6  0  0  0
  3  4  1  0  0  0  0
  4  5  1  0  0  0  0
  6  4  1  6  0  0  0
  6  7  1  0  0  0  0
  6 28  1  0  0  0  0
  7  8  1  0  0  0  0
  7 23  1  0  0  0  0
  8  9  1  0  0  0  0
  9 10  1  0  0  0  0
  9 20  1  0  0  0  0
 10 11  1  0  0  0  0
 11 12  1  0  0  0  0
 11 16  2  0  0  0  0
 12 13  2  0  0  0  0
 12 18  1  0  0  0  0
 13 14  1  0  0  0  0
 13 17  1  0  0  0  0
 14 15  2  0  0  0  0
 15 16  1  0  0  0  0
 18 19  2  0  0  0  0
 18 20  1  0  0  0  0
 20 21  2  0  0  0  0
 21 22  1  0  0  0  0
 21 23  1  0  0  0  0
 23 24  1  6  0  0  0
 23 25  1  0  0  0  0
 25 26  2  0  0  0  0
 25 27  1  0  0  0  0
 27 28  2  0  0  0  0
 27 30  1  0  0  0  0
 28 29  1  0  0  0  0
 30 31  1  0  0  0  0
 30 32  2  0  0  0  0
M  END
> <ID>
16234

> <Formula>
C21H22N2O7

> <FW>
414.4086

> <DSSTox_CID>
31625

> <DSSTox_RID>
97509

> <DSSTox_GSID>
57836

> <DSSTox_FileID_Sort>
8576

> <TS_ChemName>
Sancycline

> <TS_ChemName_Synonyms>


> <TS_CASRN>
808-26-4

> <CASRN_ChemName_Relationship>
primary

> <TS_Description>
single chemical compound

> <ChemNote>


> <STRUCTURE_Shown>
tested chemical

> <STRUCTURE_Formula>
C21H22N2O7

> <STRUCTURE_MW>
414.4086

> <STRUCTURE_ChemType>
defined organic

> <STRUCTURE_DefinedOrganicForm>
parent

> <STRUCTURE_IUPAC>
(4S,4aS,5aR,12aS)-4-(dimethylamino)-3,10,12,12a-tetrahydroxy-1,11-dioxo-1,4,4a,5,5a,6,11,12a-octahydrotetracene-2-carboxamide

> <STRUCTURE_SMILES>
NC(=O)C1=C(O)[C@@H](N(C)C)[C@@H]2C[C@@H]3Cc4cccc(O)c4C(=O)C3=C(O)[C@]2(O)C1=O

> <STRUCTURE_SMILES_Desalt>
NC(=O)C1=C(O)[C@@H](N(C)C)[C@@H]2C[C@@H]3Cc4cccc(O)c4C(=O)C3=C(O)[C@]2(O)C1=O

> <Substance_modify_yyyymmdd>
20131121

$$$$
