80809-81-0
ChemmineR-0915142007XD

 24 24  0  0  0  0  0  0  0  0  1 V2000
   18.3997   -4.0336    0.0000 C   0  0  0  0  0  0  0  0  0  0  0  0
   17.2394   -3.3705    0.0000 C   0  0  0  0  0  0  0  0  0  0  0  0
   17.2578   -2.0444    0.0000 C   0  0  0  0  0  0  0  0  0  0  0  0
   18.4182   -1.3629    0.0000 C   0  0  0  0  0  0  0  0  0  0  0  0
   16.1159   -1.3629    0.0000 C   0  0  0  0  0  0  0  0  0  0  0  0
   16.1159   -0.0368    0.0000 O   0  0  0  0  0  0  0  0  0  0  0  0
   14.9555   -2.0260    0.0000 C   0  0  0  0  0  0  0  0  0  0  0  0
   14.9555   -3.3521    0.0000 C   0  0  0  0  0  0  0  0  0  0  0  0
   13.7952   -4.0152    0.0000 C   0  0  0  0  0  0  0  0  0  0  0  0
   16.0975   -4.0336    0.0000 C   0  0  0  0  0  0  0  0  0  0  0  0
   16.0975   -5.3597    0.0000 O   0  0  0  0  0  0  0  0  0  0  0  0
   13.7952   -1.3629    0.0000 C   0  0  0  0  0  0  0  0  0  0  0  0
   12.6533   -2.0260    0.0000 C   0  0  0  0  0  0  0  0  0  0  0  0
   11.5113   -1.3445    0.0000 C   0  0  0  0  0  0  0  0  0  0  0  0
   10.3510   -2.0076    0.0000 C   0  0  0  0  0  0  0  0  0  0  0  0
    9.2091   -1.3445    0.0000 C   0  0  0  0  0  0  0  0  0  0  0  0
    8.0672   -0.6815    0.0000 C   0  0  0  0  0  0  0  0  0  0  0  0
    6.9068    0.0000    0.0000 C   0  0  0  0  0  0  0  0  0  0  0  0
    5.7649   -0.6631    0.0000 C   0  0  0  0  0  0  0  0  0  0  0  0
    4.6230    0.0000    0.0000 C   0  0  0  0  0  0  0  0  0  0  0  0
    3.4626   -0.6631    0.0000 C   0  0  0  0  0  0  0  0  0  0  0  0
    2.3023   -1.3261    0.0000 C   0  0  0  0  0  0  0  0  0  0  0  0
    1.1603   -1.9892    0.0000 C   0  0  0  0  0  0  0  0  0  0  0  0
    0.0000   -1.3261    0.0000 O   0  0  0  0  0  0  0  0  0  0  0  0
  1  2  1  0  0  0  0
  2  3  2  0  0  0  0
  2 10  1  0  0  0  0
  3  4  1  0  0  0  0
  3  5  1  0  0  0  0
  5  6  2  0  0  0  0
  5  7  1  0  0  0  0
  7  8  2  0  0  0  0
  7 12  1  0  0  0  0
  8  9  1  0  0  0  0
  8 10  1  0  0  0  0
 10 11  2  0  0  0  0
 12 13  1  0  0  0  0
 13 14  1  0  0  0  0
 14 15  1  0  0  0  0
 15 16  1  0  0  0  0
 16 17  3  0  0  0  0
 17 18  1  0  0  0  0
 18 19  1  0  0  0  0
 19 20  1  0  0  0  0
 20 21  1  0  0  0  0
 21 22  3  0  0  0  0
 22 23  1  0  0  0  0
 23 24  1  0  0  0  0
M  END
> <ID>
10757

> <Formula>
C21H26O3

> <FW>
326.4293

> <DSSTox_CID>
25125

> <DSSTox_RID>
80689

> <DSSTox_GSID>
45125

> <DSSTox_FileID_Sort>
5371

> <TS_ChemName>
Docebenone

> <TS_ChemName_Synonyms>


> <TS_CASRN>
80809-81-0

> <CASRN_ChemName_Relationship>
primary

> <TS_Description>
single chemical compound

> <ChemNote>


> <STRUCTURE_Shown>
tested chemical

> <STRUCTURE_Formula>
C21H26O3

> <STRUCTURE_MW>
326.4293

> <STRUCTURE_ChemType>
defined organic

> <STRUCTURE_DefinedOrganicForm>
parent

> <STRUCTURE_IUPAC>
2-(12-hydroxydodeca-5,10-diyn-1-yl)-3,5,6-trimethylcyclohexa-2,5-diene-1,4-dione

> <STRUCTURE_SMILES>
O=C1C(C)=C(C)C(=O)C(C)=C1CCCCC#CCCCC#CCO

> <STRUCTURE_SMILES_Desalt>
O=C1C(C)=C(C)C(=O)C(C)=C1CCCCC#CCCCC#CCO

> <Substance_modify_yyyymmdd>
20100107

$$$$
