80844-07-1
ChemmineR-0915142007XD

 28 30  0  0  0  0  0  0  0  0  1 V2000
    6.9209   -4.6197    0.0000 C   0  0  0  0  0  0  0  0  0  0  0  0
    6.9209   -3.3047    0.0000 C   0  0  0  0  0  0  0  0  0  0  0  0
    5.7616   -2.6126    0.0000 C   0  0  0  0  0  0  0  0  0  0  0  0
    4.6024   -3.2874    0.0000 C   0  0  0  0  0  0  0  0  0  0  0  0
    4.6024   -4.6197    0.0000 C   0  0  0  0  0  0  0  0  0  0  0  0
    5.7616   -5.2599    0.0000 C   0  0  0  0  0  0  0  0  0  0  0  0
    8.0801   -5.2772    0.0000 C   0  0  0  0  0  0  0  0  0  0  0  0
    9.2048   -4.6370    0.0000 O   0  0  0  0  0  0  0  0  0  0  0  0
   10.3640   -5.3118    0.0000 C   0  0  0  0  0  0  0  0  0  0  0  0
   11.5059   -4.6543    0.0000 C   0  0  0  0  0  0  0  0  0  0  0  0
   10.8485   -3.4777    0.0000 C   0  0  0  0  0  0  0  0  0  0  0  0
   12.6825   -3.9968    0.0000 C   0  0  0  0  0  0  0  0  0  0  0  0
   13.8244   -4.6543    0.0000 C   0  0  0  0  0  0  0  0  0  0  0  0
   12.6825   -2.6645    0.0000 C   0  0  0  0  0  0  0  0  0  0  0  0
   14.9664   -3.9968    0.0000 C   0  0  0  0  0  0  0  0  0  0  0  0
   13.8244   -1.9897    0.0000 C   0  0  0  0  0  0  0  0  0  0  0  0
   14.9664   -2.6645    0.0000 C   0  0  0  0  0  0  0  0  0  0  0  0
   16.1429   -1.9897    0.0000 O   0  0  0  0  0  0  0  0  0  0  0  0
   16.1429   -0.6575    0.0000 C   0  0  0  0  0  0  0  0  0  0  0  0
   17.3022    0.0000    0.0000 C   0  0  0  0  0  0  0  0  0  0  0  0
   12.1807   -5.8135    0.0000 C   0  0  0  0  0  0  0  0  0  0  0  0
    3.4604   -5.2599    0.0000 O   0  0  0  0  0  0  0  0  0  0  0  0
    2.3012   -4.5851    0.0000 C   0  0  0  0  0  0  0  0  0  0  0  0
    1.1592   -5.2599    0.0000 C   0  0  0  0  0  0  0  0  0  0  0  0
    2.3012   -3.2874    0.0000 C   0  0  0  0  0  0  0  0  0  0  0  0
    0.0000   -4.5851    0.0000 C   0  0  0  0  0  0  0  0  0  0  0  0
    1.1419   -2.5953    0.0000 C   0  0  0  0  0  0  0  0  0  0  0  0
    0.0000   -3.2528    0.0000 C   0  0  0  0  0  0  0  0  0  0  0  0
  1  2  1  0  0  0  0
  1  6  2  0  0  0  0
  1  7  1  0  0  0  0
  2  3  2  0  0  0  0
  3  4  1  0  0  0  0
  4  5  2  0  0  0  0
  5  6  1  0  0  0  0
  5 22  1  0  0  0  0
  7  8  1  0  0  0  0
  8  9  1  0  0  0  0
  9 10  1  0  0  0  0
 10 11  1  0  0  0  0
 10 12  1  0  0  0  0
 10 21  1  0  0  0  0
 12 13  2  0  0  0  0
 12 14  1  0  0  0  0
 13 15  1  0  0  0  0
 14 16  2  0  0  0  0
 15 17  2  0  0  0  0
 16 17  1  0  0  0  0
 17 18  1  0  0  0  0
 18 19  1  0  0  0  0
 19 20  1  0  0  0  0
 22 23  1  0  0  0  0
 23 24  2  0  0  0  0
 23 25  1  0  0  0  0
 24 26  1  0  0  0  0
 25 27  2  0  0  0  0
 26 28  2  0  0  0  0
 27 28  1  0  0  0  0
M  END
> <ID>
6539

> <Formula>
C25H28O3

> <FW>
376.488

> <DSSTox_CID>
12610

> <DSSTox_RID>
79002

> <DSSTox_GSID>
32610

> <DSSTox_FileID_Sort>
3684

> <TS_ChemName>
Etofenprox

> <TS_ChemName_Synonyms>
Etofenprox (Ethofenprox) (Benzene, 1-((2-(4-ethoxyphenyl)-2-methylpropoxy)methyl)-3-phenoxy-)

> <TS_CASRN>
80844-07-1

> <CASRN_ChemName_Relationship>
primary

> <TS_Description>
single chemical compound

> <ChemNote>


> <STRUCTURE_Shown>
tested chemical

> <STRUCTURE_Formula>
C25H28O3

> <STRUCTURE_MW>
376.488

> <STRUCTURE_ChemType>
defined organic

> <STRUCTURE_DefinedOrganicForm>
parent

> <STRUCTURE_IUPAC>
1-{[2-(4-ethoxyphenyl)-2-methylpropoxy]methyl}-3-phenoxybenzene

> <STRUCTURE_SMILES>
CCOc1ccc(cc1)C(C)(C)COCc3cc(Oc2ccccc2)ccc3

> <STRUCTURE_SMILES_Desalt>
CCOc1ccc(cc1)C(C)(C)COCc3cc(Oc2ccccc2)ccc3

> <Substance_modify_yyyymmdd>
20080429

$$$$
