80879-63-6
ChemmineR-0915142007XD

 25 26  0  0  1  0  0  0  0  0  1 V2000
    1.1066   -1.9642    0.0000 C   0  0  0  0  0  0  0  0  0  0  0  0
    2.3100   -1.3279    0.0000 C   0  0  0  0  0  0  0  0  0  0  0  0
    3.4719   -1.9642    0.0000 C   0  0  0  0  0  0  0  0  0  0  0  0
    3.4719   -3.3059    0.0000 N   0  0  0  0  0  0  0  0  0  0  0  0
    2.3100   -3.9561    0.0000 C   0  0  0  0  0  0  0  0  0  0  0  0
    1.1066   -3.3059    0.0000 C   0  0  0  0  0  0  0  0  0  0  0  0
    2.3100   -5.2978    0.0000 C   0  0  0  0  0  0  0  0  0  0  0  0
    0.0000   -1.3279    0.0000 O   0  0  0  0  0  0  0  0  0  0  0  0
    0.0000   -3.9561    0.0000 O   0  0  0  0  0  0  0  0  0  0  0  0
    2.3100    0.0000    0.0000 O   0  0  0  0  0  0  0  0  0  0  0  0
    1.1066   -5.9756    0.0000 O   0  0  0  0  0  0  0  0  0  0  0  0
    4.6062   -3.9561    0.0000 C   0  0  0  0  0  0  0  0  0  0  0  0
    5.7681   -3.3059    0.0000 C   0  0  0  0  0  0  0  0  0  0  0  0
    6.8747   -3.9561    0.0000 O   0  0  0  0  0  0  0  0  0  0  0  0
    8.0228   -3.3059    0.0000 C   0  0  0  0  0  0  0  0  0  0  0  0
    8.0228   -1.9642    0.0000 C   0  0  0  0  0  0  0  0  0  0  0  0
    9.2262   -1.3279    0.0000 C   0  0  0  0  0  0  0  0  0  0  0  0
   10.3605   -1.9642    0.0000 C   0  0  0  0  0  0  0  0  0  0  0  0
   10.3605   -3.3059    0.0000 C   0  0  0  0  0  0  0  0  0  0  0  0
    9.2262   -3.9561    0.0000 C   0  0  0  0  0  0  0  0  0  0  0  0
   11.5224   -1.3279    0.0000 C   0  0  0  0  0  0  0  0  0  0  0  0
   12.6705   -1.9642    0.0000 O   0  0  0  0  0  0  0  0  0  0  0  0
   11.5224    0.0000    0.0000 O   0  0  0  0  0  0  0  0  0  0  0  0
   12.6705   -3.3059    0.0000 C   0  0  0  0  0  0  0  0  0  0  0  0
   13.8324   -3.9561    0.0000 C   0  0  0  0  0  0  0  0  0  0  0  0
  1  2  1  0  0  0  0
  1  8  1  6  0  0  0
  1  6  1  0  0  0  0
  2  3  1  0  0  0  0
  2 10  1  1  0  0  0
  3  4  1  0  0  0  0
  4  5  1  0  0  0  0
  4 12  1  0  0  0  0
  5  6  1  0  0  0  0
  5  7  1  6  0  0  0
  6  9  1  1  0  0  0
  7 11  1  0  0  0  0
 12 13  1  0  0  0  0
 13 14  1  0  0  0  0
 14 15  1  0  0  0  0
 15 16  2  0  0  0  0
 15 20  1  0  0  0  0
 16 17  1  0  0  0  0
 17 18  2  0  0  0  0
 18 19  1  0  0  0  0
 18 21  1  0  0  0  0
 19 20  2  0  0  0  0
 21 22  1  0  0  0  0
 21 23  2  0  0  0  0
 22 24  1  0  0  0  0
 24 25  1  0  0  0  0
M  END
> <ID>
13788

> <Formula>
C17H25NO7

> <FW>
355.3829

> <DSSTox_CID>
28725

> <DSSTox_RID>
82994

> <DSSTox_GSID>
48799

> <DSSTox_FileID_Sort>
7671

> <TS_ChemName>
Emiglitate

> <TS_ChemName_Synonyms>


> <TS_CASRN>
80879-63-6

> <CASRN_ChemName_Relationship>
primary

> <TS_Description>
single chemical compound

> <ChemNote>
stereochem

> <STRUCTURE_Shown>
tested chemical

> <STRUCTURE_Formula>
C17H25NO7

> <STRUCTURE_MW>
355.3829

> <STRUCTURE_ChemType>
defined organic

> <STRUCTURE_DefinedOrganicForm>
parent

> <STRUCTURE_IUPAC>
ethyl 4-{2-[(2R,3R,4R,5S)-3,4,5-trihydroxy-2-(hydroxymethyl)piperidin-1-yl]ethoxy}benzoate

> <STRUCTURE_SMILES>
O=C(OCC)c2ccc(OCCN1C[C@H](O)[C@@H](O)[C@H](O)[C@H]1CO)cc2

> <STRUCTURE_SMILES_Desalt>
O=C(OCC)c2ccc(OCCN1C[C@H](O)[C@@H](O)[C@H](O)[C@H]1CO)cc2

> <Substance_modify_yyyymmdd>
20111204

$$$$
