80880-90-6
ChemmineR-0915142007XD

 26 29  0  0  0  0  0  0  0  0  1 V2000
    5.1932   -2.2420    0.0000 C   0  0  0  0  0  0  0  0  0  0  0  0
    4.9187   -3.5346    0.0000 C   0  0  0  0  0  0  0  0  0  0  0  0
    6.0740   -4.2324    0.0000 C   0  0  0  0  0  0  0  0  0  0  0  0
    7.0463   -3.3173    0.0000 S   0  0  0  0  0  0  0  0  0  0  0  0
    6.4629   -2.1047    0.0000 C   0  0  0  0  0  0  0  0  0  0  0  0
    0.0000   -2.7567    0.0000 C   0  0  0  0  0  0  0  0  0  0  0  0
    0.2402   -4.0493    0.0000 C   0  0  0  0  0  0  0  0  0  0  0  0
    1.5442   -4.4154    0.0000 C   0  0  0  0  0  0  0  0  0  0  0  0
    2.5165   -3.5346    0.0000 C   0  0  0  0  0  0  0  0  0  0  0  0
    2.2306   -2.2420    0.0000 C   0  0  0  0  0  0  0  0  0  0  0  0
    0.9265   -1.8302    0.0000 C   0  0  0  0  0  0  0  0  0  0  0  0
    3.7290   -4.1294    0.0000 N   0  0  0  0  0  0  0  0  0  0  0  0
    3.0313   -1.1896    0.0000 N   0  0  0  0  0  0  0  0  0  0  0  0
    4.3467   -1.1896    0.0000 C   0  0  0  0  0  0  0  0  0  0  0  0
    4.9759    0.0000    0.0000 O   0  0  0  0  0  0  0  0  0  0  0  0
    6.0397   -5.3991    0.0000 C   0  0  0  0  0  0  0  0  0  0  0  0
    3.7290   -5.4334    0.0000 C   0  0  0  0  0  0  0  0  0  0  0  0
    2.5165   -6.1312    0.0000 C   0  0  0  0  0  0  0  0  0  0  0  0
    2.5165   -7.4352    0.0000 N   0  0  0  0  0  0  0  0  0  0  0  0
    4.8615   -6.1312    0.0000 O   0  0  0  0  0  0  0  0  0  0  0  0
    3.7290   -8.0758    0.0000 C   0  0  0  0  0  0  0  0  0  0  0  0
    3.7290   -9.4484    0.0000 C   0  0  0  0  0  0  0  0  0  0  0  0
    2.5165  -10.1348    0.0000 N   0  0  0  0  0  0  0  0  0  0  0  0
    1.3841   -9.4484    0.0000 C   0  0  0  0  0  0  0  0  0  0  0  0
    1.3841   -8.0758    0.0000 C   0  0  0  0  0  0  0  0  0  0  0  0
    2.5165  -11.4388    0.0000 C   0  0  0  0  0  0  0  0  0  0  0  0
  1 14  1  0  0  0  0
  1  5  2  0  0  0  0
  1  2  1  0  0  0  0
  2  3  2  0  0  0  0
  2 12  1  0  0  0  0
  3  4  1  0  0  0  0
  3 16  1  0  0  0  0
  4  5  1  0  0  0  0
  6  7  2  0  0  0  0
  6 11  1  0  0  0  0
  7  8  1  0  0  0  0
  8  9  2  0  0  0  0
  9 10  1  0  0  0  0
  9 12  1  0  0  0  0
 10 13  1  0  0  0  0
 10 11  2  0  0  0  0
 12 17  1  0  0  0  0
 13 14  1  0  0  0  0
 14 15  2  0  0  0  0
 17 18  1  0  0  0  0
 17 20  2  0  0  0  0
 18 19  1  0  0  0  0
 19 21  1  0  0  0  0
 19 25  1  0  0  0  0
 21 22  1  0  0  0  0
 22 23  1  0  0  0  0
 23 24  1  0  0  0  0
 23 26  1  0  0  0  0
 24 25  1  0  0  0  0
M  END
> <ID>
10822

> <Formula>
C19H22N4O2S

> <FW>
370.4686

> <DSSTox_CID>
25209

> <DSSTox_RID>
80752

> <DSSTox_GSID>
45209

> <DSSTox_FileID_Sort>
5433

> <TS_ChemName>
Telenzepine

> <TS_ChemName_Synonyms>


> <TS_CASRN>
80880-90-6

> <CASRN_ChemName_Relationship>
primary

> <TS_Description>
single chemical compound

> <ChemNote>


> <STRUCTURE_Shown>
tested chemical

> <STRUCTURE_Formula>
C19H22N4O2S

> <STRUCTURE_MW>
370.4686

> <STRUCTURE_ChemType>
defined organic

> <STRUCTURE_DefinedOrganicForm>
parent

> <STRUCTURE_IUPAC>
3-methyl-4-[(4-methylpiperazin-1-yl)acetyl]-4,9-dihydro-10H-thieno[3,4-b][1,5]benzodiazepin-10-one

> <STRUCTURE_SMILES>
CN1CCN(CC1)CC(=O)N3c2c(csc2C)C(=O)Nc4ccccc34

> <STRUCTURE_SMILES_Desalt>
CN1CCN(CC1)CC(=O)N3c2c(csc2C)C(=O)Nc4ccccc34

> <Substance_modify_yyyymmdd>
20100107

$$$$
