81-07-2
ChemmineR-0915142007XD

 12 13  0  0  0  0  0  0  0  0  1 V2000
    2.3016   -1.9948    0.0000 C   0  0  0  0  0  0  0  0  0  0  0  0
    1.1533   -2.6580    0.0000 C   0  0  0  0  0  0  0  0  0  0  0  0
    1.4305   -3.9598    0.0000 C   0  0  0  0  0  0  0  0  0  0  0  0
    0.5395   -4.9498    0.0000 O   0  0  0  0  0  0  0  0  0  0  0  0
    2.7521   -4.0984    0.0000 N   0  0  0  0  0  0  0  0  0  0  0  0
    3.2916   -2.8857    0.0000 S   0  0  0  0  0  0  0  0  0  0  0  0
    4.0737   -1.8067    0.0000 O   0  0  0  0  0  0  0  0  0  0  0  0
    4.4449   -3.5490    0.0000 O   0  0  0  0  0  0  0  0  0  0  0  0
    0.0000   -1.9948    0.0000 C   0  0  0  0  0  0  0  0  0  0  0  0
    0.0000   -0.6633    0.0000 C   0  0  0  0  0  0  0  0  0  0  0  0
    1.1533    0.0000    0.0000 C   0  0  0  0  0  0  0  0  0  0  0  0
    2.3016   -0.6633    0.0000 C   0  0  0  0  0  0  0  0  0  0  0  0
  1  2  2  0  0  0  0
  1  6  1  0  0  0  0
  1 12  1  0  0  0  0
  2  3  1  0  0  0  0
  2  9  1  0  0  0  0
  3  4  2  0  0  0  0
  3  5  1  0  0  0  0
  5  6  1  0  0  0  0
  6  7  2  0  0  0  0
  6  8  2  0  0  0  0
  9 10  2  0  0  0  0
 10 11  1  0  0  0  0
 11 12  2  0  0  0  0
M  END
> <ID>
1203

> <Formula>
C7H5NO3S

> <FW>
183.1845

> <DSSTox_CID>
1251

> <DSSTox_RID>
76039

> <DSSTox_GSID>
21251

> <DSSTox_FileID_Sort>
723

> <TS_ChemName>
Saccharin

> <TS_ChemName_Synonyms>
Saccharin (1,2-Benzisothiazol-3(2H)-one, 1,1-dioxide) (1,1-Dioxo-1,2-dihydro-1lambda6-benzo[d]isothiazol-3-one)

> <TS_CASRN>
81-07-2

> <CASRN_ChemName_Relationship>
primary

> <TS_Description>
single chemical compound

> <ChemNote>


> <STRUCTURE_Shown>
tested chemical

> <STRUCTURE_Formula>
C7H5NO3S

> <STRUCTURE_MW>
183.1845

> <STRUCTURE_ChemType>
defined organic

> <STRUCTURE_DefinedOrganicForm>
parent

> <STRUCTURE_IUPAC>
1,2-benzothiazol-3(2H)-one 1,1-dioxide

> <STRUCTURE_SMILES>
O=C2NS(=O)(=O)c1ccccc12

> <STRUCTURE_SMILES_Desalt>
O=C2NS(=O)(=O)c1ccccc12

> <Substance_modify_yyyymmdd>
20080429

$$$$
