81-15-2
ChemmineR-0915142007XD

 21 21  0  0  0  0  0  0  0  0  2 V2000
    1.3315   -4.7845    0.0000 C   0  0  0  0  0  0  0  0  0  0  0  0
    1.3315   -3.4604    0.0000 C   0  0  0  0  0  0  0  0  0  0  0  0
    2.6629   -3.4604    0.0000 C   0  0  0  0  0  0  0  0  0  0  0  0
    3.3287   -2.3045    0.0000 C   0  0  0  0  0  0  0  0  0  0  0  0
    4.6528   -2.3045    0.0000 C   0  0  0  0  0  0  0  0  0  0  0  0
    5.3186   -3.4604    0.0000 C   0  0  0  0  0  0  0  0  0  0  0  0
    4.6528   -4.6089    0.0000 C   0  0  0  0  0  0  0  0  0  0  0  0
    3.3287   -4.6089    0.0000 C   0  0  0  0  0  0  0  0  0  0  0  0
    2.6629   -5.7648    0.0000 N   0  3  0  0  0  0  0  0  0  0  0  0
    3.3287   -6.9134    0.0000 O   0  0  0  0  0  0  0  0  0  0  0  0
    1.3315   -5.7648    0.0000 O   0  5  0  0  0  0  0  0  0  0  0  0
    5.3186   -5.7648    0.0000 C   0  0  0  0  0  0  0  0  0  0  0  0
    6.6500   -3.4604    0.0000 N   0  3  0  0  0  0  0  0  0  0  0  0
    7.3158   -2.3045    0.0000 O   0  0  0  0  0  0  0  0  0  0  0  0
    7.3158   -4.6089    0.0000 O   0  5  0  0  0  0  0  0  0  0  0  0
    5.3186   -1.1559    0.0000 C   0  0  0  0  0  0  0  0  0  0  0  0
    2.6629   -1.1559    0.0000 N   0  3  0  0  0  0  0  0  0  0  0  0
    1.3315   -1.1559    0.0000 O   0  0  0  0  0  0  0  0  0  0  0  0
    3.3287    0.0000    0.0000 O   0  5  0  0  0  0  0  0  0  0  0  0
    0.0000   -3.4604    0.0000 C   0  0  0  0  0  0  0  0  0  0  0  0
    1.3315   -2.1289    0.0000 C   0  0  0  0  0  0  0  0  0  0  0  0
  1  2  1  0  0  0  0
  2  3  1  0  0  0  0
  2 20  1  0  0  0  0
  2 21  1  0  0  0  0
  3  4  2  0  0  0  0
  3  8  1  0  0  0  0
  4  5  1  0  0  0  0
  4 17  1  0  0  0  0
  5  6  2  0  0  0  0
  5 16  1  0  0  0  0
  6  7  1  0  0  0  0
  6 13  1  0  0  0  0
  7  8  2  0  0  0  0
  7 12  1  0  0  0  0
  8  9  1  0  0  0  0
  9 10  2  0  0  0  0
  9 11  1  0  0  0  0
 13 14  2  0  0  0  0
 13 15  1  0  0  0  0
 17 18  2  0  0  0  0
 17 19  1  0  0  0  0
M  END
> <ID>
1350

> <Formula>
C12H15N3O6

> <FW>
297.264

> <DSSTox_CID>
1405

> <DSSTox_RID>
76143

> <DSSTox_GSID>
21405

> <DSSTox_FileID_Sort>
827

> <TS_ChemName>
2,4,6-Trinitro-1,3-dimethyl-5-tert-butylbenzene

> <TS_ChemName_Synonyms>


> <TS_CASRN>
81-15-2

> <CASRN_ChemName_Relationship>
primary

> <TS_Description>
single chemical compound

> <ChemNote>


> <STRUCTURE_Shown>
tested chemical

> <STRUCTURE_Formula>
C12H15N3O6

> <STRUCTURE_MW>
297.264

> <STRUCTURE_ChemType>
defined organic

> <STRUCTURE_DefinedOrganicForm>
parent

> <STRUCTURE_IUPAC>
1-tert-butyl-3,5-dimethyl-2,4,6-trinitrobenzene

> <STRUCTURE_SMILES>
O=[N+]([O-])c1c(C)c(c(C)c(c1C(C)(C)C)[N+]([O-])=O)[N+]([O-])=O

> <STRUCTURE_SMILES_Desalt>
O=[N+]([O-])c1c(C)c(c(C)c(c1C(C)(C)C)[N+]([O-])=O)[N+]([O-])=O

> <Substance_modify_yyyymmdd>
20080429

$$$$
