81-23-2
ChemmineR-0915142007XD

 34 37  0  0  1  0  0  0  0  0  1 V2000
    6.9974   -2.6964    0.0000 C   0  0  0  0  0  0  0  0  0  0  0  0
    4.6693   -4.0380    0.0000 C   0  0  0  0  0  0  0  0  0  0  0  0
    6.9974   -4.0380    0.0000 C   0  0  0  0  0  0  0  0  0  0  0  0
    3.5119   -4.6956    0.0000 C   0  0  0  0  0  0  0  0  0  0  0  0
    5.8399   -4.6956    0.0000 C   0  0  0  0  0  0  0  0  0  0  0  0
    5.8399   -2.0256    0.0000 C   0  0  0  0  0  0  0  0  0  0  0  0
    5.8399   -6.0635    0.0000 C   0  0  0  0  0  0  0  0  0  0  0  0
    3.5119   -6.0635    0.0000 C   0  0  0  0  0  0  0  0  0  0  0  0
    4.6693   -2.6964    0.0000 C   0  0  0  0  0  0  0  0  0  0  0  0
    8.2732   -2.2755    0.0000 C   0  0  0  0  0  0  0  0  0  0  0  0
    4.6693   -6.7212    0.0000 C   0  0  0  0  0  0  0  0  0  0  0  0
    8.2732   -4.4457    0.0000 C   0  0  0  0  0  0  0  0  0  0  0  0
    2.3675   -4.0380    0.0000 C   0  0  0  0  0  0  0  0  0  0  0  0
    9.0624   -3.3672    0.0000 C   0  0  0  0  0  0  0  0  0  0  0  0
    2.3675   -6.7212    0.0000 C   0  0  0  0  0  0  0  0  0  0  0  0
   12.1797   -1.3153    0.0000 C   0  0  0  0  0  0  0  0  0  0  0  0
    5.8399   -0.9470    0.0000 O   0  0  0  0  0  0  0  0  0  0  0  0
    6.9579   -6.6686    0.0000 O   0  0  0  0  0  0  0  0  0  0  0  0
    1.2232   -6.0635    0.0000 C   0  0  0  0  0  0  0  0  0  0  0  0
   13.1530   -2.1966    0.0000 O   0  0  0  0  0  0  0  0  0  0  0  0
    8.6678   -0.9602    0.0000 C   0  0  0  0  0  0  0  0  0  0  0  0
    0.0000   -6.7343    0.0000 O   0  0  0  0  0  0  0  0  0  0  0  0
    9.9305   -0.6313    0.0000 C   0  0  0  0  0  0  0  0  0  0  0  0
    1.2232   -4.6956    0.0000 C   0  0  0  0  0  0  0  0  0  0  0  0
   10.8644   -1.6047    0.0000 C   0  0  0  0  0  0  0  0  0  0  0  0
    6.9974   -1.3416    0.0000 C   0  0  0  0  0  0  0  0  0  0  0  0
    3.5119   -3.3672    0.0000 C   0  0  0  0  0  0  0  0  0  0  0  0
   12.6269   -0.0526    0.0000 O   0  0  0  0  0  0  0  0  0  0  0  0
    7.6945    0.0000    0.0000 C   0  0  0  0  0  0  0  0  0  0  0  0
    8.2732   -3.5908    0.0000 H   0  0  0  0  0  0  0  0  0  0  0  0
    6.9974   -5.3533    0.0000 H   0  0  0  0  0  0  0  0  0  0  0  0
    4.6693   -5.3533    0.0000 H   0  0  0  0  0  0  0  0  0  0  0  0
    5.8399   -3.3672    0.0000 H   0  0  0  0  0  0  0  0  0  0  0  0
    3.5119   -7.3788    0.0000 H   0  0  0  0  0  0  0  0  0  0  0  0
  1  3  1  0  0  0  0
  1  6  1  0  0  0  0
  1 10  1  0  0  0  0
  1 26  1  1  0  0  0
  2  9  1  0  0  0  0
  2  4  1  0  0  0  0
  2  5  1  0  0  0  0
  2 32  1  6  0  0  0
  3  5  1  0  0  0  0
  3 12  1  0  0  0  0
  3 31  1  6  0  0  0
  4  8  1  0  0  0  0
  4 13  1  0  0  0  0
  4 27  1  1  0  0  0
  5  7  1  0  0  0  0
  5 33  1  1  0  0  0
  6  9  1  0  0  0  0
  6 17  2  0  0  0  0
  7 11  1  0  0  0  0
  7 18  2  0  0  0  0
  8 15  1  0  0  0  0
  8 11  1  0  0  0  0
  8 34  1  1  0  0  0
 10 14  1  0  0  0  0
 10 21  1  0  0  0  0
 10 30  1  6  0  0  0
 12 14  1  0  0  0  0
 13 24  1  0  0  0  0
 15 19  1  0  0  0  0
 16 25  1  0  0  0  0
 16 20  2  0  0  0  0
 16 28  1  0  0  0  0
 19 24  1  0  0  0  0
 19 22  2  0  0  0  0
 21 23  1  0  0  0  0
 21 29  1  6  0  0  0
 23 25  1  0  0  0  0
M  END
> <ID>
2606

> <Formula>
C24H34O5

> <FW>
402.5238

> <DSSTox_CID>
2888

> <DSSTox_RID>
76775

> <DSSTox_GSID>
22888

> <DSSTox_FileID_Sort>
1459

> <TS_ChemName>
Dehydrocholic acid

> <TS_ChemName_Synonyms>


> <TS_CASRN>
81-23-2

> <CASRN_ChemName_Relationship>
primary

> <TS_Description>
single chemical compound

> <ChemNote>
stereochem

> <STRUCTURE_Shown>
tested chemical

> <STRUCTURE_Formula>
C24H34O5

> <STRUCTURE_MW>
402.5238

> <STRUCTURE_ChemType>
defined organic

> <STRUCTURE_DefinedOrganicForm>
parent

> <STRUCTURE_IUPAC>
(5beta)-3,7,12-trioxocholan-24-oic acid

> <STRUCTURE_SMILES>
O=C(O)CC[C@@H](C)[C@H]4CC[C@@H]3[C@]4(C)C(=O)C[C@H]2[C@H]3C(=O)C[C@@H]1CC(=O)CC[C@@]12C

> <STRUCTURE_SMILES_Desalt>
O=C(O)CC[C@@H](C)[C@H]4CC[C@@H]3[C@]4(C)C(=O)C[C@H]2[C@H]3C(=O)C[C@@H]1CC(=O)CC[C@@]12C

> <Substance_modify_yyyymmdd>
20080429

$$$$
