81-21-0
ChemmineR-0915142007XD

 12 16  0  0  0  0  0  0  0  0  1 V2000
    1.5063   -1.3046    0.0000 C   0  0  0  0  0  0  0  0  0  0  0  0
    2.2594    0.0000    0.0000 C   0  0  0  0  0  0  0  0  0  0  0  0
    3.3920   -0.6523    0.0000 C   0  0  0  0  0  0  0  0  0  0  0  0
    3.3920   -1.9569    0.0000 C   0  0  0  0  0  0  0  0  0  0  0  0
    2.2594   -2.6093    0.0000 C   0  0  0  0  0  0  0  0  0  0  0  0
    1.1327   -1.9569    0.0000 C   0  0  0  0  0  0  0  0  0  0  0  0
    1.1327   -0.6523    0.0000 C   0  0  0  0  0  0  0  0  0  0  0  0
    0.0000   -1.3046    0.0000 O   0  0  0  0  0  0  0  0  0  0  0  0
    4.6314   -2.3602    0.0000 C   0  0  0  0  0  0  0  0  0  0  0  0
    5.3964   -1.3046    0.0000 C   0  0  0  0  0  0  0  0  0  0  0  0
    4.6314   -0.2491    0.0000 C   0  0  0  0  0  0  0  0  0  0  0  0
    5.9301   -0.1127    0.0000 O   0  0  0  0  0  0  0  0  0  0  0  0
  1  2  1  0  0  0  0
  1  5  1  0  0  0  0
  2  3  1  0  0  0  0
  2  7  1  0  0  0  0
  3  4  1  0  0  0  0
  3 11  1  0  0  0  0
  4  5  1  0  0  0  0
  4  9  1  0  0  0  0
  5  6  1  0  0  0  0
  6  7  1  0  0  0  0
  6  8  1  0  0  0  0
  7  8  1  0  0  0  0
  9 10  1  0  0  0  0
 10 11  1  0  0  0  0
 10 12  1  0  0  0  0
 11 12  1  0  0  0  0
M  END
> <ID>
436

> <Formula>
C10H12O2

> <FW>
164.2011

> <DSSTox_CID>
452

> <DSSTox_RID>
75601

> <DSSTox_GSID>
20452

> <DSSTox_FileID_Sort>
285

> <TS_ChemName>
Dicyclopentadiene dioxide

> <TS_ChemName_Synonyms>
Dicyclopentadiene dioxide (2,4-Methano-2H-indeno[1,2-b:5,6-b']bisoxirene, octahydro)

> <TS_CASRN>
81-21-0

> <CASRN_ChemName_Relationship>
primary

> <TS_Description>
single chemical compound

> <ChemNote>


> <STRUCTURE_Shown>
tested chemical

> <STRUCTURE_Formula>
C10H12O2

> <STRUCTURE_MW>
164.2011

> <STRUCTURE_ChemType>
defined organic

> <STRUCTURE_DefinedOrganicForm>
parent

> <STRUCTURE_IUPAC>
octahydro-1aH-2,4-methanoindeno[1,2-b:5,6-b']bisoxirene

> <STRUCTURE_SMILES>
O1C2CC3C(C12)C5CC3C4OC45

> <STRUCTURE_SMILES_Desalt>
O1C2CC3C(C12)C5CC3C4OC45

> <Substance_modify_yyyymmdd>
20080429

$$$$
