81-27-6
ChemmineR-0915142007XD

 64 71  0  0  1  0  0  0  0  0  1 V2000
    8.0227   -6.5993    0.0000 C   0  0  0  0  0  0  0  0  0  0  0  0
    5.7305  -11.8861    0.0000 C   0  0  0  0  0  0  0  0  0  0  0  0
    6.8581   -5.9523    0.0000 C   0  0  0  0  0  0  0  0  0  0  0  0
    6.8581  -12.5516    0.0000 C   0  0  0  0  0  0  0  0  0  0  0  0
    5.7305   -6.5993    0.0000 C   0  0  0  0  0  0  0  0  0  0  0  0
    8.0227  -11.8861    0.0000 C   0  0  0  0  0  0  0  0  0  0  0  0
    6.8581   -8.5957    0.0000 C   0  0  0  0  0  0  0  0  0  0  0  0
    6.8581   -9.9082    0.0000 C   0  0  0  0  0  0  0  0  0  0  0  0
    8.0227   -7.9302    0.0000 C   0  0  0  0  0  0  0  0  0  0  0  0
    5.7305  -10.5552    0.0000 C   0  0  0  0  0  0  0  0  0  0  0  0
    3.4383   -3.9559    0.0000 C   0  0  0  0  0  0  0  0  0  0  0  0
   10.2964  -14.5295    0.0000 C   0  0  0  0  0  0  0  0  0  0  0  0
    5.7305   -7.9302    0.0000 C   0  0  0  0  0  0  0  0  0  0  0  0
    8.0227  -10.5552    0.0000 C   0  0  0  0  0  0  0  0  0  0  0  0
    2.3107   -4.6398    0.0000 C   0  0  0  0  0  0  0  0  0  0  0  0
   11.4425  -13.8826    0.0000 C   0  0  0  0  0  0  0  0  0  0  0  0
    1.1646   -3.9559    0.0000 C   0  0  0  0  0  0  0  0  0  0  0  0
   12.5886  -14.5295    0.0000 C   0  0  0  0  0  0  0  0  0  0  0  0
   10.2964  -15.8420    0.0000 O   0  0  0  0  0  0  0  0  0  0  0  0
    3.4383   -2.6434    0.0000 O   0  0  0  0  0  0  0  0  0  0  0  0
    1.1646   -2.6434    0.0000 C   0  0  0  0  0  0  0  0  0  0  0  0
   12.5886  -15.8420    0.0000 C   0  0  0  0  0  0  0  0  0  0  0  0
    9.1503   -5.9523    0.0000 C   0  0  0  0  0  0  0  0  0  0  0  0
    4.5659  -12.5516    0.0000 C   0  0  0  0  0  0  0  0  0  0  0  0
    4.5659   -5.9523    0.0000 C   0  0  0  0  0  0  0  0  0  0  0  0
    9.1503  -12.5516    0.0000 C   0  0  0  0  0  0  0  0  0  0  0  0
   11.4425  -16.5075    0.0000 C   0  0  0  0  0  0  0  0  0  0  0  0
    2.3107   -1.9964    0.0000 C   0  0  0  0  0  0  0  0  0  0  0  0
    4.5659   -9.9082    0.0000 C   0  0  0  0  0  0  0  0  0  0  0  0
    9.1503   -8.5957    0.0000 C   0  0  0  0  0  0  0  0  0  0  0  0
    4.5659   -4.6398    0.0000 O   0  0  0  0  0  0  0  0  0  0  0  0
    9.1503  -13.8826    0.0000 O   0  0  0  0  0  0  0  0  0  0  0  0
    3.4383  -10.5552    0.0000 C   0  0  0  0  0  0  0  0  0  0  0  0
   10.2964   -7.9302    0.0000 C   0  0  0  0  0  0  0  0  0  0  0  0
    2.3107   -9.9082    0.0000 C   0  0  0  0  0  0  0  0  0  0  0  0
   11.4425   -8.5957    0.0000 C   0  0  0  0  0  0  0  0  0  0  0  0
   10.2964   -6.5993    0.0000 C   0  0  0  0  0  0  0  0  0  0  0  0
    3.4383  -11.8861    0.0000 C   0  0  0  0  0  0  0  0  0  0  0  0
    6.8581  -13.8826    0.0000 O   0  0  0  0  0  0  0  0  0  0  0  0
    6.8581   -4.6398    0.0000 O   0  0  0  0  0  0  0  0  0  0  0  0
    2.3107   -8.5957    0.0000 O   0  0  0  0  0  0  0  0  0  0  0  0
   11.4425   -9.9082    0.0000 O   0  0  0  0  0  0  0  0  0  0  0  0
    2.3107   -5.9523    0.0000 O   0  0  0  0  0  0  0  0  0  0  0  0
   11.4425  -12.5516    0.0000 O   0  0  0  0  0  0  0  0  0  0  0  0
    0.0000   -4.6398    0.0000 O   0  0  0  0  0  0  0  0  0  0  0  0
   13.7162  -13.8826    0.0000 O   0  0  0  0  0  0  0  0  0  0  0  0
    9.1503   -4.6398    0.0000 O   0  0  0  0  0  0  0  0  0  0  0  0
    4.5659  -13.8826    0.0000 O   0  0  0  0  0  0  0  0  0  0  0  0
    0.0000   -1.9964    0.0000 O   0  0  0  0  0  0  0  0  0  0  0  0
   13.7162  -16.5075    0.0000 O   0  0  0  0  0  0  0  0  0  0  0  0
   12.5886   -7.9302    0.0000 O   0  0  0  0  0  0  0  0  0  0  0  0
    1.1646  -10.5552    0.0000 O   0  0  0  0  0  0  0  0  0  0  0  0
    4.5659   -8.5957    0.0000 C   0  0  0  0  0  0  0  0  0  0  0  0
    9.1503   -9.9082    0.0000 C   0  0  0  0  0  0  0  0  0  0  0  0
   11.4425  -17.8384    0.0000 C   0  0  0  0  0  0  0  0  0  0  0  0
    2.3107   -0.6655    0.0000 C   0  0  0  0  0  0  0  0  0  0  0  0
    3.4383   -6.5993    0.0000 C   0  0  0  0  0  0  0  0  0  0  0  0
   10.2964  -11.8861    0.0000 C   0  0  0  0  0  0  0  0  0  0  0  0
    1.1646    0.0000    0.0000 O   0  0  0  0  0  0  0  0  0  0  0  0
   12.5886  -18.4854    0.0000 O   0  0  0  0  0  0  0  0  0  0  0  0
    3.4383   -7.9302    0.0000 C   0  0  0  0  0  0  0  0  0  0  0  0
   10.2964  -10.5552    0.0000 C   0  0  0  0  0  0  0  0  0  0  0  0
    5.4347   -9.0579    0.0000 H   0  0  0  0  0  0  0  0  0  0  0  0
    8.3184   -9.4276    0.0000 H   0  0  0  0  0  0  0  0  0  0  0  0
  1  3  1  0  0  0  0
  1  9  2  0  0  0  0
  1 23  1  0  0  0  0
  2 24  1  0  0  0  0
  2  4  1  0  0  0  0
  2 10  2  0  0  0  0
  3  5  1  0  0  0  0
  3 40  2  0  0  0  0
  4  6  1  0  0  0  0
  4 39  2  0  0  0  0
  5 13  2  0  0  0  0
  5 25  1  0  0  0  0
  6 14  2  0  0  0  0
  6 26  1  0  0  0  0
  7  9  1  0  0  0  0
  7  8  1  0  0  0  0
  7 13  1  0  0  0  0
  7 64  1  1  0  0  0
  8 10  1  0  0  0  0
  8 14  1  0  0  0  0
  8 63  1  1  0  0  0
  9 30  1  0  0  0  0
 10 29  1  0  0  0  0
 11 31  1  1  0  0  0
 11 15  1  0  0  0  0
 11 20  1  0  0  0  0
 12 32  1  1  0  0  0
 12 16  1  0  0  0  0
 12 19  1  0  0  0  0
 13 53  1  0  0  0  0
 14 54  1  0  0  0  0
 15 17  1  0  0  0  0
 15 43  1  6  0  0  0
 16 18  1  0  0  0  0
 16 44  1  6  0  0  0
 17 21  1  0  0  0  0
 17 45  1  1  0  0  0
 18 22  1  0  0  0  0
 18 46  1  1  0  0  0
 19 27  1  0  0  0  0
 20 28  1  0  0  0  0
 21 49  1  6  0  0  0
 21 28  1  0  0  0  0
 22 50  1  6  0  0  0
 22 27  1  0  0  0  0
 23 37  2  0  0  0  0
 23 47  1  0  0  0  0
 24 48  1  0  0  0  0
 24 38  2  0  0  0  0
 25 31  1  0  0  0  0
 25 57  2  0  0  0  0
 26 32  1  0  0  0  0
 26 58  2  0  0  0  0
 27 55  1  1  0  0  0
 28 56  1  1  0  0  0
 29 33  2  0  0  0  0
 30 34  2  0  0  0  0
 33 35  1  0  0  0  0
 33 38  1  0  0  0  0
 34 37  1  0  0  0  0
 34 36  1  0  0  0  0
 35 41  2  0  0  0  0
 35 52  1  0  0  0  0
 36 42  2  0  0  0  0
 36 51  1  0  0  0  0
 53 61  2  0  0  0  0
 54 62  2  0  0  0  0
 55 60  1  0  0  0  0
 56 59  1  0  0  0  0
 57 61  1  0  0  0  0
 58 62  1  0  0  0  0
M  END
> <ID>
3197

> <Formula>
C42H38O20

> <FW>
862.7391

> <DSSTox_CID>
3576

> <DSSTox_RID>
77089

> <DSSTox_GSID>
23576

> <DSSTox_FileID_Sort>
1772

> <TS_ChemName>
Sennoside A

> <TS_ChemName_Synonyms>
Sennoside

> <TS_CASRN>
81-27-6

> <CASRN_ChemName_Relationship>
primary

> <TS_Description>
single chemical compound

> <ChemNote>
B form [128-57-4]; stereochem

> <STRUCTURE_Shown>
tested chemical

> <STRUCTURE_Formula>
C42H38O20

> <STRUCTURE_MW>
862.7391

> <STRUCTURE_ChemType>
defined organic

> <STRUCTURE_DefinedOrganicForm>
parent

> <STRUCTURE_IUPAC>
(9R,9'R)-5,5'-bis(beta-D-glucopyranosyloxy)-4,4'-dihydroxy-10,10'-dioxo-9,9',10,10'-tetrahydro-9,9'-bianthracene-2,2'-dicarboxylic acid

> <STRUCTURE_SMILES>
O=C(O)c3cc(O)c4C(=O)c2c(cccc2O[C@@H]1O[C@H](CO)[C@@H](O)[C@H](O)[C@H]1O)[C@H](c4c3)[C@@H]8c6cccc(O[C@@H]5O[C@H](CO)[C@@H](O)[C@H](O)[C@H]5O)c6C(=O)c7c8cc(cc7O)C(=O)O

> <STRUCTURE_SMILES_Desalt>
O=C(O)c3cc(O)c4C(=O)c2c(cccc2O[C@@H]1O[C@H](CO)[C@@H](O)[C@H](O)[C@H]1O)[C@H](c4c3)[C@@H]8c6cccc(O[C@@H]5O[C@H](CO)[C@@H](O)[C@H](O)[C@H]5O)c6C(=O)c7c8cc(cc7O)C(=O)O

> <Substance_modify_yyyymmdd>
20080429

$$$$
