81-20-9
ChemmineR-0915142007XD

 11 11  0  0  0  0  0  0  0  0  2 V2000
    0.6657   -2.3043    0.0000 N   0  3  0  0  0  0  0  0  0  0  0  0
    0.0000   -3.4588    0.0000 O   0  0  0  0  0  0  0  0  0  0  0  0
    0.0000   -1.1545    0.0000 O   0  5  0  0  0  0  0  0  0  0  0  0
    1.9971   -2.3043    0.0000 C   0  0  0  0  0  0  0  0  0  0  0  0
    2.6581   -1.1545    0.0000 C   0  0  0  0  0  0  0  0  0  0  0  0
    1.9971    0.0000    0.0000 C   0  0  0  0  0  0  0  0  0  0  0  0
    3.9895   -1.1545    0.0000 C   0  0  0  0  0  0  0  0  0  0  0  0
    4.6552   -2.3043    0.0000 C   0  0  0  0  0  0  0  0  0  0  0  0
    3.9895   -3.4588    0.0000 C   0  0  0  0  0  0  0  0  0  0  0  0
    2.6581   -3.4588    0.0000 C   0  0  0  0  0  0  0  0  0  0  0  0
    1.9971   -4.6086    0.0000 C   0  0  0  0  0  0  0  0  0  0  0  0
  1  2  2  0  0  0  0
  1  3  1  0  0  0  0
  1  4  1  0  0  0  0
  4  5  2  0  0  0  0
  4 10  1  0  0  0  0
  5  6  1  0  0  0  0
  5  7  1  0  0  0  0
  7  8  2  0  0  0  0
  8  9  1  0  0  0  0
  9 10  2  0  0  0  0
 10 11  1  0  0  0  0
M  END
> <ID>
4034

> <Formula>
C8H9NO2

> <FW>
151.1626

> <DSSTox_CID>
5134

> <DSSTox_RID>
77678

> <DSSTox_GSID>
25134

> <DSSTox_FileID_Sort>
2361

> <TS_ChemName>
1,3-Dimethyl-2-nitrobenzene

> <TS_ChemName_Synonyms>
1,3-Dimethyl-2-nitrobenzene (2-Nitro-m-xylene)

> <TS_CASRN>
81-20-9

> <CASRN_ChemName_Relationship>
primary

> <TS_Description>
single chemical compound

> <ChemNote>


> <STRUCTURE_Shown>
tested chemical

> <STRUCTURE_Formula>
C8H9NO2

> <STRUCTURE_MW>
151.1626

> <STRUCTURE_ChemType>
defined organic

> <STRUCTURE_DefinedOrganicForm>
parent

> <STRUCTURE_IUPAC>
1,3-dimethyl-2-nitrobenzene

> <STRUCTURE_SMILES>
Cc1cccc(C)c1[N+](=O)[O-]

> <STRUCTURE_SMILES_Desalt>
Cc1cccc(C)c1[N+](=O)[O-]

> <Substance_modify_yyyymmdd>
20080429

$$$$
