81-48-1
ChemmineR-0915142007XD

 25 28  0  0  0  0  0  0  0  0  1 V2000
    4.6578   -5.7594    0.0000 O   0  0  0  0  0  0  0  0  0  0  0  0
    3.9873   -4.6099    0.0000 C   0  0  0  0  0  0  0  0  0  0  0  0
    2.6582   -4.6099    0.0000 C   0  0  0  0  0  0  0  0  0  0  0  0
    1.9996   -3.4604    0.0000 C   0  0  0  0  0  0  0  0  0  0  0  0
    2.6582   -2.2990    0.0000 C   0  0  0  0  0  0  0  0  0  0  0  0
    1.9996   -1.1495    0.0000 O   0  0  0  0  0  0  0  0  0  0  0  0
    3.9873   -2.2990    0.0000 C   0  0  0  0  0  0  0  0  0  0  0  0
    4.6578   -1.1495    0.0000 C   0  0  0  0  0  0  0  0  0  0  0  0
    3.9873    0.0000    0.0000 O   0  0  0  0  0  0  0  0  0  0  0  0
    5.9869   -1.1495    0.0000 C   0  0  0  0  0  0  0  0  0  0  0  0
    6.6575   -2.2990    0.0000 C   0  0  0  0  0  0  0  0  0  0  0  0
    5.9869   -3.4604    0.0000 C   0  0  0  0  0  0  0  0  0  0  0  0
    6.6575   -4.6099    0.0000 N   0  0  0  0  0  0  0  0  0  0  0  0
    7.9866   -4.6099    0.0000 C   0  0  0  0  0  0  0  0  0  0  0  0
    8.6451   -3.4604    0.0000 C   0  0  0  0  0  0  0  0  0  0  0  0
    9.9742   -3.4604    0.0000 C   0  0  0  0  0  0  0  0  0  0  0  0
   10.6448   -4.6099    0.0000 C   0  0  0  0  0  0  0  0  0  0  0  0
    9.9742   -5.7594    0.0000 C   0  0  0  0  0  0  0  0  0  0  0  0
   11.9739   -4.6099    0.0000 C   0  0  0  0  0  0  0  0  0  0  0  0
    8.6451   -5.7594    0.0000 C   0  0  0  0  0  0  0  0  0  0  0  0
    0.6705   -3.4604    0.0000 C   0  0  0  0  0  0  0  0  0  0  0  0
    0.0000   -4.6099    0.0000 C   0  0  0  0  0  0  0  0  0  0  0  0
    0.6705   -5.7594    0.0000 C   0  0  0  0  0  0  0  0  0  0  0  0
    1.9996   -5.7594    0.0000 C   0  0  0  0  0  0  0  0  0  0  0  0
    4.6578   -3.4604    0.0000 C   0  0  0  0  0  0  0  0  0  0  0  0
  1  2  2  0  0  0  0
  2  3  1  0  0  0  0
  2 25  1  0  0  0  0
  3  4  2  0  0  0  0
  3 24  1  0  0  0  0
  4  5  1  0  0  0  0
  4 21  1  0  0  0  0
  5  6  2  0  0  0  0
  5  7  1  0  0  0  0
  7  8  2  0  0  0  0
  7 25  1  0  0  0  0
  8  9  1  0  0  0  0
  8 10  1  0  0  0  0
 10 11  2  0  0  0  0
 11 12  1  0  0  0  0
 12 13  1  0  0  0  0
 12 25  2  0  0  0  0
 13 14  1  0  0  0  0
 14 15  2  0  0  0  0
 14 20  1  0  0  0  0
 15 16  1  0  0  0  0
 16 17  2  0  0  0  0
 17 18  1  0  0  0  0
 17 19  1  0  0  0  0
 18 20  2  0  0  0  0
 21 22  2  0  0  0  0
 22 23  1  0  0  0  0
 23 24  2  0  0  0  0
M  END
> <ID>
4638

> <Formula>
C21H15NO3

> <FW>
329.3487

> <DSSTox_CID>
6293

> <DSSTox_RID>
78089

> <DSSTox_GSID>
26293

> <DSSTox_FileID_Sort>
2772

> <TS_ChemName>
D&C violet 2

> <TS_ChemName_Synonyms>
D & C violet 2 (C.I. Solvent violet 13)

> <TS_CASRN>
81-48-1

> <CASRN_ChemName_Relationship>
primary

> <TS_Description>
single chemical compound

> <ChemNote>
C.I. 60725

> <STRUCTURE_Shown>
tested chemical

> <STRUCTURE_Formula>
C21H15NO3

> <STRUCTURE_MW>
329.3487

> <STRUCTURE_ChemType>
defined organic

> <STRUCTURE_DefinedOrganicForm>
parent

> <STRUCTURE_IUPAC>
1-hydroxy-4-[(4-methylphenyl)amino]anthracene-9,10-dione

> <STRUCTURE_SMILES>
Cc1ccc(cc1)Nc4ccc(O)c3c4C(=O)c2ccccc2C3=O

> <STRUCTURE_SMILES_Desalt>
Cc1ccc(cc1)Nc4ccc(O)c3c4C(=O)c2ccccc2C3=O

> <Substance_modify_yyyymmdd>
20080429

$$$$
