81-55-0
ChemmineR-0915142007XD

 24 26  0  0  0  0  0  0  0  0  2 V2000
    0.0000   -2.0259    0.0000 C   0  0  0  0  0  0  0  0  0  0  0  0
    0.0000   -3.3389    0.0000 C   0  0  0  0  0  0  0  0  0  0  0  0
    1.1436   -3.9954    0.0000 C   0  0  0  0  0  0  0  0  0  0  0  0
    2.3154   -3.3177    0.0000 C   0  0  0  0  0  0  0  0  0  0  0  0
    2.3154   -1.9836    0.0000 C   0  0  0  0  0  0  0  0  0  0  0  0
    1.1436   -1.3059    0.0000 C   0  0  0  0  0  0  0  0  0  0  0  0
    4.7225   -2.0048    0.0000 C   0  0  0  0  0  0  0  0  0  0  0  0
    4.7225   -3.3177    0.0000 C   0  0  0  0  0  0  0  0  0  0  0  0
    5.9155   -4.0095    0.0000 C   0  0  0  0  0  0  0  0  0  0  0  0
    7.0590   -3.3460    0.0000 C   0  0  0  0  0  0  0  0  0  0  0  0
    7.0590   -2.0330    0.0000 C   0  0  0  0  0  0  0  0  0  0  0  0
    5.9296   -1.3836    0.0000 C   0  0  0  0  0  0  0  0  0  0  0  0
    3.4942    0.0000    0.0000 O   0  0  0  0  0  0  0  0  0  0  0  0
    3.5154   -5.3013    0.0000 O   0  0  0  0  0  0  0  0  0  0  0  0
    3.5154   -4.0095    0.0000 C   0  0  0  0  0  0  0  0  0  0  0  0
    3.4942   -1.3059    0.0000 C   0  0  0  0  0  0  0  0  0  0  0  0
    1.1436   -0.0071    0.0000 O   0  0  0  0  0  0  0  0  0  0  0  0
    5.9296   -0.0635    0.0000 O   0  0  0  0  0  0  0  0  0  0  0  0
    1.1436   -5.2943    0.0000 N   0  3  0  0  0  0  0  0  0  0  0  0
    5.9155   -5.3013    0.0000 N   0  3  0  0  0  0  0  0  0  0  0  0
    0.0141   -5.9437    0.0000 O   0  5  0  0  0  0  0  0  0  0  0  0
    2.2730   -5.9437    0.0000 O   0  0  0  0  0  0  0  0  0  0  0  0
    4.7931   -5.9437    0.0000 O   0  5  0  0  0  0  0  0  0  0  0  0
    7.0520   -5.9578    0.0000 O   0  0  0  0  0  0  0  0  0  0  0  0
  1  2  1  0  0  0  0
  1  6  2  0  0  0  0
  2  3  2  0  0  0  0
  3  4  1  0  0  0  0
  3 19  1  0  0  0  0
  4  5  2  0  0  0  0
  4 15  1  0  0  0  0
  5  6  1  0  0  0  0
  5 16  1  0  0  0  0
  6 17  1  0  0  0  0
  7  8  2  0  0  0  0
  7 12  1  0  0  0  0
  7 16  1  0  0  0  0
  8  9  1  0  0  0  0
  8 15  1  0  0  0  0
  9 10  2  0  0  0  0
  9 20  1  0  0  0  0
 10 11  1  0  0  0  0
 11 12  2  0  0  0  0
 12 18  1  0  0  0  0
 13 16  2  0  0  0  0
 14 15  2  0  0  0  0
 19 21  1  0  0  0  0
 19 22  2  0  0  0  0
 20 23  1  0  0  0  0
 20 24  2  0  0  0  0
M  END
> <ID>
4004

> <Formula>
C14H6N2O8

> <FW>
330.206

> <DSSTox_CID>
5076

> <DSSTox_RID>
77653

> <DSSTox_GSID>
25076

> <DSSTox_FileID_Sort>
2336

> <TS_ChemName>
1,8-Dihydroxy-4,5-dinitroanthraquinone

> <TS_ChemName_Synonyms>


> <TS_CASRN>
81-55-0

> <CASRN_ChemName_Relationship>
primary

> <TS_Description>
single chemical compound

> <ChemNote>


> <STRUCTURE_Shown>
tested chemical

> <STRUCTURE_Formula>
C14H6N2O8

> <STRUCTURE_MW>
330.206

> <STRUCTURE_ChemType>
defined organic

> <STRUCTURE_DefinedOrganicForm>
parent

> <STRUCTURE_IUPAC>
1,8-dihydroxy-4,5-dinitroanthracene-9,10-dione

> <STRUCTURE_SMILES>
[O-][N+](=O)c3ccc(O)c2c3C(=O)c1c(ccc(O)c1C2=O)[N+]([O-])=O

> <STRUCTURE_SMILES_Desalt>
[O-][N+](=O)c3ccc(O)c2c3C(=O)c1c(ccc(O)c1C2=O)[N+]([O-])=O

> <Substance_modify_yyyymmdd>
20080429

$$$$
