81-54-9
ChemmineR-0915142007XD

 19 21  0  0  0  0  0  0  0  0  1 V2000
    4.6079   -3.3329    0.0000 C   0  0  0  0  0  0  0  0  0  0  0  0
    4.6079   -2.0013    0.0000 C   0  0  0  0  0  0  0  0  0  0  0  0
    3.4620   -3.9865    0.0000 C   0  0  0  0  0  0  0  0  0  0  0  0
    3.4620   -1.3315    0.0000 C   0  0  0  0  0  0  0  0  0  0  0  0
    2.3080   -3.3329    0.0000 C   0  0  0  0  0  0  0  0  0  0  0  0
    2.3080   -2.0013    0.0000 C   0  0  0  0  0  0  0  0  0  0  0  0
    5.7458   -3.9865    0.0000 C   0  0  0  0  0  0  0  0  0  0  0  0
    5.7458   -1.3315    0.0000 C   0  0  0  0  0  0  0  0  0  0  0  0
    6.8998   -3.3329    0.0000 C   0  0  0  0  0  0  0  0  0  0  0  0
    6.8998   -2.0013    0.0000 C   0  0  0  0  0  0  0  0  0  0  0  0
    3.4620    0.0000    0.0000 O   0  0  0  0  0  0  0  0  0  0  0  0
    3.4620   -5.3181    0.0000 O   0  0  0  0  0  0  0  0  0  0  0  0
    5.7458   -5.3181    0.0000 O   0  0  0  0  0  0  0  0  0  0  0  0
    5.7458    0.0000    0.0000 O   0  0  0  0  0  0  0  0  0  0  0  0
    8.0699   -1.3154    0.0000 O   0  0  0  0  0  0  0  0  0  0  0  0
    1.1540   -3.9865    0.0000 C   0  0  0  0  0  0  0  0  0  0  0  0
    1.1540   -1.3315    0.0000 C   0  0  0  0  0  0  0  0  0  0  0  0
    0.0000   -2.0013    0.0000 C   0  0  0  0  0  0  0  0  0  0  0  0
    0.0000   -3.3329    0.0000 C   0  0  0  0  0  0  0  0  0  0  0  0
  1  2  2  0  0  0  0
  1  3  1  0  0  0  0
  1  7  1  0  0  0  0
  2  4  1  0  0  0  0
  2  8  1  0  0  0  0
  3  5  1  0  0  0  0
  3 12  2  0  0  0  0
  4 11  2  0  0  0  0
  4  6  1  0  0  0  0
  5  6  2  0  0  0  0
  5 16  1  0  0  0  0
  6 17  1  0  0  0  0
  7  9  2  0  0  0  0
  7 13  1  0  0  0  0
  8 14  1  0  0  0  0
  8 10  2  0  0  0  0
  9 10  1  0  0  0  0
 10 15  1  0  0  0  0
 16 19  2  0  0  0  0
 17 18  2  0  0  0  0
 18 19  1  0  0  0  0
M  END
> <ID>
1168

> <Formula>
C14H8O5

> <FW>
256.2103

> <DSSTox_CID>
1214

> <DSSTox_RID>
76013

> <DSSTox_GSID>
21214

> <DSSTox_FileID_Sort>
697

> <TS_ChemName>
Purpurin

> <TS_ChemName_Synonyms>


> <TS_CASRN>
81-54-9

> <CASRN_ChemName_Relationship>
primary

> <TS_Description>
single chemical compound

> <ChemNote>


> <STRUCTURE_Shown>
tested chemical

> <STRUCTURE_Formula>
C14H8O5

> <STRUCTURE_MW>
256.2103

> <STRUCTURE_ChemType>
defined organic

> <STRUCTURE_DefinedOrganicForm>
parent

> <STRUCTURE_IUPAC>
1,2,4-trihydroxyanthracene-9,10-dione

> <STRUCTURE_SMILES>
O=C2c1ccccc1C(=O)c3c2c(O)cc(O)c3O

> <STRUCTURE_SMILES_Desalt>
O=C2c1ccccc1C(=O)c3c2c(O)cc(O)c3O

> <Substance_modify_yyyymmdd>
20080429

$$$$
