81-64-1
ChemmineR-0915142007XD

 18 20  0  0  0  0  0  0  0  0  1 V2000
    4.5884   -2.0079    0.0000 C   0  0  0  0  0  0  0  0  0  0  0  0
    4.5884   -3.3395    0.0000 C   0  0  0  0  0  0  0  0  0  0  0  0
    3.4499   -1.3317    0.0000 C   0  0  0  0  0  0  0  0  0  0  0  0
    3.4499   -3.9950    0.0000 C   0  0  0  0  0  0  0  0  0  0  0  0
    2.3115   -3.3395    0.0000 C   0  0  0  0  0  0  0  0  0  0  0  0
    2.3115   -2.0079    0.0000 C   0  0  0  0  0  0  0  0  0  0  0  0
    5.7614   -3.9950    0.0000 C   0  0  0  0  0  0  0  0  0  0  0  0
    5.7614   -1.3317    0.0000 C   0  0  0  0  0  0  0  0  0  0  0  0
    3.4499    0.0000    0.0000 O   0  0  0  0  0  0  0  0  0  0  0  0
    3.4499   -5.3267    0.0000 O   0  0  0  0  0  0  0  0  0  0  0  0
    6.8999   -2.0079    0.0000 C   0  0  0  0  0  0  0  0  0  0  0  0
    6.8999   -3.3395    0.0000 C   0  0  0  0  0  0  0  0  0  0  0  0
    5.7614    0.0000    0.0000 O   0  0  0  0  0  0  0  0  0  0  0  0
    5.7614   -5.3267    0.0000 O   0  0  0  0  0  0  0  0  0  0  0  0
    1.1385   -1.3317    0.0000 C   0  0  0  0  0  0  0  0  0  0  0  0
    1.1385   -3.9950    0.0000 C   0  0  0  0  0  0  0  0  0  0  0  0
    0.0000   -3.3395    0.0000 C   0  0  0  0  0  0  0  0  0  0  0  0
    0.0000   -2.0079    0.0000 C   0  0  0  0  0  0  0  0  0  0  0  0
  1  2  2  0  0  0  0
  1  3  1  0  0  0  0
  1  8  1  0  0  0  0
  2  4  1  0  0  0  0
  2  7  1  0  0  0  0
  3  6  1  0  0  0  0
  3  9  2  0  0  0  0
  4 10  2  0  0  0  0
  4  5  1  0  0  0  0
  5  6  2  0  0  0  0
  5 16  1  0  0  0  0
  6 15  1  0  0  0  0
  7 14  1  0  0  0  0
  7 12  2  0  0  0  0
  8 11  2  0  0  0  0
  8 13  1  0  0  0  0
 11 12  1  0  0  0  0
 15 18  2  0  0  0  0
 16 17  2  0  0  0  0
 17 18  1  0  0  0  0
M  END
> <ID>
10121

> <Formula>
C14H8O4

> <FW>
240.2109

> <DSSTox_CID>
24464

> <DSSTox_RID>
80248

> <DSSTox_GSID>
44464

> <DSSTox_FileID_Sort>
4930

> <TS_ChemName>
1,4-Dihydroxyanthracene-9,10-dione

> <TS_ChemName_Synonyms>
1,4-Dihydroxyanthracene-9,10-dione (9,10-Anthracenedione, 1,4-dihydroxy-)

> <TS_CASRN>
81-64-1

> <CASRN_ChemName_Relationship>
primary

> <TS_Description>
single chemical compound

> <ChemNote>


> <STRUCTURE_Shown>
tested chemical

> <STRUCTURE_Formula>
C14H8O4

> <STRUCTURE_MW>
240.2109

> <STRUCTURE_ChemType>
defined organic

> <STRUCTURE_DefinedOrganicForm>
parent

> <STRUCTURE_IUPAC>
1,4-dihydroxyanthracene-9,10-dione

> <STRUCTURE_SMILES>
O=C2c1ccccc1C(=O)c3c2c(O)ccc3O

> <STRUCTURE_SMILES_Desalt>
O=C2c1ccccc1C(=O)c3c2c(O)ccc3O

> <Substance_modify_yyyymmdd>
20091116

$$$$
