81-88-9
ChemmineR-0915142007XD

 34 36  0  0  0  0  0  0  0  0  2 V2000
    5.9134   -0.5458    0.0000 Cl   0  5  0  0  0  0  0  0  0  0  0  0
    5.6632   -4.6170    0.0000 C    0  0  0  0  0  0  0  0  0  0  0  0
    6.8004   -2.6269    0.0000 C    0  0  0  0  0  0  0  0  0  0  0  0
    6.8004   -3.9460    0.0000 C    0  0  0  0  0  0  0  0  0  0  0  0
    5.6632   -6.4933    0.0000 C    0  0  0  0  0  0  0  0  0  0  0  0
    7.9262   -1.9787    0.0000 C    0  0  0  0  0  0  0  0  0  0  0  0
    4.5374   -2.6269    0.0000 C    0  0  0  0  0  0  0  0  0  0  0  0
    5.6632   -1.9787    0.0000 O    0  3  0  0  0  0  0  0  0  0  0  0
    4.5374   -3.9460    0.0000 C    0  0  0  0  0  0  0  0  0  0  0  0
    9.0747   -2.6269    0.0000 C    0  0  0  0  0  0  0  0  0  0  0  0
    7.9262   -4.6170    0.0000 C    0  0  0  0  0  0  0  0  0  0  0  0
   10.1778   -1.9787    0.0000 N    0  0  0  0  0  0  0  0  0  0  0  0
    6.8004   -7.1643    0.0000 C    0  0  0  0  0  0  0  0  0  0  0  0
    3.3774   -1.9787    0.0000 C    0  0  0  0  0  0  0  0  0  0  0  0
    9.0747   -3.9460    0.0000 C    0  0  0  0  0  0  0  0  0  0  0  0
    7.9489   -6.4933    0.0000 C    0  0  0  0  0  0  0  0  0  0  0  0
    2.2516   -2.6269    0.0000 C    0  0  0  0  0  0  0  0  0  0  0  0
    3.3774   -4.6170    0.0000 C    0  0  0  0  0  0  0  0  0  0  0  0
    1.1144   -1.9787    0.0000 N    0  0  0  0  0  0  0  0  0  0  0  0
    2.2516   -3.9460    0.0000 C    0  0  0  0  0  0  0  0  0  0  0  0
    7.9489   -5.1628    0.0000 O    0  0  0  0  0  0  0  0  0  0  0  0
    9.0747   -7.1643    0.0000 O    0  0  0  0  0  0  0  0  0  0  0  0
    4.5146   -7.1643    0.0000 C    0  0  0  0  0  0  0  0  0  0  0  0
   10.1778   -0.6823    0.0000 C    0  0  0  0  0  0  0  0  0  0  0  0
   11.3719   -2.6269    0.0000 C    0  0  0  0  0  0  0  0  0  0  0  0
    6.8004   -8.4834    0.0000 C    0  0  0  0  0  0  0  0  0  0  0  0
    1.1144   -0.6596    0.0000 C    0  0  0  0  0  0  0  0  0  0  0  0
    0.0000   -2.6269    0.0000 C    0  0  0  0  0  0  0  0  0  0  0  0
    9.0747   -0.0114    0.0000 C    0  0  0  0  0  0  0  0  0  0  0  0
   11.3719   -3.9119    0.0000 C    0  0  0  0  0  0  0  0  0  0  0  0
    4.5146   -8.4834    0.0000 C    0  0  0  0  0  0  0  0  0  0  0  0
    2.2403    0.0000    0.0000 C    0  0  0  0  0  0  0  0  0  0  0  0
    0.0000   -3.9574    0.0000 C    0  0  0  0  0  0  0  0  0  0  0  0
    5.6632   -9.1316    0.0000 C    0  0  0  0  0  0  0  0  0  0  0  0
  2  4  1  0  0  0  0
  2  5  1  0  0  0  0
  2  9  2  0  0  0  0
  3  4  2  0  0  0  0
  3  6  1  0  0  0  0
  3  8  1  0  0  0  0
  4 11  1  0  0  0  0
  5 13  2  0  0  0  0
  5 23  1  0  0  0  0
  6 10  2  0  0  0  0
  7  9  1  0  0  0  0
  7  8  2  0  0  0  0
  7 14  1  0  0  0  0
  9 18  1  0  0  0  0
 10 15  1  0  0  0  0
 10 12  1  0  0  0  0
 11 15  2  0  0  0  0
 12 24  1  0  0  0  0
 12 25  1  0  0  0  0
 13 16  1  0  0  0  0
 13 26  1  0  0  0  0
 14 17  2  0  0  0  0
 16 21  2  0  0  0  0
 16 22  1  0  0  0  0
 17 20  1  0  0  0  0
 17 19  1  0  0  0  0
 18 20  2  0  0  0  0
 19 27  1  0  0  0  0
 19 28  1  0  0  0  0
 23 31  2  0  0  0  0
 24 29  1  0  0  0  0
 25 30  1  0  0  0  0
 26 34  2  0  0  0  0
 27 32  1  0  0  0  0
 28 33  1  0  0  0  0
 31 34  1  0  0  0  0
M  END
> <ID>
9288

> <Formula>
C28H31ClN2O3

> <FW>
479.0103 (35.4535+443.5568)

> <DSSTox_CID>
22369

> <DSSTox_RID>
80008

> <DSSTox_GSID>
42369

> <DSSTox_FileID_Sort>
4690

> <TS_ChemName>
Rhodamine B

> <TS_ChemName_Synonyms>


> <TS_CASRN>
81-88-9

> <CASRN_ChemName_Relationship>
primary

> <TS_Description>
single chemical compound

> <ChemNote>
ammonium; C.I. 45170; parent [64381-98-2]

> <STRUCTURE_Shown>
tested chemical

> <STRUCTURE_Formula>
C28H31ClN2O3

> <STRUCTURE_MW>
479.0103

> <STRUCTURE_ChemType>
defined organic

> <STRUCTURE_DefinedOrganicForm>
salt

> <STRUCTURE_IUPAC>
9-(2-carboxyphenyl)-3,6-bis(diethylamino)xanthenium chloride

> <STRUCTURE_SMILES>
[Cl-].O=C(O)c4ccccc4c1c3ccc(cc3[o+]c2cc(ccc12)N(CC)CC)N(CC)CC

> <STRUCTURE_SMILES_Desalt>
O=C(O)c4ccccc4c1c3ccc(cc3[o+]c2cc(ccc12)N(CC)CC)N(CC)CC

> <Substance_modify_yyyymmdd>
20080825

$$$$
