81-82-3
ChemmineR-0915142007XD

 24 26  0  0  0  0  0  0  0  0  1 V2000
    4.5822   -2.0847    0.0000 C    0  0  0  0  0  0  0  0  0  0  0  0
    3.4366   -2.7348    0.0000 C    0  0  0  0  0  0  0  0  0  0  0  0
    4.5822   -0.7327    0.0000 C    0  0  0  0  0  0  0  0  0  0  0  0
    5.7380   -2.7348    0.0000 C    0  0  0  0  0  0  0  0  0  0  0  0
    3.4366   -0.0722    0.0000 O    0  0  0  0  0  0  0  0  0  0  0  0
    2.2911   -2.0640    0.0000 C    0  0  0  0  0  0  0  0  0  0  0  0
    2.2911   -0.7431    0.0000 C    0  0  0  0  0  0  0  0  0  0  0  0
    6.8836   -2.0847    0.0000 C    0  0  0  0  0  0  0  0  0  0  0  0
    5.7380   -0.0619    0.0000 O    0  0  0  0  0  0  0  0  0  0  0  0
    5.7380   -4.0558    0.0000 C    0  0  0  0  0  0  0  0  0  0  0  0
    3.4366   -4.0455    0.0000 O    0  0  0  0  0  0  0  0  0  0  0  0
    6.8836   -4.7266    0.0000 C    0  0  0  0  0  0  0  0  0  0  0  0
    6.8836   -0.7121    0.0000 C    0  0  0  0  0  0  0  0  0  0  0  0
    8.0291   -2.7555    0.0000 C    0  0  0  0  0  0  0  0  0  0  0  0
    6.8629   -6.0476    0.0000 O    0  0  0  0  0  0  0  0  0  0  0  0
    9.1746   -0.7121    0.0000 C    0  0  0  0  0  0  0  0  0  0  0  0
    9.1746   -2.0950    0.0000 C    0  0  0  0  0  0  0  0  0  0  0  0
    8.0291   -0.0619    0.0000 C    0  0  0  0  0  0  0  0  0  0  0  0
   10.3202    0.0000    0.0000 Cl   0  0  0  0  0  0  0  0  0  0  0  0
    1.1662   -2.7348    0.0000 C    0  0  0  0  0  0  0  0  0  0  0  0
    1.1662   -0.0722    0.0000 C    0  0  0  0  0  0  0  0  0  0  0  0
    8.0291   -4.0765    0.0000 C    0  0  0  0  0  0  0  0  0  0  0  0
    0.0000   -2.0847    0.0000 C    0  0  0  0  0  0  0  0  0  0  0  0
    0.0000   -0.7327    0.0000 C    0  0  0  0  0  0  0  0  0  0  0  0
  1  2  2  0  0  0  0
  1  3  1  0  0  0  0
  1  4  1  0  0  0  0
  2  6  1  0  0  0  0
  2 11  1  0  0  0  0
  3  5  1  0  0  0  0
  3  9  2  0  0  0  0
  4  8  1  0  0  0  0
  4 10  1  0  0  0  0
  5  7  1  0  0  0  0
  6 20  1  0  0  0  0
  6  7  2  0  0  0  0
  7 21  1  0  0  0  0
  8 13  2  0  0  0  0
  8 14  1  0  0  0  0
 10 12  1  0  0  0  0
 12 15  2  0  0  0  0
 12 22  1  0  0  0  0
 13 18  1  0  0  0  0
 14 17  2  0  0  0  0
 16 17  1  0  0  0  0
 16 19  1  0  0  0  0
 16 18  2  0  0  0  0
 20 23  2  0  0  0  0
 21 24  2  0  0  0  0
 23 24  1  0  0  0  0
M  END
> <ID>
8748

> <Formula>
C19H15ClO4

> <FW>
342.773

> <DSSTox_CID>
21797

> <DSSTox_RID>
79846

> <DSSTox_GSID>
41797

> <DSSTox_FileID_Sort>
4528

> <TS_ChemName>
Coumachlor

> <TS_ChemName_Synonyms>


> <TS_CASRN>
81-82-3

> <CASRN_ChemName_Relationship>
primary

> <TS_Description>
single chemical compound

> <ChemNote>
tautomers

> <STRUCTURE_Shown>
tested chemical

> <STRUCTURE_Formula>
C19H15ClO4

> <STRUCTURE_MW>
342.773

> <STRUCTURE_ChemType>
defined organic

> <STRUCTURE_DefinedOrganicForm>
parent

> <STRUCTURE_IUPAC>
3-[1-(4-chlorophenyl)-3-oxobutyl]-4-hydroxy-2H-chromen-2-one

> <STRUCTURE_SMILES>
Clc1ccc(cc1)C(CC(C)=O)C2=C(O)c3ccccc3OC2=O

> <STRUCTURE_SMILES_Desalt>
Clc1ccc(cc1)C(CC(C)=O)C2=C(O)c3ccccc3OC2=O

> <Substance_modify_yyyymmdd>
20080825

$$$$
