81-83-4
ChemmineR-0915142007XD

 15 17  0  0  0  0  0  0  0  0  1 V2000
    4.6131   -4.6456    0.0000 O   0  0  0  0  0  0  0  0  0  0  0  0
    3.4610   -3.9906    0.0000 C   0  0  0  0  0  0  0  0  0  0  0  0
    3.4610   -2.6573    0.0000 C   0  0  0  0  0  0  0  0  0  0  0  0
    2.3089   -4.6456    0.0000 N   0  0  0  0  0  0  0  0  0  0  0  0
    2.3089   -1.9883    0.0000 C   0  0  0  0  0  0  0  0  0  0  0  0
    4.6131   -1.9883    0.0000 C   0  0  0  0  0  0  0  0  0  0  0  0
    1.1521   -3.9906    0.0000 C   0  0  0  0  0  0  0  0  0  0  0  0
    1.1521   -2.6573    0.0000 C   0  0  0  0  0  0  0  0  0  0  0  0
    2.3089   -0.6550    0.0000 C   0  0  0  0  0  0  0  0  0  0  0  0
    4.6131   -0.6550    0.0000 C   0  0  0  0  0  0  0  0  0  0  0  0
    0.0000   -4.6456    0.0000 O   0  0  0  0  0  0  0  0  0  0  0  0
    0.0000   -1.9883    0.0000 C   0  0  0  0  0  0  0  0  0  0  0  0
    1.1521    0.0000    0.0000 C   0  0  0  0  0  0  0  0  0  0  0  0
    3.4610    0.0000    0.0000 C   0  0  0  0  0  0  0  0  0  0  0  0
    0.0000   -0.6550    0.0000 C   0  0  0  0  0  0  0  0  0  0  0  0
  1  2  2  0  0  0  0
  2  3  1  0  0  0  0
  2  4  1  0  0  0  0
  3  5  1  0  0  0  0
  3  6  2  0  0  0  0
  4  7  1  0  0  0  0
  5  8  1  0  0  0  0
  5  9  2  0  0  0  0
  6 10  1  0  0  0  0
  7  8  1  0  0  0  0
  7 11  2  0  0  0  0
  8 12  2  0  0  0  0
  9 13  1  0  0  0  0
  9 14  1  0  0  0  0
 10 14  2  0  0  0  0
 12 15  1  0  0  0  0
 13 15  2  0  0  0  0
M  END
> <ID>
10383

> <Formula>
C12H7NO2

> <FW>
197.1895

> <DSSTox_CID>
24731

> <DSSTox_RID>
80428

> <DSSTox_GSID>
44731

> <DSSTox_FileID_Sort>
5110

> <TS_ChemName>
1H-Benzo[de]isoquinoline-1,3(2H)-dione

> <TS_ChemName_Synonyms>
1H-Benz[de]isoquinoline-1,3(2H)-dione

> <TS_CASRN>
81-83-4

> <CASRN_ChemName_Relationship>
primary

> <TS_Description>
single chemical compound

> <ChemNote>


> <STRUCTURE_Shown>
tested chemical

> <STRUCTURE_Formula>
C12H7NO2

> <STRUCTURE_MW>
197.1895

> <STRUCTURE_ChemType>
defined organic

> <STRUCTURE_DefinedOrganicForm>
parent

> <STRUCTURE_IUPAC>
1H-benzo[de]isoquinoline-1,3(2H)-dione

> <STRUCTURE_SMILES>
O=C3NC(=O)c2cccc1cccc3c12

> <STRUCTURE_SMILES_Desalt>
O=C3NC(=O)c2cccc1cccc3c12

> <Substance_modify_yyyymmdd>
20091116

$$$$
