81-81-2
ChemmineR-0915142007XD

 23 25  0  0  0  0  0  0  0  0  1 V2000
    8.6452   -3.4581    0.0000 C   0  0  0  0  0  0  0  0  0  0  0  0
    7.9795   -4.6079    0.0000 C   0  0  0  0  0  0  0  0  0  0  0  0
    6.6482   -4.6079    0.0000 C   0  0  0  0  0  0  0  0  0  0  0  0
    5.9825   -3.4581    0.0000 C   0  0  0  0  0  0  0  0  0  0  0  0
    6.6482   -2.2996    0.0000 C   0  0  0  0  0  0  0  0  0  0  0  0
    7.9795   -2.2996    0.0000 C   0  0  0  0  0  0  0  0  0  0  0  0
    5.9825   -1.1498    0.0000 O   0  0  0  0  0  0  0  0  0  0  0  0
    4.6511   -1.1498    0.0000 C   0  0  0  0  0  0  0  0  0  0  0  0
    3.9941    0.0000    0.0000 O   0  0  0  0  0  0  0  0  0  0  0  0
    3.9941   -2.2996    0.0000 C   0  0  0  0  0  0  0  0  0  0  0  0
    2.6627   -2.2996    0.0000 C   0  0  0  0  0  0  0  0  0  0  0  0
    1.9970   -1.1498    0.0000 C   0  0  0  0  0  0  0  0  0  0  0  0
    0.6657   -1.1498    0.0000 C   0  0  0  0  0  0  0  0  0  0  0  0
    0.0000   -2.2996    0.0000 C   0  0  0  0  0  0  0  0  0  0  0  0
    0.0000    0.0000    0.0000 O   0  0  0  0  0  0  0  0  0  0  0  0
    1.9970   -3.4581    0.0000 C   0  0  0  0  0  0  0  0  0  0  0  0
    2.6627   -4.6079    0.0000 C   0  0  0  0  0  0  0  0  0  0  0  0
    1.9970   -5.7577    0.0000 C   0  0  0  0  0  0  0  0  0  0  0  0
    0.6657   -5.7577    0.0000 C   0  0  0  0  0  0  0  0  0  0  0  0
    0.0000   -4.6079    0.0000 C   0  0  0  0  0  0  0  0  0  0  0  0
    0.6657   -3.4581    0.0000 C   0  0  0  0  0  0  0  0  0  0  0  0
    4.6511   -3.4581    0.0000 C   0  0  0  0  0  0  0  0  0  0  0  0
    3.9941   -4.6079    0.0000 O   0  0  0  0  0  0  0  0  0  0  0  0
  1  2  2  0  0  0  0
  1  6  1  0  0  0  0
  2  3  1  0  0  0  0
  3  4  2  0  0  0  0
  4  5  1  0  0  0  0
  4 22  1  0  0  0  0
  5  6  2  0  0  0  0
  5  7  1  0  0  0  0
  7  8  1  0  0  0  0
  8  9  2  0  0  0  0
  8 10  1  0  0  0  0
 10 11  1  0  0  0  0
 10 22  2  0  0  0  0
 11 12  1  0  0  0  0
 11 16  1  0  0  0  0
 12 13  1  0  0  0  0
 13 14  1  0  0  0  0
 13 15  2  0  0  0  0
 16 17  2  0  0  0  0
 16 21  1  0  0  0  0
 17 18  1  0  0  0  0
 18 19  2  0  0  0  0
 19 20  1  0  0  0  0
 20 21  2  0  0  0  0
 22 23  1  0  0  0  0
M  END
> <ID>
3344

> <Formula>
C19H16O4

> <FW>
308.3279

> <DSSTox_CID>
3742

> <DSSTox_RID>
77177

> <DSSTox_GSID>
23742

> <DSSTox_FileID_Sort>
1860

> <TS_ChemName>
Warfarin

> <TS_ChemName_Synonyms>
Warfarin (Coumadin)

> <TS_CASRN>
81-81-2

> <CASRN_ChemName_Relationship>
primary

> <TS_Description>
single chemical compound

> <ChemNote>
tautomers

> <STRUCTURE_Shown>
tested chemical

> <STRUCTURE_Formula>
C19H16O4

> <STRUCTURE_MW>
308.3279

> <STRUCTURE_ChemType>
defined organic

> <STRUCTURE_DefinedOrganicForm>
parent

> <STRUCTURE_IUPAC>
4-hydroxy-3-(3-oxo-1-phenylbutyl)-2H-chromen-2-one

> <STRUCTURE_SMILES>
CC(=O)CC(C1=C(O)c2ccccc2OC1=O)c3ccccc3

> <STRUCTURE_SMILES_Desalt>
CC(=O)CC(C1=C(O)c2ccccc2OC1=O)c3ccccc3

> <Substance_modify_yyyymmdd>
20080429

$$$$
