81-84-5
ChemmineR-0915142007XD

 15 17  0  0  0  0  0  0  0  0  1 V2000
    2.2914    0.0000    0.0000 O   0  0  0  0  0  0  0  0  0  0  0  0
    3.4488   -0.6720    0.0000 C   0  0  0  0  0  0  0  0  0  0  0  0
    3.4488   -2.0068    0.0000 C   0  0  0  0  0  0  0  0  0  0  0  0
    2.2914   -2.6601    0.0000 C   0  0  0  0  0  0  0  0  0  0  0  0
    1.1527   -1.9881    0.0000 C   0  0  0  0  0  0  0  0  0  0  0  0
    1.1527   -0.6580    0.0000 C   0  0  0  0  0  0  0  0  0  0  0  0
    2.2914   -3.9949    0.0000 C   0  0  0  0  0  0  0  0  0  0  0  0
    3.4488   -4.6669    0.0000 C   0  0  0  0  0  0  0  0  0  0  0  0
    1.1387   -4.6529    0.0000 C   0  0  0  0  0  0  0  0  0  0  0  0
    0.0000   -2.6601    0.0000 C   0  0  0  0  0  0  0  0  0  0  0  0
    0.0000   -3.9949    0.0000 C   0  0  0  0  0  0  0  0  0  0  0  0
    4.6016   -3.9949    0.0000 C   0  0  0  0  0  0  0  0  0  0  0  0
    4.6016   -2.6601    0.0000 C   0  0  0  0  0  0  0  0  0  0  0  0
    4.6016    0.0000    0.0000 O   0  0  0  0  0  0  0  0  0  0  0  0
    0.0000    0.0000    0.0000 O   0  0  0  0  0  0  0  0  0  0  0  0
  1  2  1  0  0  0  0
  1  6  1  0  0  0  0
  2  3  1  0  0  0  0
  2 14  2  0  0  0  0
  3  4  2  0  0  0  0
  3 13  1  0  0  0  0
  4  5  1  0  0  0  0
  4  7  1  0  0  0  0
  5  6  1  0  0  0  0
  5 10  2  0  0  0  0
  6 15  2  0  0  0  0
  7  8  2  0  0  0  0
  7  9  1  0  0  0  0
  8 12  1  0  0  0  0
  9 11  2  0  0  0  0
 10 11  1  0  0  0  0
 12 13  2  0  0  0  0
M  END
> <ID>
4701

> <Formula>
C12H6O3

> <FW>
198.1742

> <DSSTox_CID>
6505

> <DSSTox_RID>
78127

> <DSSTox_GSID>
26505

> <DSSTox_FileID_Sort>
2810

> <TS_ChemName>
1H,3H-Naphtho(1,8-cd)pyran-1,3-dione

> <TS_ChemName_Synonyms>


> <TS_CASRN>
81-84-5

> <CASRN_ChemName_Relationship>
primary

> <TS_Description>
single chemical compound

> <ChemNote>


> <STRUCTURE_Shown>
tested chemical

> <STRUCTURE_Formula>
C12H6O3

> <STRUCTURE_MW>
198.1742

> <STRUCTURE_ChemType>
defined organic

> <STRUCTURE_DefinedOrganicForm>
parent

> <STRUCTURE_IUPAC>
1H,3H-benzo[de]isochromene-1,3-dione

> <STRUCTURE_SMILES>
O=C3OC(=O)c2cccc1cccc3c12

> <STRUCTURE_SMILES_Desalt>
O=C3OC(=O)c2cccc1cccc3c12

> <Substance_modify_yyyymmdd>
20080429

$$$$
