81025-04-9
ChemmineR-0915142007XD

 24 23  0  0  1  0  0  0  0  0  1 V2000
    5.3178   -4.6817    0.0000 O   0  0  0  0  0  0  0  0  0  0  0  0
    5.3178   -5.9937    0.0000 C   0  0  0  0  0  0  0  0  0  0  0  0
    4.1847   -4.0058    0.0000 C   0  0  0  0  0  0  0  0  0  0  0  0
    4.1847   -6.6696    0.0000 C   0  0  0  0  0  0  0  0  0  0  0  0
    3.0317   -4.6817    0.0000 C   0  0  0  0  0  0  0  0  0  0  0  0
    3.0317   -5.9937    0.0000 C   0  0  0  0  0  0  0  0  0  0  0  0
    4.1847   -2.6838    0.0000 O   0  0  0  0  0  0  0  0  0  0  0  0
    1.8786   -4.0058    0.0000 O   0  0  0  0  0  0  0  0  0  0  0  0
    1.8786   -6.6696    0.0000 O   0  0  0  0  0  0  0  0  0  0  0  0
    4.1847   -8.0016    0.0000 O   0  0  0  0  0  0  0  0  0  0  0  0
    6.4907   -6.6696    0.0000 C   0  0  0  0  0  0  0  0  0  0  0  0
    7.6338   -6.0136    0.0000 O   0  0  0  0  0  0  0  0  0  0  0  0
    5.3178   -0.6958    0.0000 C   0  0  0  0  0  0  0  0  0  0  0  0
    5.3178   -2.0178    0.0000 C   0  0  0  0  0  0  0  0  0  0  0  0
    4.1847    0.0000    0.0000 C   0  0  0  0  0  0  0  0  0  0  0  0
    3.0317   -0.6958    0.0000 O   0  0  0  0  0  0  0  0  0  0  0  0
    7.6338   -0.6958    0.0000 O   0  0  0  0  0  0  0  0  0  0  0  0
    7.6338   -2.0178    0.0000 C   0  0  0  0  0  0  0  0  0  0  0  0
    6.4907    0.0000    0.0000 O   0  0  0  0  0  0  0  0  0  0  0  0
    6.4907   -2.6838    0.0000 C   0  0  0  0  0  0  0  0  0  0  0  0
    9.9398   -2.0178    0.0000 O   0  0  0  0  0  0  0  0  0  0  0  0
    8.7968   -2.6838    0.0000 C   0  0  0  0  0  0  0  0  0  0  0  0
    6.4907   -4.0058    0.0000 O   0  0  0  0  0  0  0  0  0  0  0  0
    0.0000   -1.9581    0.0000 O   0  0  0  0  0  0  0  0  0  0  0  0
  1  2  1  0  0  0  0
  1  3  1  0  0  0  0
  2  4  1  0  0  0  0
  2 11  1  6  0  0  0
  3  5  1  0  0  0  0
  3  7  1  6  0  0  0
  4  6  1  0  0  0  0
  4 10  1  6  0  0  0
  5  6  1  0  0  0  0
  5  8  1  1  0  0  0
  6  9  1  6  0  0  0
 14  7  1  6  0  0  0
 11 12  1  0  0  0  0
 13 15  1  0  0  0  0
 13 19  1  1  0  0  0
 13 14  1  0  0  0  0
 14 20  1  0  0  0  0
 15 16  1  0  0  0  0
 18 17  1  1  0  0  0
 18 20  1  0  0  0  0
 18 22  1  0  0  0  0
 20 23  1  1  0  0  0
 21 22  1  0  0  0  0
M  END
> <ID>
12182

> <Formula>
C12H26O12

> <FW>
362.3276 (344.3124+18.0153)

> <DSSTox_CID>
27028

> <DSSTox_RID>
82049

> <DSSTox_GSID>
47028

> <DSSTox_FileID_Sort>
6730

> <TS_ChemName>
D-Lactitol monohydrate

> <TS_ChemName_Synonyms>


> <TS_CASRN>
81025-04-9

> <CASRN_ChemName_Relationship>
primary

> <TS_Description>
single chemical compound

> <ChemNote>
stereochem; parent [585-86-4]

> <STRUCTURE_Shown>
tested chemical

> <STRUCTURE_Formula>
C12H26O12

> <STRUCTURE_MW>
362.3276

> <STRUCTURE_ChemType>
defined organic

> <STRUCTURE_DefinedOrganicForm>
complex

> <STRUCTURE_IUPAC>
4-O-beta-D-galactopyranosyl-D-glucitol hydrate (1:1)

> <STRUCTURE_SMILES>
O.OC[C@H](O)[C@@H](O)[C@H](O[C@@H]1O[C@H](CO)[C@H](O)[C@H](O)[C@H]1O)[C@H](O)CO

> <STRUCTURE_SMILES_Desalt>
OC[C@H](O)[C@@H](O)[C@H](O[C@@H]1O[C@H](CO)[C@H](O)[C@H](O)[C@H]1O)[C@H](O)CO

> <Substance_modify_yyyymmdd>
20100427

$$$$
