81098-60-4
ChemmineR-0915142007XD

 32 34  0  0  0  0  0  0  0  0  1 V2000
   14.9822   -3.3179    0.0000 C    0  0  0  0  0  0  0  0  0  0  0  0
   16.1227   -3.9918    0.0000 C    0  0  0  0  0  0  0  0  0  0  0  0
   16.1227   -5.3224    0.0000 C    0  0  0  0  0  0  0  0  0  0  0  0
   17.2805   -5.9791    0.0000 F    0  0  0  0  0  0  0  0  0  0  0  0
   14.9822   -5.9791    0.0000 C    0  0  0  0  0  0  0  0  0  0  0  0
   13.8244   -5.3224    0.0000 C    0  0  0  0  0  0  0  0  0  0  0  0
   13.8244   -3.9918    0.0000 C    0  0  0  0  0  0  0  0  0  0  0  0
   12.6666   -3.3179    0.0000 O    0  0  0  0  0  0  0  0  0  0  0  0
   11.5261   -3.9918    0.0000 C    0  0  0  0  0  0  0  0  0  0  0  0
   11.5261   -5.3224    0.0000 C    0  0  0  0  0  0  0  0  0  0  0  0
   10.3683   -5.9791    0.0000 C    0  0  0  0  0  0  0  0  0  0  0  0
    9.2105   -5.3224    0.0000 N    0  0  0  0  0  0  0  0  0  0  0  0
    8.0700   -5.9791    0.0000 C    0  0  0  0  0  0  0  0  0  0  0  0
    6.9122   -5.3224    0.0000 C    0  0  0  0  0  0  0  0  0  0  0  0
    6.9122   -3.9918    0.0000 C    0  0  0  0  0  0  0  0  0  0  0  0
    5.7544   -3.3179    0.0000 N    0  0  0  0  0  0  0  0  0  0  0  0
    4.6139   -3.9918    0.0000 C    0  0  0  0  0  0  0  0  0  0  0  0
    4.6139   -5.3224    0.0000 O    0  0  0  0  0  0  0  0  0  0  0  0
    3.4561   -3.3179    0.0000 C    0  0  0  0  0  0  0  0  0  0  0  0
    2.2983   -3.9918    0.0000 C    0  0  0  0  0  0  0  0  0  0  0  0
    1.1578   -3.3179    0.0000 C    0  0  0  0  0  0  0  0  0  0  0  0
    0.0000   -3.9918    0.0000 Cl   0  0  0  0  0  0  0  0  0  0  0  0
    1.1578   -1.9873    0.0000 C    0  0  0  0  0  0  0  0  0  0  0  0
    0.0000   -1.3306    0.0000 N    0  0  0  0  0  0  0  0  0  0  0  0
    2.2983   -1.3306    0.0000 C    0  0  0  0  0  0  0  0  0  0  0  0
    3.4561   -1.9873    0.0000 C    0  0  0  0  0  0  0  0  0  0  0  0
    4.6139   -1.3306    0.0000 O    0  0  0  0  0  0  0  0  0  0  0  0
    4.6139    0.0000    0.0000 C    0  0  0  0  0  0  0  0  0  0  0  0
    8.0700   -3.3179    0.0000 C    0  0  0  0  0  0  0  0  0  0  0  0
    8.0700   -1.9873    0.0000 O    0  0  0  0  0  0  0  0  0  0  0  0
    9.2105   -1.3306    0.0000 C    0  0  0  0  0  0  0  0  0  0  0  0
    9.2105   -3.9918    0.0000 C    0  0  0  0  0  0  0  0  0  0  0  0
  1  2  2  0  0  0  0
  1  7  1  0  0  0  0
  2  3  1  0  0  0  0
  3  4  1  0  0  0  0
  3  5  2  0  0  0  0
  5  6  1  0  0  0  0
  6  7  2  0  0  0  0
  7  8  1  0  0  0  0
  8  9  1  0  0  0  0
  9 10  1  0  0  0  0
 10 11  1  0  0  0  0
 11 12  1  0  0  0  0
 12 13  1  0  0  0  0
 12 32  1  0  0  0  0
 13 14  1  0  0  0  0
 14 15  1  0  0  0  0
 15 16  1  0  0  0  0
 15 29  1  0  0  0  0
 16 17  1  0  0  0  0
 17 18  2  0  0  0  0
 17 19  1  0  0  0  0
 19 20  2  0  0  0  0
 19 26  1  0  0  0  0
 20 21  1  0  0  0  0
 21 22  1  0  0  0  0
 21 23  2  0  0  0  0
 23 24  1  0  0  0  0
 23 25  1  0  0  0  0
 25 26  2  0  0  0  0
 26 27  1  0  0  0  0
 27 28  1  0  0  0  0
 29 30  1  0  0  0  0
 29 32  1  0  0  0  0
 30 31  1  0  0  0  0
M  END
> <ID>
2553

> <Formula>
C23H29ClFN3O4

> <FW>
465.9455

> <DSSTox_CID>
2825

> <DSSTox_RID>
76746

> <DSSTox_GSID>
22825

> <DSSTox_FileID_Sort>
1430

> <TS_ChemName>
Cisapride

> <TS_ChemName_Synonyms>


> <TS_CASRN>
81098-60-4

> <CASRN_ChemName_Relationship>
primary

> <TS_Description>
single chemical compound

> <ChemNote>


> <STRUCTURE_Shown>
tested chemical

> <STRUCTURE_Formula>
C23H29ClFN3O4

> <STRUCTURE_MW>
465.9455

> <STRUCTURE_ChemType>
defined organic

> <STRUCTURE_DefinedOrganicForm>
parent

> <STRUCTURE_IUPAC>
4-amino-5-chloro-N-{1-[3-(4-fluorophenoxy)propyl]-3-methoxypiperidin-4-yl}-2-methoxybenzamide

> <STRUCTURE_SMILES>
Clc1cc(c(OC)cc1N)C(=O)NC3CCN(CCCOc2ccc(F)cc2)CC3OC

> <STRUCTURE_SMILES_Desalt>
Clc1cc(c(OC)cc1N)C(=O)NC3CCN(CCCOc2ccc(F)cc2)CC3OC

> <Substance_modify_yyyymmdd>
20080429

$$$$
