81110-73-8
ChemmineR-0915142007XD

 27 28  0  0  1  0  0  0  0  0  1 V2000
   12.6666   -2.0013    0.0000 C   0  0  0  0  0  0  0  0  0  0  0  0
   11.5140   -1.3300    0.0000 C   0  0  0  0  0  0  0  0  0  0  0  0
   11.5140    0.0000    0.0000 O   0  0  0  0  0  0  0  0  0  0  0  0
   10.3613   -2.0013    0.0000 S   0  0  0  0  0  0  0  0  0  0  0  0
   10.3613   -3.3313    0.0000 C   0  0  0  0  0  0  0  0  0  0  0  0
    9.2086   -3.9900    0.0000 C   0  0  0  0  0  0  0  0  0  0  0  0
    9.2086   -5.3200    0.0000 C   0  0  0  0  0  0  0  0  0  0  0  0
   10.3613   -5.9913    0.0000 C   0  0  0  0  0  0  0  0  0  0  0  0
   11.5140   -5.3200    0.0000 C   0  0  0  0  0  0  0  0  0  0  0  0
   12.6666   -5.9913    0.0000 C   0  0  0  0  0  0  0  0  0  0  0  0
   12.6666   -7.3213    0.0000 C   0  0  0  0  0  0  0  0  0  0  0  0
   11.5140   -7.9800    0.0000 C   0  0  0  0  0  0  0  0  0  0  0  0
   10.3613   -7.3213    0.0000 C   0  0  0  0  0  0  0  0  0  0  0  0
    8.0560   -3.3313    0.0000 C   0  0  0  0  0  0  0  0  0  0  0  0
    8.0560   -2.0013    0.0000 O   0  0  0  0  0  0  0  0  0  0  0  0
    6.9033   -3.9900    0.0000 N   0  0  0  0  0  0  0  0  0  0  0  0
    5.7633   -3.3313    0.0000 C   0  0  0  0  0  0  0  0  0  0  0  0
    4.6107   -3.9900    0.0000 C   0  0  0  0  0  0  0  0  0  0  0  0
    3.4580   -3.3313    0.0000 O   0  0  0  0  0  0  0  0  0  0  0  0
    4.6107   -5.3200    0.0000 O   0  0  0  0  0  0  0  0  0  0  0  0
    3.4580   -5.9913    0.0000 C   0  0  0  0  0  0  0  0  0  0  0  0
    2.3053   -5.3200    0.0000 C   0  0  0  0  0  0  0  0  0  0  0  0
    1.1527   -5.9913    0.0000 C   0  0  0  0  0  0  0  0  0  0  0  0
    0.0000   -5.3200    0.0000 C   0  0  0  0  0  0  0  0  0  0  0  0
    0.0000   -3.9900    0.0000 C   0  0  0  0  0  0  0  0  0  0  0  0
    1.1527   -3.3313    0.0000 C   0  0  0  0  0  0  0  0  0  0  0  0
    2.3053   -3.9900    0.0000 C   0  0  0  0  0  0  0  0  0  0  0  0
  1  2  1  0  0  0  0
  2  3  2  0  0  0  0
  2  4  1  0  0  0  0
  4  5  1  0  0  0  0
  6  5  1  1  0  0  0
  6  7  1  0  0  0  0
  6 14  1  0  0  0  0
  7  8  1  0  0  0  0
  8  9  2  0  0  0  0
  8 13  1  0  0  0  0
  9 10  1  0  0  0  0
 10 11  2  0  0  0  0
 11 12  1  0  0  0  0
 12 13  2  0  0  0  0
 14 15  2  0  0  0  0
 14 16  1  0  0  0  0
 16 17  1  0  0  0  0
 17 18  1  0  0  0  0
 18 19  2  0  0  0  0
 18 20  1  0  0  0  0
 20 21  1  0  0  0  0
 21 22  1  0  0  0  0
 22 23  2  0  0  0  0
 22 27  1  0  0  0  0
 23 24  1  0  0  0  0
 24 25  2  0  0  0  0
 25 26  1  0  0  0  0
 26 27  2  0  0  0  0
M  END
> <ID>
10991

> <Formula>
C21H23NO4S

> <FW>
385.4766

> <DSSTox_CID>
25513

> <DSSTox_RID>
80923

> <DSSTox_GSID>
45513

> <DSSTox_FileID_Sort>
5604

> <TS_ChemName>
Racecadotril

> <TS_ChemName_Synonyms>


> <TS_CASRN>
81110-73-8

> <CASRN_ChemName_Relationship>
primary

> <TS_Description>
single chemical compound

> <ChemNote>
stereochem

> <STRUCTURE_Shown>
tested chemical

> <STRUCTURE_Formula>
C21H23NO4S

> <STRUCTURE_MW>
385.4766

> <STRUCTURE_ChemType>
defined organic

> <STRUCTURE_DefinedOrganicForm>
parent

> <STRUCTURE_IUPAC>
benzyl N-[(2S)-3-(acetylsulfanyl)-2-benzylpropanoyl]glycinate

> <STRUCTURE_SMILES>
CC(=O)SC[C@@H](Cc1ccccc1)C(=O)NCC(=O)OCc2ccccc2

> <STRUCTURE_SMILES_Desalt>
CC(=O)SC[C@@H](Cc1ccccc1)C(=O)NCC(=O)OCc2ccccc2

> <Substance_modify_yyyymmdd>
20100107

$$$$
