81129-83-1
ChemmineR-0915142007XD

 25 24  0  0  1  0  0  0  0  0  2 V2000
    1.9188   -2.2945    0.0000 C    0  0  0  0  0  0  0  0  0  0  0  0
    2.5897   -1.1271    0.0000 C    0  0  0  0  0  0  0  0  0  0  0  0
    1.2479   -1.1271    0.0000 C    0  0  0  0  0  0  0  0  0  0  0  0
    1.9322   -3.6229    0.0000 C    0  0  0  0  0  0  0  0  0  0  0  0
    3.0862   -4.3072    0.0000 N    0  0  0  0  0  0  0  0  0  0  0  0
    3.0862   -5.6490    0.0000 C    0  0  0  0  0  0  0  0  0  0  0  0
    1.9188   -6.2931    0.0000 C    0  0  0  0  0  0  0  0  0  0  0  0
   12.3044   -4.2670    0.0000 C    0  0  0  0  0  0  0  0  0  0  0  0
   12.3044   -5.5953    0.0000 C    0  0  0  0  0  0  0  0  0  0  0  0
    0.7514   -4.2670    0.0000 O    0  0  0  0  0  0  0  0  0  0  0  0
    1.9188   -7.5812    0.0000 O    0  0  0  0  0  0  0  0  0  0  0  0
   11.1504   -3.5960    0.0000 O    0  0  0  0  0  0  0  0  0  0  0  0
    4.2401   -6.2931    0.0000 C    0  0  0  0  0  0  0  0  0  0  0  0
    0.7514   -5.6222    0.0000 O    0  5  0  0  0  0  0  0  0  0  0  0
   13.4181   -3.5290    0.0000 O    0  0  0  0  0  0  0  0  0  0  0  0
    3.9315   -1.1271    0.0000 C    0  0  0  0  0  0  0  0  0  0  0  0
    3.2740    0.0000    0.0000 C    0  0  0  0  0  0  0  0  0  0  0  0
    9.9831   -5.6222    0.0000 S    0  0  0  0  0  0  0  0  0  0  0  0
   11.1236   -6.2528    0.0000 C    0  0  0  0  0  0  0  0  0  0  0  0
    5.3538   -5.6222    0.0000 C    0  0  0  0  0  0  0  0  0  0  0  0
    8.7888   -6.2931    0.0000 C    0  0  0  0  0  0  0  0  0  0  0  0
    6.5212   -6.2931    0.0000 C    0  0  0  0  0  0  0  0  0  0  0  0
    7.6751   -5.6222    0.0000 C    0  0  0  0  0  0  0  0  0  0  0  0
   13.4181   -6.2126    0.0000 N    0  0  0  0  0  0  0  0  0  0  0  0
    0.0000   -6.9372    0.0000 Na   0  3  0  0  0  0  0  0  0  0  0  0
  1  2  1  0  0  0  0
  1  3  1  0  0  0  0
  1  4  1  1  0  0  0
  2 16  1  0  0  0  0
  2 17  1  0  0  0  0
  2  3  1  0  0  0  0
  4  5  1  0  0  0  0
  4 10  2  0  0  0  0
  5  6  1  0  0  0  0
  6  7  1  0  0  0  0
  6 13  2  0  0  0  0
  7 11  2  0  0  0  0
  7 14  1  0  0  0  0
  8 12  2  0  0  0  0
  8 15  1  0  0  0  0
  8  9  1  0  0  0  0
  9 19  1  0  0  0  0
  9 24  1  1  0  0  0
 13 20  1  0  0  0  0
 18 21  1  0  0  0  0
 18 19  1  0  0  0  0
 20 22  1  0  0  0  0
 21 23  1  0  0  0  0
 22 23  1  0  0  0  0
M  END
> <ID>
12075

> <Formula>
C16H25N2NaO5S

> <FW>
380.4349 (357.4456+22.9892)

> <DSSTox_CID>
26915

> <DSSTox_RID>
82013

> <DSSTox_GSID>
46915

> <DSSTox_FileID_Sort>
6694

> <TS_ChemName>
Cilastatin sodium

> <TS_ChemName_Synonyms>


> <TS_CASRN>
81129-83-1

> <CASRN_ChemName_Relationship>
primary

> <TS_Description>
single chemical compound

> <ChemNote>
stereochem; parent [82009-34-5]

> <STRUCTURE_Shown>
tested chemical

> <STRUCTURE_Formula>
C16H25N2NaO5S

> <STRUCTURE_MW>
380.4349

> <STRUCTURE_ChemType>
defined organic

> <STRUCTURE_DefinedOrganicForm>
salt

> <STRUCTURE_IUPAC>
sodium (2Z)-7-{[(2R)-2-amino-2-carboxyethyl]sulfanyl}-2-({[(1S)-2,2-dimethylcyclopropyl]carbonyl}amino)hept-2-enoate

> <STRUCTURE_SMILES>
[Na+].O=C(N/C(=C\CCCCSC[C@H](N)C(=O)O)C([O-])=O)[C@H]1CC1(C)C

> <STRUCTURE_SMILES_Desalt>
O=C(N/C(=C\CCCCSC[C@H](N)C(=O)O)C(=O)O)[C@H]1CC1(C)C

> <Substance_modify_yyyymmdd>
20110725

$$$$
