81131-70-6
ChemmineR-0915142007XD

 32 32  0  0  1  0  0  0  0  0  2 V2000
    5.7713   -9.9560    0.0000 C    0  0  0  0  0  0  0  0  0  0  0  0
    5.7713   -8.6250    0.0000 C    0  0  0  0  0  0  0  0  0  0  0  0
    4.6213   -7.9648    0.0000 C    0  0  0  0  0  0  0  0  0  0  0  0
    3.4500   -5.9842    0.0000 C    0  0  0  0  0  0  0  0  0  0  0  0
    6.9319  -10.5949    0.0000 C    0  0  0  0  0  0  0  0  0  0  0  0
    4.6213  -10.5949    0.0000 C    0  0  0  0  0  0  0  0  0  0  0  0
    4.6213   -6.6338    0.0000 O    0  0  0  0  0  0  0  0  0  0  0  0
    6.9319   -7.9541    0.0000 C    0  0  0  0  0  0  0  0  0  0  0  0
    8.0819   -9.9560    0.0000 C    0  0  0  0  0  0  0  0  0  0  0  0
    3.4500   -8.6250    0.0000 C    0  0  0  0  0  0  0  0  0  0  0  0
    8.0819   -0.6602    0.0000 C    0  0  0  0  0  0  0  0  0  0  0  0
    8.0819   -1.9912    0.0000 C    0  0  0  0  0  0  0  0  0  0  0  0
    6.9319   -6.6338    0.0000 C    0  0  0  0  0  0  0  0  0  0  0  0
    3.4500   -9.9560    0.0000 C    0  0  0  0  0  0  0  0  0  0  0  0
    8.0819   -8.6250    0.0000 C    0  0  0  0  0  0  0  0  0  0  0  0
    3.4500   -4.6319    0.0000 O    0  0  0  0  0  0  0  0  0  0  0  0
    6.9319    0.0000    0.0000 O    0  5  0  0  0  0  0  0  0  0  0  0
    9.2319    0.0000    0.0000 O    0  0  0  0  0  0  0  0  0  0  0  0
    9.2319   -2.6620    0.0000 C    0  0  0  0  0  0  0  0  0  0  0  0
    9.2319   -3.9717    0.0000 C    0  0  0  0  0  0  0  0  0  0  0  0
    2.3106   -6.6551    0.0000 C    0  0  0  0  0  0  0  0  0  0  0  0
    8.0819   -5.9629    0.0000 C    0  0  0  0  0  0  0  0  0  0  0  0
    2.3106  -10.6481    0.0000 O    0  0  0  0  0  0  0  0  0  0  0  0
    8.0819   -4.6319    0.0000 C    0  0  0  0  0  0  0  0  0  0  0  0
   10.4245   -1.9699    0.0000 O    0  0  0  0  0  0  0  0  0  0  0  0
    6.9319   -3.9930    0.0000 O    0  0  0  0  0  0  0  0  0  0  0  0
    9.2638   -7.9328    0.0000 C    0  0  0  0  0  0  0  0  0  0  0  0
    1.1713   -5.9949    0.0000 C    0  0  0  0  0  0  0  0  0  0  0  0
    2.3106   -7.9541    0.0000 C    0  0  0  0  0  0  0  0  0  0  0  0
    0.0000   -6.6551    0.0000 C    0  0  0  0  0  0  0  0  0  0  0  0
    5.7713   -7.3259    0.0000 H    0  0  0  0  0  0  0  0  0  0  0  0
    6.0162   -1.5120    0.0000 Na   0  3  0  0  0  0  0  0  0  0  0  0
  1  2  1  0  0  0  0
  1  5  1  0  0  0  0
  1  6  2  0  0  0  0
  2  3  1  0  0  0  0
  2  8  1  0  0  0  0
  2 31  1  1  0  0  0
  3  7  1  6  0  0  0
  3 10  1  0  0  0  0
  4  7  1  0  0  0  0
  4 16  2  0  0  0  0
  4 21  1  0  0  0  0
  5  9  2  0  0  0  0
  6 14  1  0  0  0  0
  8 13  1  1  0  0  0
  8 15  1  0  0  0  0
  9 15  1  0  0  0  0
 10 14  1  0  0  0  0
 11 12  1  0  0  0  0
 11 17  1  0  0  0  0
 11 18  2  0  0  0  0
 12 19  1  0  0  0  0
 13 22  1  0  0  0  0
 14 23  1  1  0  0  0
 15 27  1  1  0  0  0
 19 20  1  0  0  0  0
 19 25  1  6  0  0  0
 20 24  1  0  0  0  0
 21 28  1  0  0  0  0
 21 29  1  1  0  0  0
 22 24  1  0  0  0  0
 24 26  1  1  0  0  0
 28 30  1  0  0  0  0
M  END
> <ID>
12650

> <Formula>
C23H35NaO7

> <FW>
446.5096 (423.5203+22.9892)

> <DSSTox_CID>
27525

> <DSSTox_RID>
82395

> <DSSTox_GSID>
47525

> <DSSTox_FileID_Sort>
7076

> <TS_ChemName>
Pravastatin sodium

> <TS_ChemName_Synonyms>


> <TS_CASRN>
81131-70-6

> <CASRN_ChemName_Relationship>
primary

> <TS_Description>
single chemical compound

> <ChemNote>
stereochem; parent [81093-37-0]

> <STRUCTURE_Shown>
tested chemical

> <STRUCTURE_Formula>
C23H35NaO7

> <STRUCTURE_MW>
446.5096

> <STRUCTURE_ChemType>
defined organic

> <STRUCTURE_DefinedOrganicForm>
salt

> <STRUCTURE_IUPAC>
sodium (3R,5R)-3,5-dihydroxy-7-[(1S,2S,6S,8S,8aR)-6-hydroxy-2-methyl-8-{[(2S)-2-methylbutanoyl]oxy}-1,2,6,7,8,8a-hexahydronaphthalen-1-yl]heptanoate

> <STRUCTURE_SMILES>
[Na+].[O-]C(=O)C[C@H](O)C[C@H](O)CC[C@H]2[C@@H](C)C=CC1=C[C@@H](O)C[C@H](OC(=O)[C@@H](C)CC)[C@@H]12

> <STRUCTURE_SMILES_Desalt>
O=C(O)C[C@H](O)C[C@H](O)CC[C@H]2[C@@H](C)C=CC1=C[C@@H](O)C[C@H](OC(=O)[C@@H](C)CC)[C@@H]12

> <Substance_modify_yyyymmdd>
20100831

$$$$
