81161-17-3
ChemmineR-0915142007XD

 22 21  0  0  0  0  0  0  0  0  1 V2000
   10.4298   -1.9910    0.0000 C    0  0  0  0  0  0  0  0  0  0  0  0
   11.5758   -2.6509    0.0000 O    0  0  0  0  0  0  0  0  0  0  0  0
    0.0000   -2.6509    0.0000 N    0  0  0  0  0  0  0  0  0  0  0  0
    3.4612   -4.6535    0.0000 O    0  0  0  0  0  0  0  0  0  0  0  0
    1.1460   -4.6535    0.0000 C    0  0  0  0  0  0  0  0  0  0  0  0
    4.6072   -3.9937    0.0000 C    0  0  0  0  0  0  0  0  0  0  0  0
    9.2375   -2.6509    0.0000 C    0  0  0  0  0  0  0  0  0  0  0  0
    0.0000   -3.9937    0.0000 C    0  0  0  0  0  0  0  0  0  0  0  0
    6.8760   -2.6509    0.0000 C    0  0  0  0  0  0  0  0  0  0  0  0
    2.2689   -3.9937    0.0000 C    0  0  0  0  0  0  0  0  0  0  0  0
   10.4298   -0.6714    0.0000 O    0  0  0  0  0  0  0  0  0  0  0  0
    8.0683   -1.9910    0.0000 C    0  0  0  0  0  0  0  0  0  0  0  0
    4.6072   -2.6509    0.0000 C    0  0  0  0  0  0  0  0  0  0  0  0
    5.7300   -4.6535    0.0000 C    0  0  0  0  0  0  0  0  0  0  0  0
    5.7300   -1.9910    0.0000 C    0  0  0  0  0  0  0  0  0  0  0  0
    6.8760   -3.9937    0.0000 C    0  0  0  0  0  0  0  0  0  0  0  0
    1.1460   -5.9731    0.0000 O    0  0  0  0  0  0  0  0  0  0  0  0
    1.1460   -1.9910    0.0000 C    0  0  0  0  0  0  0  0  0  0  0  0
    9.2375    0.0000    0.0000 C    0  0  0  0  0  0  0  0  0  0  0  0
    1.1460   -0.6714    0.0000 C    0  0  0  0  0  0  0  0  0  0  0  0
    2.2689   -2.6509    0.0000 C    0  0  0  0  0  0  0  0  0  0  0  0
    5.9731   -5.5448    0.0000 Cl   0  0  0  0  0  0  0  0  0  0  0  0
  1  2  2  0  0  0  0
  1  7  1  0  0  0  0
  1 11  1  0  0  0  0
  3  8  1  0  0  0  0
  3 18  1  0  0  0  0
  4  6  1  0  0  0  0
  4 10  1  0  0  0  0
  5 10  1  0  0  0  0
  5  8  1  0  0  0  0
  5 17  1  0  0  0  0
  6 14  2  0  0  0  0
  6 13  1  0  0  0  0
  7 12  1  0  0  0  0
  9 12  1  0  0  0  0
  9 15  1  0  0  0  0
  9 16  2  0  0  0  0
 11 19  1  0  0  0  0
 13 15  2  0  0  0  0
 14 16  1  0  0  0  0
 18 20  1  0  0  0  0
 18 21  1  0  0  0  0
M  END
> <ID>
13988

> <Formula>
C16H26ClNO4

> <FW>
331.8349 (295.3740+36.4609)

> <DSSTox_CID>
28929

> <DSSTox_RID>
83195

> <DSSTox_GSID>
49003

> <DSSTox_FileID_Sort>
7871

> <TS_ChemName>
Esmolol hydrochloride

> <TS_ChemName_Synonyms>


> <TS_CASRN>
81161-17-3

> <CASRN_ChemName_Relationship>
primary

> <TS_Description>
single chemical compound

> <ChemNote>


> <STRUCTURE_Shown>
tested chemical

> <STRUCTURE_Formula>
C16H26ClNO4

> <STRUCTURE_MW>
331.8349

> <STRUCTURE_ChemType>
defined organic

> <STRUCTURE_DefinedOrganicForm>
complex

> <STRUCTURE_IUPAC>
methyl 3-{4-[2-hydroxy-3-(propan-2-ylamino)propoxy]phenyl}propanoate hydrochloride (1:1)

> <STRUCTURE_SMILES>
Cl.CC(C)NCC(O)COc1ccc(cc1)CCC(=O)OC

> <STRUCTURE_SMILES_Desalt>
CC(C)NCC(O)COc1ccc(cc1)CCC(=O)OC

> <Substance_modify_yyyymmdd>
20111204

$$$$
