81167-16-0
ChemmineR-0915142007XD

 18 20  0  0  0  0  0  0  0  0  1 V2000
    2.3010   -0.6666    0.0000 C   0  0  0  0  0  0  0  0  0  0  0  0
    2.3010   -2.0088    0.0000 C   0  0  0  0  0  0  0  0  0  0  0  0
    1.1505    0.0000    0.0000 C   0  0  0  0  0  0  0  0  0  0  0  0
    1.1505   -2.6663    0.0000 C   0  0  0  0  0  0  0  0  0  0  0  0
    0.0000   -0.6666    0.0000 C   0  0  0  0  0  0  0  0  0  0  0  0
    0.0000   -2.0088    0.0000 C   0  0  0  0  0  0  0  0  0  0  0  0
    4.5929   -0.6666    0.0000 C   0  0  0  0  0  0  0  0  0  0  0  0
    4.5929   -2.0088    0.0000 C   0  0  0  0  0  0  0  0  0  0  0  0
    3.4516    0.0000    0.0000 O   0  0  0  0  0  0  0  0  0  0  0  0
    3.4516   -2.6663    0.0000 O   0  0  0  0  0  0  0  0  0  0  0  0
    5.7435   -2.6663    0.0000 C   0  0  0  0  0  0  0  0  0  0  0  0
    6.9122   -1.9814    0.0000 C   0  0  0  0  0  0  0  0  0  0  0  0
    7.9806   -2.7759    0.0000 N   0  0  0  0  0  0  0  0  0  0  0  0
    7.3231   -0.7214    0.0000 N   0  0  0  0  0  0  0  0  0  0  0  0
    9.0489   -1.9814    0.0000 C   0  0  0  0  0  0  0  0  0  0  0  0
    8.6563   -0.7214    0.0000 C   0  0  0  0  0  0  0  0  0  0  0  0
    7.9806   -4.0999    0.0000 C   0  0  0  0  0  0  0  0  0  0  0  0
    9.1311   -4.7573    0.0000 C   0  0  0  0  0  0  0  0  0  0  0  0
  1  3  2  0  0  0  0
  1  9  1  0  0  0  0
  1  2  1  0  0  0  0
  2  4  2  0  0  0  0
  2 10  1  0  0  0  0
  3  5  1  0  0  0  0
  4  6  1  0  0  0  0
  5  6  2  0  0  0  0
  7  8  1  0  0  0  0
  7  9  1  0  0  0  0
  8 10  1  0  0  0  0
  8 11  1  0  0  0  0
 11 12  1  0  0  0  0
 12 13  1  0  0  0  0
 12 14  2  0  0  0  0
 13 15  1  0  0  0  0
 13 17  1  0  0  0  0
 14 16  1  0  0  0  0
 15 16  2  0  0  0  0
 17 18  1  0  0  0  0
M  END
> <ID>
10781

> <Formula>
C14H16N2O2

> <FW>
244.289

> <DSSTox_CID>
25162

> <DSSTox_RID>
80712

> <DSSTox_GSID>
45162

> <DSSTox_FileID_Sort>
5393

> <TS_ChemName>
Imiloxan

> <TS_ChemName_Synonyms>


> <TS_CASRN>
81167-16-0

> <CASRN_ChemName_Relationship>
primary

> <TS_Description>
single chemical compound

> <ChemNote>


> <STRUCTURE_Shown>
tested chemical

> <STRUCTURE_Formula>
C14H16N2O2

> <STRUCTURE_MW>
244.289

> <STRUCTURE_ChemType>
defined organic

> <STRUCTURE_DefinedOrganicForm>
parent

> <STRUCTURE_IUPAC>
2-(2,3-dihydro-1,4-benzodioxin-2-ylmethyl)-1-ethyl-1H-imidazole

> <STRUCTURE_SMILES>
CCn3ccnc3CC1COc2ccccc2O1

> <STRUCTURE_SMILES_Desalt>
CCn3ccnc3CC1COc2ccccc2O1

> <Substance_modify_yyyymmdd>
20100107

$$$$
