81334-34-1
ChemmineR-0915142007XD

 19 20  0  0  0  0  0  0  0  0  1 V2000
    3.9871   -2.9508    0.0000 C   0  0  0  0  0  0  0  0  0  0  0  0
    4.7702   -1.8749    0.0000 N   0  0  0  0  0  0  0  0  0  0  0  0
    4.7702   -4.0345    0.0000 N   0  0  0  0  0  0  0  0  0  0  0  0
    6.0360   -3.6232    0.0000 C   0  0  0  0  0  0  0  0  0  0  0  0
    6.0360   -2.2941    0.0000 C   0  0  0  0  0  0  0  0  0  0  0  0
    2.6580   -2.9508    0.0000 C   0  0  0  0  0  0  0  0  0  0  0  0
    2.0014   -4.1057    0.0000 C   0  0  0  0  0  0  0  0  0  0  0  0
    2.6580   -5.2528    0.0000 C   0  0  0  0  0  0  0  0  0  0  0  0
    2.0014   -1.8116    0.0000 N   0  0  0  0  0  0  0  0  0  0  0  0
    7.1119   -4.4064    0.0000 O   0  0  0  0  0  0  0  0  0  0  0  0
    3.9871   -5.2528    0.0000 O   0  0  0  0  0  0  0  0  0  0  0  0
    6.5818   -1.0759    0.0000 C   0  0  0  0  0  0  0  0  0  0  0  0
    2.0014   -6.4078    0.0000 O   0  0  0  0  0  0  0  0  0  0  0  0
    0.6724   -4.1057    0.0000 C   0  0  0  0  0  0  0  0  0  0  0  0
    7.3650   -2.1518    0.0000 C   0  0  0  0  0  0  0  0  0  0  0  0
    0.6724   -1.8116    0.0000 C   0  0  0  0  0  0  0  0  0  0  0  0
    7.9109   -0.9335    0.0000 C   0  0  0  0  0  0  0  0  0  0  0  0
    5.7987    0.0000    0.0000 C   0  0  0  0  0  0  0  0  0  0  0  0
    0.0000   -2.9508    0.0000 C   0  0  0  0  0  0  0  0  0  0  0  0
  1  2  2  0  0  0  0
  1  3  1  0  0  0  0
  1  6  1  0  0  0  0
  2  5  1  0  0  0  0
  3  4  1  0  0  0  0
  4 10  2  0  0  0  0
  4  5  1  0  0  0  0
  5 12  1  0  0  0  0
  5 15  1  0  0  0  0
  6  7  1  0  0  0  0
  6  9  2  0  0  0  0
  7  8  1  0  0  0  0
  7 14  2  0  0  0  0
  8 11  2  0  0  0  0
  8 13  1  0  0  0  0
  9 16  1  0  0  0  0
 12 17  1  0  0  0  0
 12 18  1  0  0  0  0
 14 19  1  0  0  0  0
 16 19  2  0  0  0  0
M  END
> <ID>
6861

> <Formula>
C13H15N3O3

> <FW>
261.2765

> <DSSTox_CID>
14665

> <DSSTox_RID>
79186

> <DSSTox_GSID>
34665

> <DSSTox_FileID_Sort>
3868

> <TS_ChemName>
Imazapyr

> <TS_ChemName_Synonyms>


> <TS_CASRN>
81334-34-1

> <CASRN_ChemName_Relationship>
primary

> <TS_Description>
single chemical compound

> <ChemNote>
tautomers

> <STRUCTURE_Shown>
tested chemical

> <STRUCTURE_Formula>
C13H15N3O3

> <STRUCTURE_MW>
261.2765

> <STRUCTURE_ChemType>
defined organic

> <STRUCTURE_DefinedOrganicForm>
parent

> <STRUCTURE_IUPAC>
2-[4-methyl-5-oxo-4-(propan-2-yl)-4,5-dihydro-1H-imidazol-2-yl]pyridine-3-carboxylic acid

> <STRUCTURE_SMILES>
CC1(N=C(NC1=O)c2ncccc2C(=O)O)C(C)C

> <STRUCTURE_SMILES_Desalt>
CC1(N=C(NC1=O)c2ncccc2C(=O)O)C(C)C

> <Substance_modify_yyyymmdd>
20080429

$$$$
