81335-77-5
ChemmineR-0915142007XD

 21 22  0  0  0  0  0  0  0  0  1 V2000
    1.9871   -3.4508    0.0000 N   0  0  0  0  0  0  0  0  0  0  0  0
    1.3307   -2.2976    0.0000 C   0  0  0  0  0  0  0  0  0  0  0  0
    3.3178   -3.4508    0.0000 C   0  0  0  0  0  0  0  0  0  0  0  0
    3.9920   -2.2976    0.0000 C   0  0  0  0  0  0  0  0  0  0  0  0
    1.9871   -1.1532    0.0000 C   0  0  0  0  0  0  0  0  0  0  0  0
    3.3178   -1.1532    0.0000 C   0  0  0  0  0  0  0  0  0  0  0  0
    5.3137   -2.2976    0.0000 C   0  0  0  0  0  0  0  0  0  0  0  0
    5.9968   -1.1532    0.0000 O   0  0  0  0  0  0  0  0  0  0  0  0
    5.9968   -3.4508    0.0000 O   0  0  0  0  0  0  0  0  0  0  0  0
    3.6903   -5.7928    0.0000 N   0  0  0  0  0  0  0  0  0  0  0  0
    5.4379   -4.5331    0.0000 N   0  0  0  0  0  0  0  0  0  0  0  0
    4.0895   -4.5331    0.0000 C   0  0  0  0  0  0  0  0  0  0  0  0
    4.7815   -6.5734    0.0000 C   0  0  0  0  0  0  0  0  0  0  0  0
    5.8460   -5.7928    0.0000 C   0  0  0  0  0  0  0  0  0  0  0  0
    4.0895   -7.7267    0.0000 C   0  0  0  0  0  0  0  0  0  0  0  0
    5.4379   -7.7267    0.0000 C   0  0  0  0  0  0  0  0  0  0  0  0
    6.7686   -7.7267    0.0000 C   0  0  0  0  0  0  0  0  0  0  0  0
    4.7549   -8.8710    0.0000 C   0  0  0  0  0  0  0  0  0  0  0  0
    7.0968   -6.2008    0.0000 O   0  0  0  0  0  0  0  0  0  0  0  0
    1.3307    0.0000    0.0000 C   0  0  0  0  0  0  0  0  0  0  0  0
    0.0000    0.0000    0.0000 C   0  0  0  0  0  0  0  0  0  0  0  0
  1  2  1  0  0  0  0
  1  3  2  0  0  0  0
  2  5  2  0  0  0  0
  3  4  1  0  0  0  0
  3 12  1  0  0  0  0
  4  6  2  0  0  0  0
  4  7  1  0  0  0  0
  5  6  1  0  0  0  0
  5 20  1  0  0  0  0
  7  8  2  0  0  0  0
  7  9  1  0  0  0  0
 10 12  2  0  0  0  0
 10 13  1  0  0  0  0
 11 12  1  0  0  0  0
 11 14  1  0  0  0  0
 13 14  1  0  0  0  0
 13 15  1  0  0  0  0
 13 16  1  0  0  0  0
 14 19  2  0  0  0  0
 16 17  1  0  0  0  0
 16 18  1  0  0  0  0
 20 21  1  0  0  0  0
M  END
> <ID>
3603

> <Formula>
C15H19N3O3

> <FW>
289.3297

> <DSSTox_CID>
4287

> <DSSTox_RID>
77356

> <DSSTox_GSID>
24287

> <DSSTox_FileID_Sort>
2039

> <TS_ChemName>
Imazethapyr

> <TS_ChemName_Synonyms>
Imazethapyr (Pursuit)

> <TS_CASRN>
81335-77-5

> <CASRN_ChemName_Relationship>
primary

> <TS_Description>
single chemical compound

> <ChemNote>
mixture of (R,S) isomers;, structure shown without stereochem, tautomers

> <STRUCTURE_Shown>
tested chemical

> <STRUCTURE_Formula>
C15H19N3O3

> <STRUCTURE_MW>
289.3297

> <STRUCTURE_ChemType>
defined organic

> <STRUCTURE_DefinedOrganicForm>
parent

> <STRUCTURE_IUPAC>
5-ethyl-2-[4-methyl-5-oxo-4-(propan-2-yl)-4,5-dihydro-1H-imidazol-2-yl]pyridine-3-carboxylic acid

> <STRUCTURE_SMILES>
CC1(N=C(NC1=O)c2ncc(CC)cc2C(=O)O)C(C)C

> <STRUCTURE_SMILES_Desalt>
CC1(N=C(NC1=O)c2ncc(CC)cc2C(=O)O)C(C)C

> <Substance_modify_yyyymmdd>
20080429

$$$$
