81335-37-7
ChemmineR-0915142007XD

 23 25  0  0  0  0  0  0  0  0  1 V2000
    5.7198   -3.9816    0.0000 C   0  0  0  0  0  0  0  0  0  0  0  0
    6.8719   -3.3248    0.0000 N   0  0  0  0  0  0  0  0  0  0  0  0
    5.9927   -5.2853    0.0000 N   0  0  0  0  0  0  0  0  0  0  0  0
    4.5880   -3.3046    0.0000 C   0  0  0  0  0  0  0  0  0  0  0  0
    4.5880   -1.9908    0.0000 C   0  0  0  0  0  0  0  0  0  0  0  0
    7.3165   -5.4369    0.0000 C   0  0  0  0  0  0  0  0  0  0  0  0
    7.8622   -4.2242    0.0000 C   0  0  0  0  0  0  0  0  0  0  0  0
    3.4460   -3.9816    0.0000 N   0  0  0  0  0  0  0  0  0  0  0  0
    3.4460   -1.3238    0.0000 C   0  0  0  0  0  0  0  0  0  0  0  0
    5.7198   -1.3238    0.0000 C   0  0  0  0  0  0  0  0  0  0  0  0
    2.2940   -3.3248    0.0000 C   0  0  0  0  0  0  0  0  0  0  0  0
    2.2940   -1.9807    0.0000 C   0  0  0  0  0  0  0  0  0  0  0  0
    7.9734   -6.5889    0.0000 O   0  0  0  0  0  0  0  0  0  0  0  0
    5.7198    0.0000    0.0000 O   0  0  0  0  0  0  0  0  0  0  0  0
    8.8526   -5.1034    0.0000 C   0  0  0  0  0  0  0  0  0  0  0  0
    6.8719   -1.9807    0.0000 O   0  0  0  0  0  0  0  0  0  0  0  0
    8.3069   -3.0216    0.0000 C   0  0  0  0  0  0  0  0  0  0  0  0
    1.1521   -3.9918    0.0000 C   0  0  0  0  0  0  0  0  0  0  0  0
    1.1521   -1.3036    0.0000 C   0  0  0  0  0  0  0  0  0  0  0  0
   10.1057   -4.6890    0.0000 C   0  0  0  0  0  0  0  0  0  0  0  0
    8.8526   -6.5283    0.0000 C   0  0  0  0  0  0  0  0  0  0  0  0
    0.0000   -1.9706    0.0000 C   0  0  0  0  0  0  0  0  0  0  0  0
    0.0000   -3.3349    0.0000 C   0  0  0  0  0  0  0  0  0  0  0  0
  1  2  2  0  0  0  0
  1  3  1  0  0  0  0
  1  4  1  0  0  0  0
  2  7  1  0  0  0  0
  3  6  1  0  0  0  0
  4  5  1  0  0  0  0
  4  8  2  0  0  0  0
  5  9  2  0  0  0  0
  5 10  1  0  0  0  0
  6 13  2  0  0  0  0
  6  7  1  0  0  0  0
  7 15  1  0  0  0  0
  7 17  1  0  0  0  0
  8 11  1  0  0  0  0
  9 12  1  0  0  0  0
 10 14  2  0  0  0  0
 10 16  1  0  0  0  0
 11 12  2  0  0  0  0
 11 18  1  0  0  0  0
 12 19  1  0  0  0  0
 15 20  1  0  0  0  0
 15 21  1  0  0  0  0
 18 23  2  0  0  0  0
 19 22  2  0  0  0  0
 22 23  1  0  0  0  0
M  END
> <ID>
3530

> <Formula>
C17H17N3O3

> <FW>
311.3352

> <DSSTox_CID>
4152

> <DSSTox_RID>
77306

> <DSSTox_GSID>
24152

> <DSSTox_FileID_Sort>
1989

> <TS_ChemName>
Imazaquin

> <TS_ChemName_Synonyms>


> <TS_CASRN>
81335-37-7

> <CASRN_ChemName_Relationship>
primary

> <TS_Description>
single chemical compound

> <ChemNote>
mixture of (R,S) isomers; structure shown without stereochem

> <STRUCTURE_Shown>
tested chemical

> <STRUCTURE_Formula>
C17H17N3O3

> <STRUCTURE_MW>
311.3352

> <STRUCTURE_ChemType>
defined organic

> <STRUCTURE_DefinedOrganicForm>
parent

> <STRUCTURE_IUPAC>
2-[4-methyl-5-oxo-4-(propan-2-yl)-4,5-dihydro-1H-imidazol-2-yl]quinoline-3-carboxylic acid

> <STRUCTURE_SMILES>
CC1(N=C(NC1=O)c2nc3ccccc3cc2C(=O)O)C(C)C

> <STRUCTURE_SMILES_Desalt>
CC1(N=C(NC1=O)c2nc3ccccc3cc2C(=O)O)C(C)C

> <Substance_modify_yyyymmdd>
20080429

$$$$
