814-80-2
ChemmineR-0915142007XD

 13 10  0  0  0  0  0  0  0  0  2 V2000
    2.3161   -1.3472    0.0000 C    0  0  0  0  0  0  0  0  0  0  0  0
    1.1534   -1.9931    0.0000 C    0  0  0  0  0  0  0  0  0  0  0  0
    3.4696   -1.9931    0.0000 O    0  5  0  0  0  0  0  0  0  0  0  0
    2.3161    0.0000    0.0000 O    0  0  0  0  0  0  0  0  0  0  0  0
    1.1534   -3.3219    0.0000 C    0  0  0  0  0  0  0  0  0  0  0  0
    0.0000   -1.3472    0.0000 O    0  0  0  0  0  0  0  0  0  0  0  0
    4.6045   -1.3472    0.0000 Ca   0  2  0  0  0  0  0  0  0  0  0  0
    5.7580   -1.9931    0.0000 O    0  5  0  0  0  0  0  0  0  0  0  0
    6.9114   -1.3472    0.0000 C    0  0  0  0  0  0  0  0  0  0  0  0
    8.0741   -1.9931    0.0000 C    0  0  0  0  0  0  0  0  0  0  0  0
    6.9114    0.0000    0.0000 O    0  0  0  0  0  0  0  0  0  0  0  0
    8.0741   -3.3219    0.0000 C    0  0  0  0  0  0  0  0  0  0  0  0
    9.2275   -1.3472    0.0000 O    0  0  0  0  0  0  0  0  0  0  0  0
  1  2  1  0  0  0  0
  1  3  1  0  0  0  0
  1  4  2  0  0  0  0
  2  5  1  0  0  0  0
  2  6  1  0  0  0  0
  8  9  1  0  0  0  0
  9 10  1  0  0  0  0
  9 11  2  0  0  0  0
 10 12  1  0  0  0  0
 10 13  1  0  0  0  0
M  END
> <ID>
232

> <Formula>
C6H10CaO6

> <FW>
218.2180 (89.0705+40.0769+89.0705)

> <DSSTox_CID>
236

> <DSSTox_RID>
75451

> <DSSTox_GSID>
20236

> <DSSTox_FileID_Sort>
135

> <TS_ChemName>
Calcium lactate

> <TS_ChemName_Synonyms>


> <TS_CASRN>
814-80-2

> <CASRN_ChemName_Relationship>
primary

> <TS_Description>
single chemical compound

> <ChemNote>
parent [50-21-5]

> <STRUCTURE_Shown>
tested chemical

> <STRUCTURE_Formula>
C6H10CaO6

> <STRUCTURE_MW>
218.218

> <STRUCTURE_ChemType>
defined organic

> <STRUCTURE_DefinedOrganicForm>
salt

> <STRUCTURE_IUPAC>
calcium bis(2-hydroxypropanoate)

> <STRUCTURE_SMILES>
[Ca+2].CC(O)C([O-])=O.[O-]C(=O)C(C)O

> <STRUCTURE_SMILES_Desalt>
O=C(O)C(C)O

> <Substance_modify_yyyymmdd>
20080429

$$$$
