81405-85-8
ChemmineR-0915142007XD

 21 22  0  0  0  0  0  0  0  0  1 V2000
    4.5821   -1.3115    0.0000 C   0  0  0  0  0  0  0  0  0  0  0  0
    4.5821    0.0000    0.0000 O   0  0  0  0  0  0  0  0  0  0  0  0
    3.4466   -1.9832    0.0000 C   0  0  0  0  0  0  0  0  0  0  0  0
    5.7336   -1.9832    0.0000 O   0  0  0  0  0  0  0  0  0  0  0  0
    3.4466   -3.2946    0.0000 C   0  0  0  0  0  0  0  0  0  0  0  0
    2.2951   -1.3115    0.0000 C   0  0  0  0  0  0  0  0  0  0  0  0
    2.2951   -3.9664    0.0000 C   0  0  0  0  0  0  0  0  0  0  0  0
    1.1515   -1.9832    0.0000 C   0  0  0  0  0  0  0  0  0  0  0  0
    1.1515   -3.2946    0.0000 C   0  0  0  0  0  0  0  0  0  0  0  0
    4.7261   -5.2778    0.0000 N   0  0  0  0  0  0  0  0  0  0  0  0
    5.8056   -3.4306    0.0000 N   0  0  0  0  0  0  0  0  0  0  0  0
    4.5821   -3.9664    0.0000 C   0  0  0  0  0  0  0  0  0  0  0  0
    6.0295   -5.5577    0.0000 C   0  0  0  0  0  0  0  0  0  0  0  0
    6.6773   -4.3982    0.0000 C   0  0  0  0  0  0  0  0  0  0  0  0
    7.4609   -5.7656    0.0000 C   0  0  0  0  0  0  0  0  0  0  0  0
    5.8856   -6.8692    0.0000 C   0  0  0  0  0  0  0  0  0  0  0  0
    4.6781   -7.4130    0.0000 C   0  0  0  0  0  0  0  0  0  0  0  0
    6.9571   -7.6529    0.0000 C   0  0  0  0  0  0  0  0  0  0  0  0
    7.9967   -4.2702    0.0000 O   0  0  0  0  0  0  0  0  0  0  0  0
    0.0000   -3.9664    0.0000 C   0  0  0  0  0  0  0  0  0  0  0  0
    6.8932   -1.3115    0.0000 C   0  0  0  0  0  0  0  0  0  0  0  0
  1  2  2  0  0  0  0
  1  3  1  0  0  0  0
  1  4  1  0  0  0  0
  3  5  2  0  0  0  0
  3  6  1  0  0  0  0
  4 21  1  0  0  0  0
  5  7  1  0  0  0  0
  5 12  1  0  0  0  0
  6  8  2  0  0  0  0
  7  9  2  0  0  0  0
  8  9  1  0  0  0  0
  9 20  1  0  0  0  0
 10 12  1  0  0  0  0
 10 13  1  0  0  0  0
 11 12  2  0  0  0  0
 11 14  1  0  0  0  0
 13 14  1  0  0  0  0
 13 15  1  0  0  0  0
 13 16  1  0  0  0  0
 14 19  2  0  0  0  0
 16 17  1  0  0  0  0
 16 18  1  0  0  0  0
M  END
> <ID>
6454

> <Formula>
C16H20N2O3

> <FW>
288.3416

> <DSSTox_CID>
12412

> <DSSTox_RID>
78941

> <DSSTox_GSID>
32412

> <DSSTox_FileID_Sort>
3623

> <TS_ChemName>
Imazmethabenz

> <TS_ChemName_Synonyms>
Imazethabenz

> <TS_CASRN>
81405-85-8

> <CASRN_ChemName_Relationship>
primary

> <TS_Description>
mixture or formulation

> <ChemNote>
mixture of (R,S) and 4-,5- methylbenzoate; structure shown 4- without stereochem; tautomers

> <STRUCTURE_Shown>
representative component

> <STRUCTURE_Formula>
C16H20N2O3

> <STRUCTURE_MW>
288.3416

> <STRUCTURE_ChemType>
defined organic

> <STRUCTURE_DefinedOrganicForm>
parent

> <STRUCTURE_IUPAC>
methyl 4-methyl-2-[5-methyl-4-oxo-5-(propan-2-yl)-4,5-dihydro-1H-imidazol-2-yl]benzoate

> <STRUCTURE_SMILES>
O=C1N=C(NC1(C)C(C)C)c2cc(C)ccc2C(=O)OC

> <STRUCTURE_SMILES_Desalt>
O=C1N=C(NC1(C)C(C)C)c2cc(C)ccc2C(=O)OC

> <Substance_modify_yyyymmdd>
20080429

$$$$
