81403-68-1
ChemmineR-0915142007XD

 29 30  0  0  0  0  0  0  0  0  1 V2000
    6.8995   -3.6876    0.0000 N    0  0  0  0  0  0  0  0  0  0  0  0
    6.8995   -2.4131    0.0000 C    0  0  0  0  0  0  0  0  0  0  0  0
    4.6053   -3.6876    0.0000 C    0  0  0  0  0  0  0  0  0  0  0  0
    5.7439   -4.3674    0.0000 C    0  0  0  0  0  0  0  0  0  0  0  0
    5.7439   -1.7334    0.0000 N    0  0  0  0  0  0  0  0  0  0  0  0
    4.6053   -2.4131    0.0000 C    0  0  0  0  0  0  0  0  0  0  0  0
    3.4837   -4.3674    0.0000 C    0  0  0  0  0  0  0  0  0  0  0  0
    3.4837   -1.7334    0.0000 C    0  0  0  0  0  0  0  0  0  0  0  0
   13.7479   -2.4131    0.0000 C    0  0  0  0  0  0  0  0  0  0  0  0
    2.3111   -3.6876    0.0000 C    0  0  0  0  0  0  0  0  0  0  0  0
    2.3111   -2.4131    0.0000 C    0  0  0  0  0  0  0  0  0  0  0  0
    8.0550   -1.7334    0.0000 N    0  0  0  0  0  0  0  0  0  0  0  0
   14.9375   -1.7334    0.0000 C    0  0  0  0  0  0  0  0  0  0  0  0
   13.7479   -3.6876    0.0000 O    0  0  0  0  0  0  0  0  0  0  0  0
   14.9375   -0.4248    0.0000 O    0  0  0  0  0  0  0  0  0  0  0  0
    5.7439   -5.7099    0.0000 N    0  0  0  0  0  0  0  0  0  0  0  0
   12.5924   -1.7334    0.0000 N    0  0  0  0  0  0  0  0  0  0  0  0
    1.1896   -4.3674    0.0000 O    0  0  0  0  0  0  0  0  0  0  0  0
    1.1896   -1.7334    0.0000 O    0  0  0  0  0  0  0  0  0  0  0  0
   10.2982   -1.7334    0.0000 C    0  0  0  0  0  0  0  0  0  0  0  0
    9.1596   -2.4131    0.0000 C    0  0  0  0  0  0  0  0  0  0  0  0
   11.4368   -2.4131    0.0000 C    0  0  0  0  0  0  0  0  0  0  0  0
    8.0550   -0.2379    0.0000 C    0  0  0  0  0  0  0  0  0  0  0  0
   16.1780    0.0000    0.0000 C    0  0  0  0  0  0  0  0  0  0  0  0
   16.2120   -2.1752    0.0000 C    0  0  0  0  0  0  0  0  0  0  0  0
    1.1896   -5.7099    0.0000 C    0  0  0  0  0  0  0  0  0  0  0  0
    0.0000   -2.3111    0.0000 C    0  0  0  0  0  0  0  0  0  0  0  0
   16.9937   -1.0876    0.0000 C    0  0  0  0  0  0  0  0  0  0  0  0
   10.1792   -3.9425    0.0000 Cl   0  0  0  0  0  0  0  0  0  0  0  0
  1  2  1  0  0  0  0
  1  4  2  0  0  0  0
  2  5  2  0  0  0  0
  2 12  1  0  0  0  0
  3  4  1  0  0  0  0
  3  6  2  0  0  0  0
  3  7  1  0  0  0  0
  4 16  1  0  0  0  0
  5  6  1  0  0  0  0
  6  8  1  0  0  0  0
  7 10  2  0  0  0  0
  8 11  2  0  0  0  0
  9 17  1  0  0  0  0
  9 13  1  0  0  0  0
  9 14  2  0  0  0  0
 10 11  1  0  0  0  0
 10 18  1  0  0  0  0
 11 19  1  0  0  0  0
 12 21  1  0  0  0  0
 12 23  1  0  0  0  0
 13 15  1  0  0  0  0
 13 25  1  0  0  0  0
 15 24  1  0  0  0  0
 17 22  1  0  0  0  0
 18 26  1  0  0  0  0
 19 27  1  0  0  0  0
 20 21  1  0  0  0  0
 20 22  1  0  0  0  0
 24 28  1  0  0  0  0
 25 28  1  0  0  0  0
M  END
> <ID>
10992

> <Formula>
C19H28ClN5O4

> <FW>
425.9097 (389.4488+36.4609)

> <DSSTox_CID>
25514

> <DSSTox_RID>
80924

> <DSSTox_GSID>
45514

> <DSSTox_FileID_Sort>
5605

> <TS_ChemName>
Alfuzosin hydrochloride

> <TS_ChemName_Synonyms>


> <TS_CASRN>
81403-68-1

> <CASRN_ChemName_Relationship>
primary

> <TS_Description>
single chemical compound

> <ChemNote>
parent [81403-80-7]

> <STRUCTURE_Shown>
tested chemical

> <STRUCTURE_Formula>
C19H28ClN5O4

> <STRUCTURE_MW>
425.9097

> <STRUCTURE_ChemType>
defined organic

> <STRUCTURE_DefinedOrganicForm>
complex

> <STRUCTURE_IUPAC>
N-{3-[(4-amino-6,7-dimethoxyquinazolin-2-yl)(methyl)amino]propyl}tetrahydrofuran-2-carboxamide hydrochloride (1:1)

> <STRUCTURE_SMILES>
Cl.O=C(NCCCN(C)c2nc1cc(OC)c(OC)cc1c(N)n2)C3CCCO3

> <STRUCTURE_SMILES_Desalt>
O=C(NCCCN(C)c2nc1cc(OC)c(OC)cc1c(N)n2)C3CCCO3

> <Substance_modify_yyyymmdd>
20100107

$$$$
