81406-37-3
ChemmineR-0915142007XD

 23 23  0  0  0  0  0  0  0  0  1 V2000
    3.4765   -2.0051    0.0000 C    0  0  0  0  0  0  0  0  0  0  0  0
    3.4765   -3.3472    0.0000 C    0  0  0  0  0  0  0  0  0  0  0  0
    2.3123   -1.3421    0.0000 N    0  0  0  0  0  0  0  0  0  0  0  0
    2.3123   -4.0101    0.0000 C    0  0  0  0  0  0  0  0  0  0  0  0
    1.1481   -2.0051    0.0000 C    0  0  0  0  0  0  0  0  0  0  0  0
    1.1481   -3.3472    0.0000 C    0  0  0  0  0  0  0  0  0  0  0  0
    0.0000   -1.3421    0.0000 F    0  0  0  0  0  0  0  0  0  0  0  0
    0.0000   -4.0101    0.0000 Cl   0  0  0  0  0  0  0  0  0  0  0  0
    2.3123   -5.3361    0.0000 N    0  0  0  0  0  0  0  0  0  0  0  0
    4.6246   -4.0101    0.0000 Cl   0  0  0  0  0  0  0  0  0  0  0  0
    4.6246   -1.3421    0.0000 O    0  0  0  0  0  0  0  0  0  0  0  0
    5.7727   -1.9889    0.0000 C    0  0  0  0  0  0  0  0  0  0  0  0
    6.9369   -1.3421    0.0000 C    0  0  0  0  0  0  0  0  0  0  0  0
    8.0850   -1.9889    0.0000 O    0  0  0  0  0  0  0  0  0  0  0  0
    6.9369    0.0000    0.0000 O    0  0  0  0  0  0  0  0  0  0  0  0
    9.2330   -1.3421    0.0000 C    0  0  0  0  0  0  0  0  0  0  0  0
   10.3972   -1.9889    0.0000 C    0  0  0  0  0  0  0  0  0  0  0  0
    9.2330    0.0000    0.0000 C    0  0  0  0  0  0  0  0  0  0  0  0
   11.5453   -1.3421    0.0000 C    0  0  0  0  0  0  0  0  0  0  0  0
   12.7095   -1.9889    0.0000 C    0  0  0  0  0  0  0  0  0  0  0  0
   13.8576   -1.3421    0.0000 C    0  0  0  0  0  0  0  0  0  0  0  0
   15.0218   -1.9889    0.0000 C    0  0  0  0  0  0  0  0  0  0  0  0
   16.1699   -1.3421    0.0000 C    0  0  0  0  0  0  0  0  0  0  0  0
  1  2  1  0  0  0  0
  1  3  2  0  0  0  0
  1 11  1  0  0  0  0
  2  4  2  0  0  0  0
  2 10  1  0  0  0  0
  3  5  1  0  0  0  0
  4  6  1  0  0  0  0
  4  9  1  0  0  0  0
  5  6  2  0  0  0  0
  5  7  1  0  0  0  0
  6  8  1  0  0  0  0
 11 12  1  0  0  0  0
 12 13  1  0  0  0  0
 13 14  1  0  0  0  0
 13 15  2  0  0  0  0
 14 16  1  0  0  0  0
 16 17  1  0  0  0  0
 16 18  1  0  0  0  0
 17 19  1  0  0  0  0
 19 20  1  0  0  0  0
 20 21  1  0  0  0  0
 21 22  1  0  0  0  0
 22 23  1  0  0  0  0
M  END
> <ID>
6728

> <Formula>
C15H21Cl2FN2O3

> <FW>
367.2432

> <DSSTox_CID>
14303

> <DSSTox_RID>
79141

> <DSSTox_GSID>
34303

> <DSSTox_FileID_Sort>
3823

> <TS_ChemName>
Fluroxypyr-meptyl

> <TS_ChemName_Synonyms>
Fluroxypyr-meptyl (Acetic acid, ((4-amino-3,5-dichloro-6-fluoro-2-pyridinyl)oxy)-, 1-methylheptyl ester) (Fluroxypyr 1-methylheptyl ester)

> <TS_CASRN>
81406-37-3

> <CASRN_ChemName_Relationship>
primary

> <TS_Description>
single chemical compound

> <ChemNote>


> <STRUCTURE_Shown>
tested chemical

> <STRUCTURE_Formula>
C15H21Cl2FN2O3

> <STRUCTURE_MW>
367.2432

> <STRUCTURE_ChemType>
defined organic

> <STRUCTURE_DefinedOrganicForm>
parent

> <STRUCTURE_IUPAC>
octan-2-yl [(4-amino-3,5-dichloro-6-fluoropyridin-2-yl)oxy]acetate

> <STRUCTURE_SMILES>
CC(CCCCCC)OC(=O)COc1nc(F)c(Cl)c(N)c1Cl

> <STRUCTURE_SMILES_Desalt>
CC(CCCCCC)OC(=O)COc1nc(F)c(Cl)c(N)c1Cl

> <Substance_modify_yyyymmdd>
20080429

$$$$
