81496-81-3
ChemmineR-0915142007XD

 23 26  0  0  1  0  0  0  0  0  1 V2000
    6.1998   -4.5632    0.0000 H   0  0  0  0  0  0  0  0  0  0  0  0
    2.4106   -1.6587    0.0000 O   0  0  0  0  0  0  0  0  0  0  0  0
    0.0000   -1.4449    0.0000 C   0  0  0  0  0  0  0  0  0  0  0  0
    5.0792   -2.5654    0.0000 H   0  0  0  0  0  0  0  0  0  0  0  0
    3.6491   -4.4674    0.0000 H   0  0  0  0  0  0  0  0  0  0  0  0
    5.3520    0.0000    0.0000 C   0  0  0  0  0  0  0  0  0  0  0  0
    5.1309   -1.3564    0.0000 C   0  0  0  0  0  0  0  0  0  0  0  0
    6.3251   -2.0420    0.0000 C   0  0  0  0  0  0  0  0  0  0  0  0
    6.2882   -3.3837    0.0000 C   0  0  0  0  0  0  0  0  0  0  0  0
    5.1087   -4.0398    0.0000 C   0  0  0  0  0  0  0  0  0  0  0  0
    5.1014   -5.4036    0.0000 C   0  0  0  0  0  0  0  0  0  0  0  0
    6.2588   -6.0966    0.0000 C   0  0  0  0  0  0  0  0  0  0  0  0
    3.8850   -5.9934    0.0000 C   0  0  0  0  0  0  0  0  0  0  0  0
    3.8629   -7.3719    0.0000 O   0  0  0  0  0  0  0  0  0  0  0  0
    2.7055   -5.3151    0.0000 O   0  0  0  0  0  0  0  0  0  0  0  0
    2.6318   -3.9661    0.0000 C   0  0  0  0  0  0  0  0  0  0  0  0
    1.4228   -3.3321    0.0000 O   0  0  0  0  0  0  0  0  0  0  0  0
    1.0837   -1.9757    0.0000 C   0  0  0  0  0  0  0  0  0  0  0  0
    1.8798   -0.7888    0.0000 C   0  0  0  0  0  0  0  0  0  0  0  0
    3.2510   -0.7519    0.0000 C   0  0  0  0  0  0  0  0  0  0  0  0
    4.0398   -1.9757    0.0000 C   0  0  0  0  0  0  0  0  0  0  0  0
    3.9292   -3.4058    0.0000 C   0  0  0  0  0  0  0  0  0  0  0  0
    3.4058   -2.2927    0.0000 O   0  0  0  0  0  0  0  0  0  0  0  0
  1 10  1  0  0  0  0
 18  2  1  6  0  0  0
  2 23  1  0  0  0  0
 18  3  1  1  0  0  0
 21  4  1  6  0  0  0
 16  5  1  1  0  0  0
  7  6  1  6  0  0  0
  7  8  1  0  0  0  0
  7 21  1  0  0  0  0
  8  9  1  0  0  0  0
  9 10  1  0  0  0  0
 10 11  1  0  0  0  0
 10 22  1  0  0  0  0
 11 12  1  1  0  0  0
 11 13  1  0  0  0  0
 13 14  1  1  0  0  0
 13 15  1  0  0  0  0
 15 16  1  0  0  0  0
 16 17  1  0  0  0  0
 16 22  1  0  0  0  0
 17 18  1  0  0  0  0
 18 19  1  0  0  0  0
 19 20  1  0  0  0  0
 20 21  1  0  0  0  0
 21 22  1  0  0  0  0
 22 23  1  6  0  0  0
M  END
> <ID>
11326

> <Formula>
C15H24O5

> <FW>
284.3481

> <DSSTox_CID>
25962

> <DSSTox_RID>
81258

> <DSSTox_GSID>
45962

> <DSSTox_FileID_Sort>
5939

> <TS_ChemName>
Artenimol

> <TS_ChemName_Synonyms>


> <TS_CASRN>
81496-81-3

> <CASRN_ChemName_Relationship>
primary

> <TS_Description>
single chemical compound

> <ChemNote>
stereochem

> <STRUCTURE_Shown>
tested chemical

> <STRUCTURE_Formula>
C15H24O5

> <STRUCTURE_MW>
284.3481

> <STRUCTURE_ChemType>
defined organic

> <STRUCTURE_DefinedOrganicForm>
parent

> <STRUCTURE_IUPAC>
(5aS,6R,9R,10S,12R,12aR)-3,6,9-trimethyldecahydro-3,12-epoxy[1,2]dioxepino[4,3-i]isochromen-10-ol

> <STRUCTURE_SMILES>
C[C@]12O[C@H]4O[C@H](O)[C@H](C)C3CC[C@@H](C)[C@H](CC1)[C@@]34OO2

> <STRUCTURE_SMILES_Desalt>
C[C@]12O[C@H]4O[C@H](O)[C@H](C)C3CC[C@@H](C)[C@H](CC1)[C@@]34OO2

> <Substance_modify_yyyymmdd>
20110930

$$$$
