81632-85-1
ChemmineR-0915142007XD

 14 13  0  0  0  0  0  0  0  0  2 V2000
    8.1202   -4.6447    0.0000 C    0  0  0  0  0  0  0  0  0  0  0  0
    6.9671   -3.9870    0.0000 C    0  0  0  0  0  0  0  0  0  0  0  0
    5.8140   -4.6447    0.0000 C    0  0  0  0  0  0  0  0  0  0  0  0
    4.6610   -3.9870    0.0000 C    0  0  0  0  0  0  0  0  0  0  0  0
    4.6610   -2.6553    0.0000 C    0  0  0  0  0  0  0  0  0  0  0  0
    5.8140   -1.9894    0.0000 C    0  0  0  0  0  0  0  0  0  0  0  0
    6.9671   -2.6553    0.0000 C    0  0  0  0  0  0  0  0  0  0  0  0
    8.1202   -1.9894    0.0000 C    0  0  0  0  0  0  0  0  0  0  0  0
    3.5079   -1.9894    0.0000 C    0  0  0  0  0  0  0  0  0  0  0  0
    2.3548   -2.6553    0.0000 O    0  0  0  0  0  0  0  0  0  0  0  0
    3.5079   -0.6577    0.0000 C    0  0  0  0  0  0  0  0  0  0  0  0
    2.3548    0.0000    0.0000 O    0  5  0  0  0  0  0  0  0  0  0  0
    4.6610    0.0000    0.0000 O    0  0  0  0  0  0  0  0  0  0  0  0
    0.0000   -0.2274    0.0000 Na   0  3  0  0  0  0  0  0  0  0  0  0
  1  2  1  0  0  0  0
  2  3  2  0  0  0  0
  2  7  1  0  0  0  0
  3  4  1  0  0  0  0
  4  5  2  0  0  0  0
  5  6  1  0  0  0  0
  5  9  1  0  0  0  0
  6  7  2  0  0  0  0
  7  8  1  0  0  0  0
  9 10  2  0  0  0  0
  9 11  1  0  0  0  0
 11 12  1  0  0  0  0
 11 13  2  0  0  0  0
M  END
> <ID>
16235

> <Formula>
C10H9NaO3

> <FW>
200.1664 (177.1772+22.9892)

> <DSSTox_CID>
31626

> <DSSTox_RID>
97510

> <DSSTox_GSID>
57837

> <DSSTox_FileID_Sort>
8577

> <TS_ChemName>
Sodium 3, 4-dimethylphenyl-glyoxylate

> <TS_ChemName_Synonyms>


> <TS_CASRN>
81632-85-1

> <CASRN_ChemName_Relationship>
primary

> <TS_Description>
single chemical compound

> <ChemNote>


> <STRUCTURE_Shown>
tested chemical

> <STRUCTURE_Formula>
C10H9NaO3

> <STRUCTURE_MW>
200.1664

> <STRUCTURE_ChemType>
defined organic

> <STRUCTURE_DefinedOrganicForm>
salt

> <STRUCTURE_IUPAC>
sodium (3,4-dimethylphenyl)(oxo)acetate

> <STRUCTURE_SMILES>
[Na+].Cc1ccc(cc1C)C(=O)C([O-])=O

> <STRUCTURE_SMILES_Desalt>
Cc1ccc(cc1C)C(=O)C(O)=O

> <Substance_modify_yyyymmdd>
20131018

$$$$
