81732-46-9
ChemmineR-0915142007XD

 27 26  0  0  0  0  0  0  0  0  1 V2000
    1.1644   -2.0175    0.0000 C    0  0  0  0  0  0  0  0  0  0  0  0
    5.7758   -5.9948    0.0000 C    0  0  0  0  0  0  0  0  0  0  0  0
    2.3172   -1.3488    0.0000 O    0  0  0  0  0  0  0  0  0  0  0  0
    4.6345   -5.3492    0.0000 O    0  0  0  0  0  0  0  0  0  0  0  0
    5.7758   -2.0175    0.0000 C    0  0  0  0  0  0  0  0  0  0  0  0
    3.5047   -2.0175    0.0000 C    0  0  0  0  0  0  0  0  0  0  0  0
    4.6345   -4.0119    0.0000 C    0  0  0  0  0  0  0  0  0  0  0  0
    1.1644   -3.3318    0.0000 N    0  0  0  0  0  0  0  0  0  0  0  0
    6.9287   -5.3492    0.0000 N    0  0  0  0  0  0  0  0  0  0  0  0
    3.5047   -3.3663    0.0000 C    0  0  0  0  0  0  0  0  0  0  0  0
    4.6345   -1.3604    0.0000 C    0  0  0  0  0  0  0  0  0  0  0  0
    5.7758   -3.3663    0.0000 C    0  0  0  0  0  0  0  0  0  0  0  0
    0.0000   -1.3488    0.0000 O    0  0  0  0  0  0  0  0  0  0  0  0
    5.7758   -7.3322    0.0000 O    0  0  0  0  0  0  0  0  0  0  0  0
    9.2228   -1.3027    0.0000 N    0  0  0  0  0  0  0  0  0  0  0  0
    6.9517   -1.3488    0.0000 C    0  0  0  0  0  0  0  0  0  0  0  0
   10.3642   -1.9829    0.0000 C    0  0  0  0  0  0  0  0  0  0  0  0
    8.0930   -1.9944    0.0000 C    0  0  0  0  0  0  0  0  0  0  0  0
    6.9517    0.0000    0.0000 O    0  0  0  0  0  0  0  0  0  0  0  0
    2.2827   -4.0119    0.0000 C    0  0  0  0  0  0  0  0  0  0  0  0
    8.0700   -5.9948    0.0000 C    0  0  0  0  0  0  0  0  0  0  0  0
    0.0000   -4.0119    0.0000 C    0  0  0  0  0  0  0  0  0  0  0  0
    6.9287   -4.0119    0.0000 C    0  0  0  0  0  0  0  0  0  0  0  0
    9.7070   -3.1127    0.0000 C    0  0  0  0  0  0  0  0  0  0  0  0
   11.0559   -0.8070    0.0000 C    0  0  0  0  0  0  0  0  0  0  0  0
   11.5285   -2.6516    0.0000 C    0  0  0  0  0  0  0  0  0  0  0  0
    1.7523   -5.6490    0.0000 Cl   0  0  0  0  0  0  0  0  0  0  0  0
  1  3  1  0  0  0  0
  1  8  1  0  0  0  0
  1 13  2  0  0  0  0
  2  4  1  0  0  0  0
  2  9  1  0  0  0  0
  2 14  2  0  0  0  0
  3  6  1  0  0  0  0
  4  7  1  0  0  0  0
  5 11  1  0  0  0  0
  5 12  2  0  0  0  0
  5 16  1  0  0  0  0
  6 10  1  0  0  0  0
  6 11  2  0  0  0  0
  7 10  2  0  0  0  0
  7 12  1  0  0  0  0
  8 20  1  0  0  0  0
  8 22  1  0  0  0  0
  9 21  1  0  0  0  0
  9 23  1  0  0  0  0
 15 18  1  0  0  0  0
 15 17  1  0  0  0  0
 16 18  1  0  0  0  0
 16 19  1  0  0  0  0
 17 24  1  0  0  0  0
 17 25  1  0  0  0  0
 17 26  1  0  0  0  0
M  END
> <ID>
10993

> <Formula>
C18H30ClN3O5

> <FW>
403.9009 (367.4400+36.4609)

> <DSSTox_CID>
25515

> <DSSTox_RID>
80925

> <DSSTox_GSID>
45515

> <DSSTox_FileID_Sort>
5606

> <TS_ChemName>
Bambuterol hydrochloride

> <TS_ChemName_Synonyms>


> <TS_CASRN>
81732-46-9

> <CASRN_ChemName_Relationship>
primary

> <TS_Description>
single chemical compound

> <ChemNote>
parent [81732-65-2]

> <STRUCTURE_Shown>
tested chemical

> <STRUCTURE_Formula>
C18H30ClN3O5

> <STRUCTURE_MW>
403.9009

> <STRUCTURE_ChemType>
defined organic

> <STRUCTURE_DefinedOrganicForm>
complex

> <STRUCTURE_IUPAC>
5-[2-(tert-butylamino)-1-hydroxyethyl]benzene-1,3-diyl bis(dimethylcarbamate) hydrochloride (1:1)

> <STRUCTURE_SMILES>
Cl.O=C(Oc1cc(cc(c1)OC(=O)N(C)C)C(O)CNC(C)(C)C)N(C)C

> <STRUCTURE_SMILES_Desalt>
O=C(Oc1cc(cc(c1)OC(=O)N(C)C)C(O)CNC(C)(C)C)N(C)C

> <Substance_modify_yyyymmdd>
20100107

$$$$
