81741-28-8
ChemmineR-0915142007XD

 28 26  0  0  0  0  0  0  0  0  2 V2000
   13.9780   -4.5920    0.0000 P    0  3  0  0  0  0  0  0  0  0  0  0
   14.6340   -3.4482    0.0000 C    0  0  0  0  0  0  0  0  0  0  0  0
   13.9780   -2.2876    0.0000 C    0  0  0  0  0  0  0  0  0  0  0  0
   14.6340   -1.1606    0.0000 C    0  0  0  0  0  0  0  0  0  0  0  0
   13.9780    0.0000    0.0000 C    0  0  0  0  0  0  0  0  0  0  0  0
   12.8341   -3.9360    0.0000 C    0  0  0  0  0  0  0  0  0  0  0  0
   12.8341   -2.6072    0.0000 C    0  0  0  0  0  0  0  0  0  0  0  0
   11.6735   -1.9344    0.0000 C    0  0  0  0  0  0  0  0  0  0  0  0
   11.6735   -0.6055    0.0000 C    0  0  0  0  0  0  0  0  0  0  0  0
   15.1386   -5.2817    0.0000 C    0  0  0  0  0  0  0  0  0  0  0  0
   15.1386   -6.6105    0.0000 C    0  0  0  0  0  0  0  0  0  0  0  0
   16.2992   -7.2665    0.0000 C    0  0  0  0  0  0  0  0  0  0  0  0
   16.2992   -8.5953    0.0000 C    0  0  0  0  0  0  0  0  0  0  0  0
   13.3051   -5.7527    0.0000 C    0  0  0  0  0  0  0  0  0  0  0  0
   11.9763   -5.7527    0.0000 C    0  0  0  0  0  0  0  0  0  0  0  0
   11.3203   -6.9133    0.0000 C    0  0  0  0  0  0  0  0  0  0  0  0
    9.9915   -6.9133    0.0000 C    0  0  0  0  0  0  0  0  0  0  0  0
    9.3186   -8.0571    0.0000 C    0  0  0  0  0  0  0  0  0  0  0  0
    7.9898   -8.0571    0.0000 C    0  0  0  0  0  0  0  0  0  0  0  0
    7.3338   -9.2177    0.0000 C    0  0  0  0  0  0  0  0  0  0  0  0
    6.0050   -9.2177    0.0000 C    0  0  0  0  0  0  0  0  0  0  0  0
    5.3153  -10.3783    0.0000 C    0  0  0  0  0  0  0  0  0  0  0  0
    3.9865  -10.3783    0.0000 C    0  0  0  0  0  0  0  0  0  0  0  0
    3.3305  -11.5053    0.0000 C    0  0  0  0  0  0  0  0  0  0  0  0
    2.0017  -11.5053    0.0000 C    0  0  0  0  0  0  0  0  0  0  0  0
    1.3288  -12.6659    0.0000 C    0  0  0  0  0  0  0  0  0  0  0  0
    0.0000  -12.6659    0.0000 C    0  0  0  0  0  0  0  0  0  0  0  0
   16.8206   -4.3734    0.0000 Cl   0  5  0  0  0  0  0  0  0  0  0  0
  1  2  1  0  0  0  0
  1  6  1  0  0  0  0
  1 10  1  0  0  0  0
  1 14  1  0  0  0  0
  2  3  1  0  0  0  0
  3  4  1  0  0  0  0
  4  5  1  0  0  0  0
  6  7  1  0  0  0  0
  7  8  1  0  0  0  0
  8  9  1  0  0  0  0
 10 11  1  0  0  0  0
 11 12  1  0  0  0  0
 12 13  1  0  0  0  0
 14 15  1  0  0  0  0
 15 16  1  0  0  0  0
 16 17  1  0  0  0  0
 17 18  1  0  0  0  0
 18 19  1  0  0  0  0
 19 20  1  0  0  0  0
 20 21  1  0  0  0  0
 21 22  1  0  0  0  0
 22 23  1  0  0  0  0
 23 24  1  0  0  0  0
 24 25  1  0  0  0  0
 25 26  1  0  0  0  0
 26 27  1  0  0  0  0
M  END
> <ID>
6975

> <Formula>
C26H56ClP

> <FW>
435.1496 (399.6961+35.4535)

> <DSSTox_CID>
14997

> <DSSTox_RID>
79234

> <DSSTox_GSID>
34997

> <DSSTox_FileID_Sort>
3916

> <TS_ChemName>
Tributyltetradecylphosphonium chloride

> <TS_ChemName_Synonyms>
Tri-n-butyl tetradecyl phosphonium chloride

> <TS_CASRN>
81741-28-8

> <CASRN_ChemName_Relationship>
primary

> <TS_Description>
single chemical compound

> <ChemNote>
phosphonium; parent [91582-83-1]

> <STRUCTURE_Shown>
tested chemical

> <STRUCTURE_Formula>
C26H56ClP

> <STRUCTURE_MW>
435.1496

> <STRUCTURE_ChemType>
defined organic

> <STRUCTURE_DefinedOrganicForm>
salt

> <STRUCTURE_IUPAC>
tributyl(tetradecyl)phosphonium chloride

> <STRUCTURE_SMILES>
[Cl-].CCCC[P+](CCCC)(CCCC)CCCCCCCCCCCCCC

> <STRUCTURE_SMILES_Desalt>
CCCC[P+](CCCC)(CCCC)CCCCCCCCCCCCCC

> <Substance_modify_yyyymmdd>
20080429

$$$$
