818-61-1
ChemmineR-0915142007XD

  8  7  0  0  0  0  0  0  0  0  1 V2000
    0.0000    0.0000    0.0000 C   0  0  0  0  0  0  0  0  0  0  0  0
    0.6642   -1.1549    0.0000 C   0  0  0  0  0  0  0  0  0  0  0  0
    1.9926   -1.1549    0.0000 C   0  0  0  0  0  0  0  0  0  0  0  0
    2.6569    0.0000    0.0000 O   0  0  0  0  0  0  0  0  0  0  0  0
    2.6569   -2.3038    0.0000 O   0  0  0  0  0  0  0  0  0  0  0  0
    3.9913   -2.3038    0.0000 C   0  0  0  0  0  0  0  0  0  0  0  0
    4.6555   -1.1549    0.0000 C   0  0  0  0  0  0  0  0  0  0  0  0
    5.9839   -1.1549    0.0000 O   0  0  0  0  0  0  0  0  0  0  0  0
  1  2  2  0  0  0  0
  2  3  1  0  0  0  0
  3  4  2  0  0  0  0
  3  5  1  0  0  0  0
  5  6  1  0  0  0  0
  6  7  1  0  0  0  0
  7  8  1  0  0  0  0
M  END
> <ID>
1964

> <Formula>
C5H8O3

> <FW>
116.1152

> <DSSTox_CID>
2123

> <DSSTox_RID>
76496

> <DSSTox_GSID>
22123

> <DSSTox_FileID_Sort>
1180

> <TS_ChemName>
2-Hydroxyethyl acrylate

> <TS_ChemName_Synonyms>
2-Hydroxyethyl acrylate (2-propenoic acid, 2-hydroxyethyl ester)

> <TS_CASRN>
818-61-1

> <CASRN_ChemName_Relationship>
primary

> <TS_Description>
single chemical compound

> <ChemNote>


> <STRUCTURE_Shown>
tested chemical

> <STRUCTURE_Formula>
C5H8O3

> <STRUCTURE_MW>
116.1152

> <STRUCTURE_ChemType>
defined organic

> <STRUCTURE_DefinedOrganicForm>
parent

> <STRUCTURE_IUPAC>
2-hydroxyethyl prop-2-enoate

> <STRUCTURE_SMILES>
C=CC(=O)OCCO

> <STRUCTURE_SMILES_Desalt>
C=CC(=O)OCCO

> <Substance_modify_yyyymmdd>
20080429

$$$$
