81801-12-9
ChemmineR-0915142007XD

 24 25  0  0  0  0  0  0  0  0  1 V2000
   13.7754   -1.3414    0.0000 C   0  0  0  0  0  0  0  0  0  0  0  0
   14.9104   -2.0121    0.0000 N   0  0  0  0  0  0  0  0  0  0  0  0
   13.7754    0.0000    0.0000 O   0  0  0  0  0  0  0  0  0  0  0  0
   12.6403   -2.0121    0.0000 N   0  0  0  0  0  0  0  0  0  0  0  0
   17.1977   -3.3364    0.0000 O   0  0  0  0  0  0  0  0  0  0  0  0
    4.6262   -1.3414    0.0000 O   0  0  0  0  0  0  0  0  0  0  0  0
    3.4567   -2.0465    0.0000 C   0  0  0  0  0  0  0  0  0  0  0  0
    6.9479   -1.3414    0.0000 C   0  0  0  0  0  0  0  0  0  0  0  0
    1.1522   -3.3536    0.0000 C   0  0  0  0  0  0  0  0  0  0  0  0
    5.7956   -2.0293    0.0000 C   0  0  0  0  0  0  0  0  0  0  0  0
    9.2180   -1.3414    0.0000 N   0  0  0  0  0  0  0  0  0  0  0  0
    3.4567   -3.3536    0.0000 C   0  0  0  0  0  0  0  0  0  0  0  0
    2.3217   -1.3758    0.0000 C   0  0  0  0  0  0  0  0  0  0  0  0
    2.3217   -4.0415    0.0000 C   0  0  0  0  0  0  0  0  0  0  0  0
    1.1522   -2.0465    0.0000 C   0  0  0  0  0  0  0  0  0  0  0  0
   16.0627   -1.3414    0.0000 C   0  0  0  0  0  0  0  0  0  0  0  0
   14.9104   -3.3364    0.0000 C   0  0  0  0  0  0  0  0  0  0  0  0
    6.9479    0.0000    0.0000 O   0  0  0  0  0  0  0  0  0  0  0  0
    0.0000   -4.0759    0.0000 O   0  0  0  0  0  0  0  0  0  0  0  0
    8.1001   -2.0121    0.0000 C   0  0  0  0  0  0  0  0  0  0  0  0
   17.1977   -2.0121    0.0000 C   0  0  0  0  0  0  0  0  0  0  0  0
   16.0627   -3.9899    0.0000 C   0  0  0  0  0  0  0  0  0  0  0  0
   11.5053   -1.3414    0.0000 C   0  0  0  0  0  0  0  0  0  0  0  0
   10.3874   -2.0121    0.0000 C   0  0  0  0  0  0  0  0  0  0  0  0
  1  2  1  0  0  0  0
  1  3  2  0  0  0  0
  1  4  1  0  0  0  0
  2 16  1  0  0  0  0
  2 17  1  0  0  0  0
  4 23  1  0  0  0  0
  5 22  1  0  0  0  0
  5 21  1  0  0  0  0
  6 10  1  0  0  0  0
  6  7  1  0  0  0  0
  7 12  1  0  0  0  0
  7 13  2  0  0  0  0
  8 20  1  0  0  0  0
  8 10  1  0  0  0  0
  8 18  1  0  0  0  0
  9 15  2  0  0  0  0
  9 19  1  0  0  0  0
  9 14  1  0  0  0  0
 11 24  1  0  0  0  0
 11 20  1  0  0  0  0
 12 14  2  0  0  0  0
 13 15  1  0  0  0  0
 16 21  1  0  0  0  0
 17 22  1  0  0  0  0
 23 24  1  0  0  0  0
M  END
> <ID>
10829

> <Formula>
C16H25N3O5

> <FW>
339.3868

> <DSSTox_CID>
25222

> <DSSTox_RID>
80759

> <DSSTox_GSID>
45222

> <DSSTox_FileID_Sort>
5440

> <TS_ChemName>
Xamoterol

> <TS_ChemName_Synonyms>


> <TS_CASRN>
81801-12-9

> <CASRN_ChemName_Relationship>
primary

> <TS_Description>
single chemical compound

> <ChemNote>


> <STRUCTURE_Shown>
tested chemical

> <STRUCTURE_Formula>
C16H25N3O5

> <STRUCTURE_MW>
339.3868

> <STRUCTURE_ChemType>
defined organic

> <STRUCTURE_DefinedOrganicForm>
parent

> <STRUCTURE_IUPAC>
N-(2-{[2-hydroxy-3-(4-hydroxyphenoxy)propyl]amino}ethyl)morpholine-4-carboxamide

> <STRUCTURE_SMILES>
O=C(NCCNCC(O)COc1ccc(O)cc1)N2CCOCC2

> <STRUCTURE_SMILES_Desalt>
O=C(NCCNCC(O)COc1ccc(O)cc1)N2CCOCC2

> <Substance_modify_yyyymmdd>
20100107

$$$$
