81938-43-4
ChemmineR-0915142007XD

 59 62  0  0  1  0  0  0  0  0  2 V2000
    4.3554   -4.7958    0.0000 C    0  0  0  0  0  0  0  0  0  0  0  0
    5.4157   -3.9965    0.0000 N    0  0  0  0  0  0  0  0  0  0  0  0
    4.7632   -6.0519    0.0000 C    0  0  0  0  0  0  0  0  0  0  0  0
    6.5250   -4.7958    0.0000 C    0  0  0  0  0  0  0  0  0  0  0  0
    6.0845   -6.0519    0.0000 C    0  0  0  0  0  0  0  0  0  0  0  0
    3.9639   -7.1448    0.0000 S    0  0  0  0  0  0  0  0  0  0  0  0
    2.6426   -7.1448    0.0000 C    0  0  0  0  0  0  0  0  0  0  0  0
    1.9738   -8.2867    0.0000 C    0  0  0  0  0  0  0  0  0  0  0  0
    1.9738   -5.9866    0.0000 C    0  0  0  0  0  0  0  0  0  0  0  0
    0.6525   -8.2867    0.0000 C    0  0  0  0  0  0  0  0  0  0  0  0
    0.6525   -5.9866    0.0000 C    0  0  0  0  0  0  0  0  0  0  0  0
    0.0000   -7.1448    0.0000 C    0  0  0  0  0  0  0  0  0  0  0  0
    7.7647   -4.3717    0.0000 C    0  0  0  0  0  0  0  0  0  0  0  0
    8.0420   -3.0830    0.0000 O    0  0  0  0  0  0  0  0  0  0  0  0
    8.7598   -5.2852    0.0000 O    0  5  0  0  0  0  0  0  0  0  0  0
    5.4157   -2.6752    0.0000 C    0  0  0  0  0  0  0  0  0  0  0  0
    6.5902   -2.0064    0.0000 C    0  0  0  0  0  0  0  0  0  0  0  0
    4.2902   -2.0064    0.0000 O    0  0  0  0  0  0  0  0  0  0  0  0
    6.5902   -0.6851    0.0000 C    0  0  0  0  0  0  0  0  0  0  0  0
    7.7321   -2.6752    0.0000 C    0  0  0  0  0  0  0  0  0  0  0  0
    8.8903   -1.9901    0.0000 S    0  0  0  0  0  0  0  0  0  0  0  0
   10.0321   -2.6589    0.0000 C    0  0  0  0  0  0  0  0  0  0  0  0
   10.0321   -3.9802    0.0000 O    0  0  0  0  0  0  0  0  0  0  0  0
   11.1903   -1.9901    0.0000 C    0  0  0  0  0  0  0  0  0  0  0  0
   11.1903   -0.6525    0.0000 C    0  0  0  0  0  0  0  0  0  0  0  0
   12.3485   -2.6589    0.0000 C    0  0  0  0  0  0  0  0  0  0  0  0
   12.3485    0.0000    0.0000 C    0  0  0  0  0  0  0  0  0  0  0  0
   13.4903   -1.9901    0.0000 C    0  0  0  0  0  0  0  0  0  0  0  0
   13.4903   -0.6525    0.0000 C    0  0  0  0  0  0  0  0  0  0  0  0
    8.3356   -6.8349    0.0000 Ca   0  2  0  0  0  0  0  0  0  0  0  0
    6.2966  -12.8215    0.0000 C    0  0  0  0  0  0  0  0  0  0  0  0
    7.3732  -12.0222    0.0000 N    0  0  0  0  0  0  0  0  0  0  0  0
    6.7207  -14.0776    0.0000 C    0  0  0  0  0  0  0  0  0  0  0  0
    8.4661  -12.8215    0.0000 C    0  0  0  0  0  0  0  0  0  0  0  0
    8.0420  -14.0776    0.0000 C    0  0  0  0  0  0  0  0  0  0  0  0
    5.9214  -15.1705    0.0000 S    0  0  0  0  0  0  0  0  0  0  0  0
    4.6001  -15.1705    0.0000 C    0  0  0  0  0  0  0  0  0  0  0  0
    3.9150  -16.3124    0.0000 C    0  0  0  0  0  0  0  0  0  0  0  0
    3.9150  -13.9960    0.0000 C    0  0  0  0  0  0  0  0  0  0  0  0
    2.5937  -16.3124    0.0000 C    0  0  0  0  0  0  0  0  0  0  0  0
    2.5937  -13.9960    0.0000 C    0  0  0  0  0  0  0  0  0  0  0  0
    1.9412  -15.1705    0.0000 C    0  0  0  0  0  0  0  0  0  0  0  0
    9.7059  -12.3974    0.0000 C    0  0  0  0  0  0  0  0  0  0  0  0
    9.9832  -11.0924    0.0000 O    0  0  0  0  0  0  0  0  0  0  0  0
   10.7009  -13.2946    0.0000 O    0  5  0  0  0  0  0  0  0  0  0  0
    7.3732  -10.7009    0.0000 C    0  0  0  0  0  0  0  0  0  0  0  0
    8.5314  -10.0321    0.0000 C    0  0  0  0  0  0  0  0  0  0  0  0
    6.2313  -10.0321    0.0000 O    0  0  0  0  0  0  0  0  0  0  0  0
    8.5314   -8.7108    0.0000 C    0  0  0  0  0  0  0  0  0  0  0  0
    9.6732  -10.7009    0.0000 C    0  0  0  0  0  0  0  0  0  0  0  0
   10.8477  -10.0158    0.0000 S    0  0  0  0  0  0  0  0  0  0  0  0
   11.9733  -10.6846    0.0000 C    0  0  0  0  0  0  0  0  0  0  0  0
   11.9733  -12.0059    0.0000 O    0  0  0  0  0  0  0  0  0  0  0  0
   13.1315  -10.0158    0.0000 C    0  0  0  0  0  0  0  0  0  0  0  0
   13.1315   -8.6782    0.0000 C    0  0  0  0  0  0  0  0  0  0  0  0
   14.2897  -10.6846    0.0000 C    0  0  0  0  0  0  0  0  0  0  0  0
   14.2897   -8.0257    0.0000 C    0  0  0  0  0  0  0  0  0  0  0  0
   15.4315  -10.0158    0.0000 C    0  0  0  0  0  0  0  0  0  0  0  0
   15.4315   -8.6782    0.0000 C    0  0  0  0  0  0  0  0  0  0  0  0
  1  2  1  0  0  0  0
  1  3  1  0  0  0  0
  2  4  1  0  0  0  0
  2 16  1  0  0  0  0
  3  5  1  0  0  0  0
  3  6  1  6  0  0  0
  4  5  1  0  0  0  0
  4 13  1  6  0  0  0
  6  7  1  0  0  0  0
  7  8  1  0  0  0  0
  7  9  2  0  0  0  0
  8 10  2  0  0  0  0
  9 11  1  0  0  0  0
 10 12  1  0  0  0  0
 11 12  2  0  0  0  0
 13 14  2  0  0  0  0
 13 15  1  0  0  0  0
 16 17  1  0  0  0  0
 16 18  2  0  0  0  0
 17 19  1  6  0  0  0
 17 20  1  0  0  0  0
 20 21  1  0  0  0  0
 21 22  1  0  0  0  0
 22 23  2  0  0  0  0
 22 24  1  0  0  0  0
 24 25  1  0  0  0  0
 24 26  2  0  0  0  0
 25 27  2  0  0  0  0
 26 28  1  0  0  0  0
 27 29  1  0  0  0  0
 28 29  2  0  0  0  0
 31 32  1  0  0  0  0
 31 33  1  0  0  0  0
 32 34  1  0  0  0  0
 32 46  1  0  0  0  0
 33 35  1  0  0  0  0
 33 36  1  6  0  0  0
 34 35  1  0  0  0  0
 34 43  1  6  0  0  0
 36 37  1  0  0  0  0
 37 38  1  0  0  0  0
 37 39  2  0  0  0  0
 38 40  2  0  0  0  0
 39 41  1  0  0  0  0
 40 42  1  0  0  0  0
 41 42  2  0  0  0  0
 43 44  2  0  0  0  0
 43 45  1  0  0  0  0
 46 47  1  0  0  0  0
 46 48  2  0  0  0  0
 47 49  1  6  0  0  0
 47 50  1  0  0  0  0
 50 51  1  0  0  0  0
 51 52  1  0  0  0  0
 52 53  2  0  0  0  0
 52 54  1  0  0  0  0
 54 55  1  0  0  0  0
 54 56  2  0  0  0  0
 55 57  2  0  0  0  0
 56 58  1  0  0  0  0
 57 59  1  0  0  0  0
 58 59  2  0  0  0  0
M  END
> <ID>
13622

> <Formula>
C44H44CaN2O8S4

> <FW>
897.1668 (428.5449+40.0769+428.5449)

> <DSSTox_CID>
28551

> <DSSTox_RID>
82823

> <DSSTox_GSID>
48625

> <DSSTox_FileID_Sort>
7500

> <TS_ChemName>
Zofenopril calcium

> <TS_ChemName_Synonyms>
ZOFENOPRIL Calcium Salt

> <TS_CASRN>
81938-43-4

> <CASRN_ChemName_Relationship>
primary

> <TS_Description>
single chemical compound

> <ChemNote>
stereochem; parent [81872-10-8]

> <STRUCTURE_Shown>
tested chemical

> <STRUCTURE_Formula>
C44H44CaN2O8S4

> <STRUCTURE_MW>
897.1668

> <STRUCTURE_ChemType>
defined organic

> <STRUCTURE_DefinedOrganicForm>
salt

> <STRUCTURE_IUPAC>
calcium bis[(2S,4S)-1-[(2S)-3-(benzoylsulfanyl)-2-methylpropanoyl]-4-(phenylsulfanyl)pyrrolidine-2-carboxylate]

> <STRUCTURE_SMILES>
[Ca+2].O=C([C@H](C)CSC(=O)c1ccccc1)N3C[C@@H](Sc2ccccc2)C[C@H]3C([O-])=O.C[C@H](CSC(=O)c1ccccc1)C(=O)N3C[C@@H](Sc2ccccc2)C[C@H]3C([O-])=O

> <STRUCTURE_SMILES_Desalt>
O=C([C@H](C)CSC(=O)c1ccccc1)N3C[C@@H](Sc2ccccc2)C[C@H]3C(=O)O

> <Substance_modify_yyyymmdd>
20111015

$$$$
