81995-09-7
ChemmineR-0915142007XD

 19 18  0  0  0  0  0  0  0  0  2 V2000
    2.8039  -14.3788    0.0000 C   0  0  0  0  0  0  0  0  0  0  0  0
   11.8050   -1.0784    0.0000 C   0  0  0  0  0  0  0  0  0  0  0  0
    2.6745  -13.0559    0.0000 C   0  0  0  0  0  0  0  0  0  0  0  0
    3.7385  -12.2795    0.0000 C   0  0  0  0  0  0  0  0  0  0  0  0
    3.6091  -10.9422    0.0000 C   0  0  0  0  0  0  0  0  0  0  0  0
    4.6875  -10.1658    0.0000 C   0  0  0  0  0  0  0  0  0  0  0  0
    4.5437   -8.8429    0.0000 C   0  0  0  0  0  0  0  0  0  0  0  0
    5.6221   -8.0665    0.0000 C   0  0  0  0  0  0  0  0  0  0  0  0
    5.4783   -6.7436    0.0000 C   0  0  0  0  0  0  0  0  0  0  0  0
    6.5567   -5.9528    0.0000 C   0  0  0  0  0  0  0  0  0  0  0  0
    6.4129   -4.6300    0.0000 C   0  0  0  0  0  0  0  0  0  0  0  0
    7.4913   -3.8535    0.0000 C   0  0  0  0  0  0  0  0  0  0  0  0
    7.3619   -2.5307    0.0000 C   0  0  0  0  0  0  0  0  0  0  0  0
    9.7057    0.0000    0.0000 C   0  0  0  0  0  0  0  0  0  0  0  0
    8.4403   -0.4170    0.0000 C   0  0  0  0  0  0  0  0  0  0  0  0
    9.7057   -2.1568    0.0000 C   0  0  0  0  0  0  0  0  0  0  0  0
   10.4821   -1.0784    0.0000 N   0  3  0  0  0  0  0  0  0  0  0  0
    8.4403   -1.7398    0.0000 N   0  0  0  0  0  0  0  0  0  0  0  0
    0.0000   -1.0784    0.0000 I   0  5  0  0  0  0  0  0  0  0  0  0
  1  3  1  0  0  0  0
  2 17  1  0  0  0  0
  3  4  1  0  0  0  0
  4  5  1  0  0  0  0
  5  6  1  0  0  0  0
  6  7  1  0  0  0  0
  7  8  1  0  0  0  0
  8  9  1  0  0  0  0
  9 10  1  0  0  0  0
 10 11  1  0  0  0  0
 11 12  1  0  0  0  0
 12 13  1  0  0  0  0
 13 18  1  0  0  0  0
 14 15  2  0  0  0  0
 14 17  1  0  0  0  0
 15 18  1  0  0  0  0
 16 17  2  0  0  0  0
 16 18  1  0  0  0  0
M  END
> <ID>
14223

> <Formula>
C16H31IN2

> <FW>
378.3352 (251.4302+126.9050)

> <DSSTox_CID>
29318

> <DSSTox_RID>
83434

> <DSSTox_GSID>
49359

> <DSSTox_FileID_Sort>
8109

> <TS_ChemName>
1-Dodecyl-3-methylimidazolium iodide

> <TS_ChemName_Synonyms>


> <TS_CASRN>
81995-09-7

> <CASRN_ChemName_Relationship>
primary

> <TS_Description>
single chemical compound

> <ChemNote>


> <STRUCTURE_Shown>
tested chemical

> <STRUCTURE_Formula>
C16H31IN2

> <STRUCTURE_MW>
378.3352

> <STRUCTURE_ChemType>
defined organic

> <STRUCTURE_DefinedOrganicForm>
salt

> <STRUCTURE_IUPAC>
1-dodecyl-3-methyl-1H-imidazol-3-ium iodide

> <STRUCTURE_SMILES>
[I-].C[n+]1ccn(CCCCCCCCCCCC)c1

> <STRUCTURE_SMILES_Desalt>
C[n+]1ccn(CCCCCCCCCCCC)c1

> <Substance_modify_yyyymmdd>
20111204

$$$$
