82-02-0
ChemmineR-0915142007XD

 19 21  0  0  0  0  0  0  0  0  1 V2000
    4.3548   -3.9958    0.0000 C   0  0  0  0  0  0  0  0  0  0  0  0
    4.3548   -2.6691    0.0000 C   0  0  0  0  0  0  0  0  0  0  0  0
    3.1920   -4.6592    0.0000 C   0  0  0  0  0  0  0  0  0  0  0  0
    2.0369   -3.9958    0.0000 C   0  0  0  0  0  0  0  0  0  0  0  0
    5.4943   -4.6592    0.0000 C   0  0  0  0  0  0  0  0  0  0  0  0
    3.1920   -2.0057    0.0000 C   0  0  0  0  0  0  0  0  0  0  0  0
    2.0369   -2.6691    0.0000 C   0  0  0  0  0  0  0  0  0  0  0  0
    6.6493   -3.9958    0.0000 C   0  0  0  0  0  0  0  0  0  0  0  0
    5.4943   -2.0057    0.0000 O   0  0  0  0  0  0  0  0  0  0  0  0
    6.6493   -2.6691    0.0000 C   0  0  0  0  0  0  0  0  0  0  0  0
    0.7726   -2.2477    0.0000 O   0  0  0  0  0  0  0  0  0  0  0  0
    0.7726   -4.4017    0.0000 C   0  0  0  0  0  0  0  0  0  0  0  0
    0.0000   -3.3403    0.0000 C   0  0  0  0  0  0  0  0  0  0  0  0
    5.4943   -5.9938    0.0000 O   0  0  0  0  0  0  0  0  0  0  0  0
    3.1920   -5.9938    0.0000 O   0  0  0  0  0  0  0  0  0  0  0  0
    3.1920   -0.6790    0.0000 O   0  0  0  0  0  0  0  0  0  0  0  0
    7.8044   -2.0057    0.0000 C   0  0  0  0  0  0  0  0  0  0  0  0
    2.0369   -6.6493    0.0000 C   0  0  0  0  0  0  0  0  0  0  0  0
    2.0369    0.0000    0.0000 C   0  0  0  0  0  0  0  0  0  0  0  0
  1  2  1  0  0  0  0
  1  3  2  0  0  0  0
  1  5  1  0  0  0  0
  2  6  2  0  0  0  0
  2  9  1  0  0  0  0
  3  4  1  0  0  0  0
  3 15  1  0  0  0  0
  4  7  2  0  0  0  0
  4 12  1  0  0  0  0
  5  8  1  0  0  0  0
  5 14  2  0  0  0  0
  6 16  1  0  0  0  0
  6  7  1  0  0  0  0
  7 11  1  0  0  0  0
  8 10  2  0  0  0  0
  9 10  1  0  0  0  0
 10 17  1  0  0  0  0
 11 13  1  0  0  0  0
 12 13  2  0  0  0  0
 15 18  1  0  0  0  0
 16 19  1  0  0  0  0
M  END
> <ID>
10849

> <Formula>
C14H12O5

> <FW>
260.2421

> <DSSTox_CID>
25267

> <DSSTox_RID>
80779

> <DSSTox_GSID>
45267

> <DSSTox_FileID_Sort>
5460

> <TS_ChemName>
Khellin

> <TS_ChemName_Synonyms>


> <TS_CASRN>
82-02-0

> <CASRN_ChemName_Relationship>
primary

> <TS_Description>
single chemical compound

> <ChemNote>


> <STRUCTURE_Shown>
tested chemical

> <STRUCTURE_Formula>
C14H12O5

> <STRUCTURE_MW>
260.2421

> <STRUCTURE_ChemType>
defined organic

> <STRUCTURE_DefinedOrganicForm>
parent

> <STRUCTURE_IUPAC>
4,9-dimethoxy-7-methyl-5H-furo[3,2-g]chromen-5-one

> <STRUCTURE_SMILES>
COc3c1c(OC(C)=CC1=O)c(OC)c2occc23

> <STRUCTURE_SMILES_Desalt>
COc3c1c(OC(C)=CC1=O)c(OC)c2occc23

> <Substance_modify_yyyymmdd>
20100107

$$$$
