82-28-0
ChemmineR-0915142007XD

 18 20  0  0  0  0  0  0  0  0  1 V2000
    4.6526   -4.6047    0.0000 O   0  0  0  0  0  0  0  0  0  0  0  0
    3.9902   -3.4555    0.0000 C   0  0  0  0  0  0  0  0  0  0  0  0
    4.6526   -2.2984    0.0000 C   0  0  0  0  0  0  0  0  0  0  0  0
    5.9853   -2.2984    0.0000 C   0  0  0  0  0  0  0  0  0  0  0  0
    6.6477   -1.1492    0.0000 C   0  0  0  0  0  0  0  0  0  0  0  0
    5.9853    0.0000    0.0000 C   0  0  0  0  0  0  0  0  0  0  0  0
    4.6526    0.0000    0.0000 C   0  0  0  0  0  0  0  0  0  0  0  0
    3.9902   -1.1492    0.0000 C   0  0  0  0  0  0  0  0  0  0  0  0
    2.6575   -1.1492    0.0000 C   0  0  0  0  0  0  0  0  0  0  0  0
    1.9951    0.0000    0.0000 O   0  0  0  0  0  0  0  0  0  0  0  0
    1.9951   -2.2984    0.0000 C   0  0  0  0  0  0  0  0  0  0  0  0
    2.6575   -3.4555    0.0000 C   0  0  0  0  0  0  0  0  0  0  0  0
    1.9951   -4.6047    0.0000 C   0  0  0  0  0  0  0  0  0  0  0  0
    0.6624   -4.6047    0.0000 C   0  0  0  0  0  0  0  0  0  0  0  0
    0.0000   -3.4555    0.0000 C   0  0  0  0  0  0  0  0  0  0  0  0
    0.6624   -2.2984    0.0000 C   0  0  0  0  0  0  0  0  0  0  0  0
    7.9804   -1.1492    0.0000 C   0  0  0  0  0  0  0  0  0  0  0  0
    6.6477   -3.4555    0.0000 N   0  0  0  0  0  0  0  0  0  0  0  0
  1  2  2  0  0  0  0
  2  3  1  0  0  0  0
  2 12  1  0  0  0  0
  3  4  2  0  0  0  0
  3  8  1  0  0  0  0
  4  5  1  0  0  0  0
  4 18  1  0  0  0  0
  5  6  2  0  0  0  0
  5 17  1  0  0  0  0
  6  7  1  0  0  0  0
  7  8  2  0  0  0  0
  8  9  1  0  0  0  0
  9 10  2  0  0  0  0
  9 11  1  0  0  0  0
 11 12  2  0  0  0  0
 11 16  1  0  0  0  0
 12 13  1  0  0  0  0
 13 14  2  0  0  0  0
 14 15  1  0  0  0  0
 15 16  2  0  0  0  0
M  END
> <ID>
56

> <Formula>
C15H11NO2

> <FW>
237.2533

> <DSSTox_CID>
57

> <DSSTox_RID>
75339

> <DSSTox_GSID>
20057

> <DSSTox_FileID_Sort>
23

> <TS_ChemName>
1-Amino-2-methylanthraquinone

> <TS_ChemName_Synonyms>
C.I. 60700

> <TS_CASRN>
82-28-0

> <CASRN_ChemName_Relationship>
primary

> <TS_Description>
single chemical compound

> <ChemNote>
C.I. 60700

> <STRUCTURE_Shown>
tested chemical

> <STRUCTURE_Formula>
C15H11NO2

> <STRUCTURE_MW>
237.2533

> <STRUCTURE_ChemType>
defined organic

> <STRUCTURE_DefinedOrganicForm>
parent

> <STRUCTURE_IUPAC>
1-amino-2-methylanthracene-9,10-dione

> <STRUCTURE_SMILES>
O=C3c1ccccc1C(=O)c2c3ccc(C)c2N

> <STRUCTURE_SMILES_Desalt>
O=C3c1ccccc1C(=O)c2c3ccc(C)c2N

> <Substance_modify_yyyymmdd>
20080429

$$$$
