82-66-6
ChemmineR-0915142007XD

 26 29  0  0  0  0  0  0  0  0  1 V2000
    4.3255   -2.3180    0.0000 C   0  0  0  0  0  0  0  0  0  0  0  0
    3.5701   -1.2211    0.0000 C   0  0  0  0  0  0  0  0  0  0  0  0
    3.5701   -3.3735    0.0000 C   0  0  0  0  0  0  0  0  0  0  0  0
    5.6708   -2.3180    0.0000 C   0  0  0  0  0  0  0  0  0  0  0  0
    2.3180   -2.9699    0.0000 C   0  0  0  0  0  0  0  0  0  0  0  0
    2.3180   -1.6350    0.0000 C   0  0  0  0  0  0  0  0  0  0  0  0
    6.3331   -3.4563    0.0000 C   0  0  0  0  0  0  0  0  0  0  0  0
    3.5701    0.0000    0.0000 O   0  0  0  0  0  0  0  0  0  0  0  0
    3.5701   -4.5946    0.0000 O   0  0  0  0  0  0  0  0  0  0  0  0
    6.3331   -1.1383    0.0000 O   0  0  0  0  0  0  0  0  0  0  0  0
    7.6680   -3.4563    0.0000 C   0  0  0  0  0  0  0  0  0  0  0  0
    5.6915   -4.6153    0.0000 C   0  0  0  0  0  0  0  0  0  0  0  0
    1.1590   -0.9624    0.0000 C   0  0  0  0  0  0  0  0  0  0  0  0
    1.1590   -3.6633    0.0000 C   0  0  0  0  0  0  0  0  0  0  0  0
    8.3199   -4.6153    0.0000 C   0  0  0  0  0  0  0  0  0  0  0  0
    6.3745   -5.7846    0.0000 C   0  0  0  0  0  0  0  0  0  0  0  0
    8.3199   -2.3180    0.0000 C   0  0  0  0  0  0  0  0  0  0  0  0
    4.3359   -4.6153    0.0000 C   0  0  0  0  0  0  0  0  0  0  0  0
    0.0000   -2.9699    0.0000 C   0  0  0  0  0  0  0  0  0  0  0  0
    0.0000   -1.6350    0.0000 C   0  0  0  0  0  0  0  0  0  0  0  0
    9.6859   -2.3180    0.0000 C   0  0  0  0  0  0  0  0  0  0  0  0
    9.6549   -4.6153    0.0000 C   0  0  0  0  0  0  0  0  0  0  0  0
    3.6840   -5.8053    0.0000 C   0  0  0  0  0  0  0  0  0  0  0  0
    5.7019   -6.9747    0.0000 C   0  0  0  0  0  0  0  0  0  0  0  0
    4.3566   -6.9747    0.0000 C   0  0  0  0  0  0  0  0  0  0  0  0
   10.3482   -3.4563    0.0000 C   0  0  0  0  0  0  0  0  0  0  0  0
  1  2  1  0  0  0  0
  1  3  1  0  0  0  0
  1  4  1  0  0  0  0
  2  6  1  0  0  0  0
  2  8  2  0  0  0  0
  3  5  1  0  0  0  0
  3  9  2  0  0  0  0
  4  7  1  0  0  0  0
  4 10  2  0  0  0  0
  5 14  1  0  0  0  0
  5  6  2  0  0  0  0
  6 13  1  0  0  0  0
  7 11  1  0  0  0  0
  7 12  1  0  0  0  0
 11 15  1  0  0  0  0
 11 17  2  0  0  0  0
 12 16  2  0  0  0  0
 12 18  1  0  0  0  0
 13 20  2  0  0  0  0
 14 19  2  0  0  0  0
 15 22  2  0  0  0  0
 16 24  1  0  0  0  0
 17 21  1  0  0  0  0
 18 23  2  0  0  0  0
 19 20  1  0  0  0  0
 21 26  2  0  0  0  0
 22 26  1  0  0  0  0
 23 25  1  0  0  0  0
 24 25  2  0  0  0  0
M  END
> <ID>
6441

> <Formula>
C23H16O3

> <FW>
340.3713

> <DSSTox_CID>
12378

> <DSSTox_RID>
78931

> <DSSTox_GSID>
32378

> <DSSTox_FileID_Sort>
3613

> <TS_ChemName>
Diphacinone

> <TS_ChemName_Synonyms>


> <TS_CASRN>
82-66-6

> <CASRN_ChemName_Relationship>
primary

> <TS_Description>
single chemical compound

> <ChemNote>
tautomers

> <STRUCTURE_Shown>
tested chemical

> <STRUCTURE_Formula>
C23H16O3

> <STRUCTURE_MW>
340.3713

> <STRUCTURE_ChemType>
defined organic

> <STRUCTURE_DefinedOrganicForm>
parent

> <STRUCTURE_IUPAC>
2-(diphenylacetyl)-1H-indene-1,3(2H)-dione

> <STRUCTURE_SMILES>
O=C2c1ccccc1C(=O)C2C(=O)C(c3ccccc3)c4ccccc4

> <STRUCTURE_SMILES_Desalt>
O=C2c1ccccc1C(=O)C2C(=O)C(c3ccccc3)c4ccccc4

> <Substance_modify_yyyymmdd>
20080429

$$$$
