82-86-0
ChemmineR-0915142007XD

 14 16  0  0  0  0  0  0  0  0  1 V2000
    0.0000   -4.2146    0.0000 C   0  0  0  0  0  0  0  0  0  0  0  0
    4.5459   -4.2146    0.0000 C   0  0  0  0  0  0  0  0  0  0  0  0
    1.1353   -4.8724    0.0000 C   0  0  0  0  0  0  0  0  0  0  0  0
    3.4107   -4.8724    0.0000 C   0  0  0  0  0  0  0  0  0  0  0  0
    0.0000   -2.9039    0.0000 C   0  0  0  0  0  0  0  0  0  0  0  0
    4.5459   -2.9039    0.0000 C   0  0  0  0  0  0  0  0  0  0  0  0
    2.2754   -4.2146    0.0000 C   0  0  0  0  0  0  0  0  0  0  0  0
    1.1353   -2.2462    0.0000 C   0  0  0  0  0  0  0  0  0  0  0  0
    3.4107   -2.2462    0.0000 C   0  0  0  0  0  0  0  0  0  0  0  0
    2.2754   -2.9039    0.0000 C   0  0  0  0  0  0  0  0  0  0  0  0
    1.4763   -0.9793    0.0000 C   0  0  0  0  0  0  0  0  0  0  0  0
    3.0696   -0.9793    0.0000 C   0  0  0  0  0  0  0  0  0  0  0  0
    0.6042    0.0000    0.0000 O   0  0  0  0  0  0  0  0  0  0  0  0
    3.9466    0.0000    0.0000 O   0  0  0  0  0  0  0  0  0  0  0  0
  1  3  2  0  0  0  0
  1  5  1  0  0  0  0
  2  4  2  0  0  0  0
  2  6  1  0  0  0  0
  3  7  1  0  0  0  0
  4  7  1  0  0  0  0
  5  8  2  0  0  0  0
  6  9  2  0  0  0  0
  7 10  2  0  0  0  0
  8 10  1  0  0  0  0
  8 11  1  0  0  0  0
  9 10  1  0  0  0  0
  9 12  1  0  0  0  0
 11 12  1  0  0  0  0
 11 13  2  0  0  0  0
 12 14  2  0  0  0  0
M  END
> <ID>
14293

> <Formula>
C12H6O2

> <FW>
182.1748

> <DSSTox_CID>
29389

> <DSSTox_RID>
83504

> <DSSTox_GSID>
49429

> <DSSTox_FileID_Sort>
8179

> <TS_ChemName>
Acenaphthenequinone

> <TS_ChemName_Synonyms>


> <TS_CASRN>
82-86-0

> <CASRN_ChemName_Relationship>
primary

> <TS_Description>
single chemical compound

> <ChemNote>


> <STRUCTURE_Shown>
tested chemical

> <STRUCTURE_Formula>
C12H6O2

> <STRUCTURE_MW>
182.1748

> <STRUCTURE_ChemType>
defined organic

> <STRUCTURE_DefinedOrganicForm>
parent

> <STRUCTURE_IUPAC>
acenaphthylene-1,2-dione

> <STRUCTURE_SMILES>
O=C3c2cccc1cccc(c12)C3=O

> <STRUCTURE_SMILES_Desalt>
O=C3c2cccc1cccc(c12)C3=O

> <Substance_modify_yyyymmdd>
20111204

$$$$
