82-99-5
ChemmineR-0915142007XD

 23 24  0  0  0  0  0  0  0  0  1 V2000
    0.0000   -5.9893    0.0000 C   0  0  0  0  0  0  0  0  0  0  0  0
    0.0000   -4.6630    0.0000 C   0  0  0  0  0  0  0  0  0  0  0  0
    1.1502   -3.9894    0.0000 C   0  0  0  0  0  0  0  0  0  0  0  0
    2.3004   -4.6630    0.0000 C   0  0  0  0  0  0  0  0  0  0  0  0
    3.4506   -3.9894    0.0000 C   0  0  0  0  0  0  0  0  0  0  0  0
    4.6008   -4.6630    0.0000 C   0  0  0  0  0  0  0  0  0  0  0  0
    4.6008   -5.9893    0.0000 O   0  0  0  0  0  0  0  0  0  0  0  0
    5.7613   -3.9894    0.0000 S   0  0  0  0  0  0  0  0  0  0  0  0
    6.9115   -4.6630    0.0000 C   0  0  0  0  0  0  0  0  0  0  0  0
    8.0617   -3.9894    0.0000 C   0  0  0  0  0  0  0  0  0  0  0  0
    9.2119   -4.6630    0.0000 N   0  0  0  0  0  0  0  0  0  0  0  0
   10.3621   -3.9894    0.0000 C   0  0  0  0  0  0  0  0  0  0  0  0
   10.3621   -2.6631    0.0000 C   0  0  0  0  0  0  0  0  0  0  0  0
    9.2119   -5.9893    0.0000 C   0  0  0  0  0  0  0  0  0  0  0  0
   10.3621   -6.6525    0.0000 C   0  0  0  0  0  0  0  0  0  0  0  0
    3.4506   -2.6631    0.0000 C   0  0  0  0  0  0  0  0  0  0  0  0
    2.3004   -1.9999    0.0000 C   0  0  0  0  0  0  0  0  0  0  0  0
    2.3004   -0.6735    0.0000 C   0  0  0  0  0  0  0  0  0  0  0  0
    3.4506    0.0000    0.0000 C   0  0  0  0  0  0  0  0  0  0  0  0
    4.6008   -0.6735    0.0000 C   0  0  0  0  0  0  0  0  0  0  0  0
    4.6008   -1.9999    0.0000 C   0  0  0  0  0  0  0  0  0  0  0  0
    2.3004   -5.9893    0.0000 C   0  0  0  0  0  0  0  0  0  0  0  0
    1.1502   -6.6525    0.0000 C   0  0  0  0  0  0  0  0  0  0  0  0
  1  2  2  0  0  0  0
  1 23  1  0  0  0  0
  2  3  1  0  0  0  0
  3  4  2  0  0  0  0
  4  5  1  0  0  0  0
  4 22  1  0  0  0  0
  5  6  1  0  0  0  0
  5 16  1  0  0  0  0
  6  7  2  0  0  0  0
  6  8  1  0  0  0  0
  8  9  1  0  0  0  0
  9 10  1  0  0  0  0
 10 11  1  0  0  0  0
 11 12  1  0  0  0  0
 11 14  1  0  0  0  0
 12 13  1  0  0  0  0
 14 15  1  0  0  0  0
 16 17  2  0  0  0  0
 16 21  1  0  0  0  0
 17 18  1  0  0  0  0
 18 19  2  0  0  0  0
 19 20  1  0  0  0  0
 20 21  2  0  0  0  0
 22 23  2  0  0  0  0
M  END
> <ID>
3268

> <Formula>
C20H25NOS

> <FW>
327.4836

> <DSSTox_CID>
3660

> <DSSTox_RID>
77132

> <DSSTox_GSID>
23660

> <DSSTox_FileID_Sort>
1815

> <TS_ChemName>
Thiphenamil

> <TS_ChemName_Synonyms>


> <TS_CASRN>
82-99-5

> <CASRN_ChemName_Relationship>
primary

> <TS_Description>
single chemical compound

> <ChemNote>


> <STRUCTURE_Shown>
tested chemical

> <STRUCTURE_Formula>
C20H25NOS

> <STRUCTURE_MW>
327.4836

> <STRUCTURE_ChemType>
defined organic

> <STRUCTURE_DefinedOrganicForm>
parent

> <STRUCTURE_IUPAC>
S-[2-(diethylamino)ethyl] diphenylethanethioate

> <STRUCTURE_SMILES>
CCN(CC)CCSC(=O)C(c1ccccc1)c2ccccc2

> <STRUCTURE_SMILES_Desalt>
CCN(CC)CCSC(=O)C(c1ccccc1)c2ccccc2

> <Substance_modify_yyyymmdd>
20080429

$$$$
