82034-46-6
ChemmineR-0915142007XD

 35 38  0  0  1  0  0  0  0  0  1 V2000
    8.1417   -4.1488    0.0000 C    0  0  0  0  0  0  0  0  0  0  0  0
    7.0656   -4.5311    0.0000 C    0  0  0  0  0  0  0  0  0  0  0  0
    8.9347   -5.1541    0.0000 C    0  0  0  0  0  0  0  0  0  0  0  0
    9.3453   -3.4691    0.0000 O    0  0  0  0  0  0  0  0  0  0  0  0
    8.1417   -2.8461    0.0000 C    0  0  0  0  0  0  0  0  0  0  0  0
    7.0656   -5.8621    0.0000 C    0  0  0  0  0  0  0  0  0  0  0  0
    5.9187   -4.0072    0.0000 C    0  0  0  0  0  0  0  0  0  0  0  0
    7.0656   -3.4408    0.0000 C    0  0  0  0  0  0  0  0  0  0  0  0
    8.2975   -6.2160    0.0000 C    0  0  0  0  0  0  0  0  0  0  0  0
   10.6055   -4.0638    0.0000 C    0  0  0  0  0  0  0  0  0  0  0  0
    7.0090   -2.1523    0.0000 O    0  0  0  0  0  0  0  0  0  0  0  0
    9.2462   -2.1664    0.0000 O    0  0  0  0  0  0  0  0  0  0  0  0
    5.9753   -6.5559    0.0000 C    0  0  0  0  0  0  0  0  0  0  0  0
    4.7293   -4.6302    0.0000 C    0  0  0  0  0  0  0  0  0  0  0  0
   11.7808   -3.3983    0.0000 O    0  0  0  0  0  0  0  0  0  0  0  0
   10.6055   -5.3806    0.0000 O    0  0  0  0  0  0  0  0  0  0  0  0
    7.0090   -0.7929    0.0000 C    0  0  0  0  0  0  0  0  0  0  0  0
    4.7293   -5.9895    0.0000 C    0  0  0  0  0  0  0  0  0  0  0  0
    5.9753   -7.9435    0.0000 C    0  0  0  0  0  0  0  0  0  0  0  0
    3.4974   -3.9505    0.0000 O    0  0  0  0  0  0  0  0  0  0  0  0
   12.9985   -4.0496    0.0000 C    0  0  0  0  0  0  0  0  0  0  0  0
    5.7629    0.0000    0.0000 Cl   0  0  0  0  0  0  0  0  0  0  0  0
    3.5682   -6.6692    0.0000 C    0  0  0  0  0  0  0  0  0  0  0  0
    4.8567   -8.6515    0.0000 C    0  0  0  0  0  0  0  0  0  0  0  0
   14.1596   -3.3275    0.0000 C    0  0  0  0  0  0  0  0  0  0  0  0
    3.5682   -8.0285    0.0000 C    0  0  0  0  0  0  0  0  0  0  0  0
    2.3788   -5.9470    0.0000 C    0  0  0  0  0  0  0  0  0  0  0  0
    3.5682   -5.2674    0.0000 C    0  0  0  0  0  0  0  0  0  0  0  0
    2.4071   -8.7506    0.0000 C    0  0  0  0  0  0  0  0  0  0  0  0
    1.1752   -6.6550    0.0000 C    0  0  0  0  0  0  0  0  0  0  0  0
    1.1752   -8.0851    0.0000 C    0  0  0  0  0  0  0  0  0  0  0  0
    0.0000   -8.8214    0.0000 O    0  0  0  0  0  0  0  0  0  0  0  0
    4.7293   -7.1789    0.0000 H    0  0  0  0  0  0  0  0  0  0  0  0
    5.9753   -5.3665    0.0000 H    0  0  0  0  0  0  0  0  0  0  0  0
    7.0656   -7.0515    0.0000 H    0  0  0  0  0  0  0  0  0  0  0  0
  1  2  1  0  0  0  0
  1  3  1  0  0  0  0
  1  4  1  0  0  0  0
  1  5  1  1  0  0  0
  2  6  1  0  0  0  0
  2  7  1  0  0  0  0
  2  8  1  1  0  0  0
  3  9  1  0  0  0  0
  4 10  1  0  0  0  0
  5 11  1  0  0  0  0
  5 12  2  0  0  0  0
  6 13  1  0  0  0  0
  6  9  1  0  0  0  0
  6 35  1  6  0  0  0
  7 14  1  0  0  0  0
 10 15  1  0  0  0  0
 10 16  2  0  0  0  0
 11 17  1  0  0  0  0
 13 18  1  0  0  0  0
 13 19  1  0  0  0  0
 13 34  1  1  0  0  0
 14 20  1  1  0  0  0
 14 18  1  0  0  0  0
 15 21  1  0  0  0  0
 17 22  1  0  0  0  0
 18 23  1  0  0  0  0
 18 33  1  6  0  0  0
 19 24  1  0  0  0  0
 21 25  1  0  0  0  0
 23 26  1  0  0  0  0
 23 27  1  0  0  0  0
 23 28  1  1  0  0  0
 24 26  1  0  0  0  0
 26 29  2  0  0  0  0
 27 30  2  0  0  0  0
 29 31  1  0  0  0  0
 30 31  1  0  0  0  0
 31 32  2  0  0  0  0
M  END
> <ID>
11707

> <Formula>
C24H31ClO7

> <FW>
466.9517

> <DSSTox_CID>
26468

> <DSSTox_RID>
81641

> <DSSTox_GSID>
46468

> <DSSTox_FileID_Sort>
6322

> <TS_ChemName>
Loteprednol etabonate

> <TS_ChemName_Synonyms>


> <TS_CASRN>
82034-46-6

> <CASRN_ChemName_Relationship>
primary

> <TS_Description>
single chemical compound

> <ChemNote>
stereochem

> <STRUCTURE_Shown>
tested chemical

> <STRUCTURE_Formula>
C24H31ClO7

> <STRUCTURE_MW>
466.9517

> <STRUCTURE_ChemType>
defined organic

> <STRUCTURE_DefinedOrganicForm>
parent

> <STRUCTURE_IUPAC>
chloromethyl (11beta,17alpha)-17-[(ethoxycarbonyl)oxy]-11-hydroxy-3-oxoandrosta-1,4-diene-17-carboxylate

> <STRUCTURE_SMILES>
O=C(OCCl)[C@@]4(OC(=O)OCC)CC[C@@H]3[C@]4(C)C[C@H](O)[C@H]2[C@H]3CCC1=CC(=O)C=C[C@@]12C

> <STRUCTURE_SMILES_Desalt>
O=C(OCCl)[C@@]4(OC(=O)OCC)CC[C@@H]3[C@]4(C)C[C@H](O)[C@H]2[C@H]3CCC1=CC(=O)C=C[C@@]12C

> <Substance_modify_yyyymmdd>
20110812

$$$$
