82097-50-5
ChemmineR-0915142007XD

 26 27  0  0  0  0  0  0  0  0  1 V2000
    2.7749   -3.4973    0.0000 C    0  0  0  0  0  0  0  0  0  0  0  0
    2.0066   -4.6439    0.0000 C    0  0  0  0  0  0  0  0  0  0  0  0
    0.7568   -4.6439    0.0000 C    0  0  0  0  0  0  0  0  0  0  0  0
    0.0000   -3.4973    0.0000 C    0  0  0  0  0  0  0  0  0  0  0  0
    0.7568   -2.3392    0.0000 C    0  0  0  0  0  0  0  0  0  0  0  0
    2.0066   -2.3392    0.0000 C    0  0  0  0  0  0  0  0  0  0  0  0
    4.0706   -3.4973    0.0000 S    0  0  0  0  0  0  0  0  0  0  0  0
    4.0706   -2.1672    0.0000 O    0  0  0  0  0  0  0  0  0  0  0  0
    5.4007   -3.4973    0.0000 O    0  0  0  0  0  0  0  0  0  0  0  0
    4.0706   -4.8044    0.0000 N    0  0  0  0  0  0  0  0  0  0  0  0
    2.7061   -1.1925    0.0000 O    0  0  0  0  0  0  0  0  0  0  0  0
    4.0362   -1.1925    0.0000 C    0  0  0  0  0  0  0  0  0  0  0  0
    4.6554    0.0000    0.0000 C    0  0  0  0  0  0  0  0  0  0  0  0
    5.9855    0.0000    0.0000 Cl   0  0  0  0  0  0  0  0  0  0  0  0
    5.2287   -5.4924    0.0000 C    0  0  0  0  0  0  0  0  0  0  0  0
    6.3753   -4.8044    0.0000 O    0  0  0  0  0  0  0  0  0  0  0  0
    5.2287   -6.8225    0.0000 N    0  0  0  0  0  0  0  0  0  0  0  0
    2.9239   -6.7537    0.0000 N    0  0  0  0  0  0  0  0  0  0  0  0
    4.0706   -7.4646    0.0000 C    0  0  0  0  0  0  0  0  0  0  0  0
    4.0706   -8.7718    0.0000 N    0  0  0  0  0  0  0  0  0  0  0  0
    2.9813   -9.5171    0.0000 C    0  0  0  0  0  0  0  0  0  0  0  0
    1.7773   -8.7718    0.0000 N    0  0  0  0  0  0  0  0  0  0  0  0
    1.7773   -7.5105    0.0000 C    0  0  0  0  0  0  0  0  0  0  0  0
    2.9813  -10.7784    0.0000 O    0  0  0  0  0  0  0  0  0  0  0  0
    4.1394  -11.4664    0.0000 C    0  0  0  0  0  0  0  0  0  0  0  0
    0.6421   -6.8799    0.0000 C    0  0  0  0  0  0  0  0  0  0  0  0
  1  2  1  0  0  0  0
  1  6  2  0  0  0  0
  1  7  1  0  0  0  0
  2  3  2  0  0  0  0
  3  4  1  0  0  0  0
  4  5  2  0  0  0  0
  5  6  1  0  0  0  0
  6 11  1  0  0  0  0
  7  8  2  0  0  0  0
  7 10  1  0  0  0  0
  7  9  2  0  0  0  0
 10 15  1  0  0  0  0
 11 12  1  0  0  0  0
 12 13  1  0  0  0  0
 13 14  1  0  0  0  0
 15 16  2  0  0  0  0
 15 17  1  0  0  0  0
 17 19  1  0  0  0  0
 18 19  1  0  0  0  0
 18 23  2  0  0  0  0
 19 20  2  0  0  0  0
 20 21  1  0  0  0  0
 21 22  2  0  0  0  0
 21 24  1  0  0  0  0
 22 23  1  0  0  0  0
 23 26  1  0  0  0  0
 24 25  1  0  0  0  0
M  END
> <ID>
3636

> <Formula>
C14H16ClN5O5S

> <FW>
401.8253

> <DSSTox_CID>
4345

> <DSSTox_RID>
77376

> <DSSTox_GSID>
24345

> <DSSTox_FileID_Sort>
2059

> <TS_ChemName>
Triasulfuron

> <TS_ChemName_Synonyms>


> <TS_CASRN>
82097-50-5

> <CASRN_ChemName_Relationship>
primary

> <TS_Description>
single chemical compound

> <ChemNote>


> <STRUCTURE_Shown>
tested chemical

> <STRUCTURE_Formula>
C14H16ClN5O5S

> <STRUCTURE_MW>
401.8253

> <STRUCTURE_ChemType>
defined organic

> <STRUCTURE_DefinedOrganicForm>
parent

> <STRUCTURE_IUPAC>
2-(2-chloroethoxy)-N-[(4-methoxy-6-methyl-1,3,5-triazin-2-yl)carbamoyl]benzenesulfonamide

> <STRUCTURE_SMILES>
Cc2nc(NC(=O)NS(=O)(=O)c1ccccc1OCCCl)nc(OC)n2

> <STRUCTURE_SMILES_Desalt>
Cc2nc(NC(=O)NS(=O)(=O)c1ccccc1OCCCl)nc(OC)n2

> <Substance_modify_yyyymmdd>
20080429

$$$$
