82159-09-9
ChemmineR-0915142007XD

 23 24  0  0  0  0  0  0  0  0  1 V2000
    8.2965   -3.7921    0.0000 N   0  0  0  0  0  0  0  0  0  0  0  0
    9.0856   -2.6961    0.0000 C   0  0  0  0  0  0  0  0  0  0  0  0
    7.0033   -3.3975    0.0000 C   0  0  0  0  0  0  0  0  0  0  0  0
    7.0033   -2.0276    0.0000 C   0  0  0  0  0  0  0  0  0  0  0  0
    8.2965   -1.6001    0.0000 S   0  0  0  0  0  0  0  0  0  0  0  0
    5.8525   -1.3480    0.0000 C   0  0  0  0  0  0  0  0  0  0  0  0
    8.7349   -5.0963    0.0000 C   0  0  0  0  0  0  0  0  0  0  0  0
    4.6908   -2.0276    0.0000 C   0  0  0  0  0  0  0  0  0  0  0  0
   10.1268   -2.6961    0.0000 S   0  0  0  0  0  0  0  0  0  0  0  0
   10.0501   -5.3922    0.0000 C   0  0  0  0  0  0  0  0  0  0  0  0
    3.5071   -1.3480    0.0000 C   0  0  0  0  0  0  0  0  0  0  0  0
    5.8525   -4.0880    0.0000 O   0  0  0  0  0  0  0  0  0  0  0  0
   10.9597   -4.3620    0.0000 O   0  0  0  0  0  0  0  0  0  0  0  0
    2.3344   -2.0276    0.0000 C   0  0  0  0  0  0  0  0  0  0  0  0
   10.4994   -6.6526    0.0000 O   0  0  0  0  0  0  0  0  0  0  0  0
    4.6908   -3.0906    0.0000 C   0  0  0  0  0  0  0  0  0  0  0  0
    1.1946   -1.3480    0.0000 C   0  0  0  0  0  0  0  0  0  0  0  0
    2.3344   -3.3975    0.0000 C   0  0  0  0  0  0  0  0  0  0  0  0
    1.1946   -4.0880    0.0000 C   0  0  0  0  0  0  0  0  0  0  0  0
    0.0000   -2.0276    0.0000 C   0  0  0  0  0  0  0  0  0  0  0  0
    0.0000   -3.3975    0.0000 C   0  0  0  0  0  0  0  0  0  0  0  0
    3.5071    0.0000    0.0000 H   0  0  0  0  0  0  0  0  0  0  0  0
    5.8525    0.0000    0.0000 H   0  0  0  0  0  0  0  0  0  0  0  0
  1  2  1  0  0  0  0
  1  3  1  0  0  0  0
  1  7  1  0  0  0  0
  2  5  1  0  0  0  0
  2  9  2  0  0  0  0
  3  4  1  0  0  0  0
  3 12  2  0  0  0  0
  4  6  2  0  0  0  0
  4  5  1  0  0  0  0
  6  8  1  0  0  0  0
  6 23  1  0  0  0  0
  7 10  1  0  0  0  0
  8 11  2  0  0  0  0
  8 16  1  0  0  0  0
 10 13  2  0  0  0  0
 10 15  1  0  0  0  0
 11 14  1  0  0  0  0
 11 22  1  0  0  0  0
 14 17  1  0  0  0  0
 14 18  2  0  0  0  0
 17 20  2  0  0  0  0
 18 19  1  0  0  0  0
 19 21  2  0  0  0  0
 20 21  1  0  0  0  0
M  END
> <ID>
11716

> <Formula>
C15H13NO3S2

> <FW>
319.3986

> <DSSTox_CID>
26479

> <DSSTox_RID>
81650

> <DSSTox_GSID>
46479

> <DSSTox_FileID_Sort>
6331

> <TS_ChemName>
Epalrestat

> <TS_ChemName_Synonyms>


> <TS_CASRN>
82159-09-9

> <CASRN_ChemName_Relationship>
primary

> <TS_Description>
single chemical compound

> <ChemNote>
stereochem

> <STRUCTURE_Shown>
tested chemical

> <STRUCTURE_Formula>
C15H13NO3S2

> <STRUCTURE_MW>
319.3986

> <STRUCTURE_ChemType>
defined organic

> <STRUCTURE_DefinedOrganicForm>
parent

> <STRUCTURE_IUPAC>
{(5E)-5-[(2E)-2-methyl-3-phenylprop-2-en-1-ylidene]-4-oxo-2-thioxo-1,3-thiazolidin-3-yl}acetic acid

> <STRUCTURE_SMILES>
OC(=O)CN1C(=O)C(\SC1=S)=CC(\C)=C\c2ccccc2

> <STRUCTURE_SMILES_Desalt>
OC(=O)CN1C(=O)C(\SC1=S)=CC(\C)=C\c2ccccc2

> <Substance_modify_yyyymmdd>
20110812

$$$$
