82168-26-1
ChemmineR-0915142007XD

 25 28  0  0  0  0  0  0  0  0  1 V2000
    0.0000   -7.0502    0.0000 C    0  0  0  0  0  0  0  0  0  0  0  0
    1.1795   -6.4605    0.0000 C    0  0  0  0  0  0  0  0  0  0  0  0
    1.1795   -5.2408    0.0000 C    0  0  0  0  0  0  0  0  0  0  0  0
    2.3724   -7.0502    0.0000 C    0  0  0  0  0  0  0  0  0  0  0  0
    0.7372   -5.7903    0.0000 C    0  0  0  0  0  0  0  0  0  0  0  0
    0.7372   -4.5706    0.0000 C    0  0  0  0  0  0  0  0  0  0  0  0
    1.9167   -6.3800    0.0000 C    0  0  0  0  0  0  0  0  0  0  0  0
    1.9167   -3.9808    0.0000 C    0  0  0  0  0  0  0  0  0  0  0  0
    3.1096   -5.7903    0.0000 C    0  0  0  0  0  0  0  0  0  0  0  0
    3.1096   -4.5706    0.0000 C    0  0  0  0  0  0  0  0  0  0  0  0
    1.9167   -2.6539    0.0000 N    0  0  0  0  0  0  0  0  0  0  0  0
    3.0560   -1.9837    0.0000 C    0  0  0  0  0  0  0  0  0  0  0  0
    4.2087   -2.6539    0.0000 C    0  0  0  0  0  0  0  0  0  0  0  0
    5.3614   -1.9837    0.0000 O    0  0  0  0  0  0  0  0  0  0  0  0
    6.5141   -2.6539    0.0000 C    0  0  0  0  0  0  0  0  0  0  0  0
    7.6668   -1.9837    0.0000 C    0  0  0  0  0  0  0  0  0  0  0  0
    6.5141   -3.9808    0.0000 O    0  0  0  0  0  0  0  0  0  0  0  0
    8.8195   -2.6539    0.0000 O    0  0  0  0  0  0  0  0  0  0  0  0
    9.9588   -1.9837    0.0000 C    0  0  0  0  0  0  0  0  0  0  0  0
    9.9588   -0.6568    0.0000 C    0  0  0  0  0  0  0  0  0  0  0  0
   11.1115   -2.6539    0.0000 C    0  0  0  0  0  0  0  0  0  0  0  0
   11.1115    0.0000    0.0000 C    0  0  0  0  0  0  0  0  0  0  0  0
   12.2642   -1.9837    0.0000 C    0  0  0  0  0  0  0  0  0  0  0  0
   12.2642   -0.6568    0.0000 C    0  0  0  0  0  0  0  0  0  0  0  0
   13.4035    0.0000    0.0000 Cl   0  0  0  0  0  0  0  0  0  0  0  0
  1  2  1  0  0  0  0
  1  5  1  0  0  0  0
  2  3  1  0  0  0  0
  2  4  1  0  0  0  0
  3  8  1  0  0  0  0
  4  9  1  0  0  0  0
  5  6  1  0  0  0  0
  5  7  1  0  0  0  0
  6  8  1  0  0  0  0
  7  9  1  0  0  0  0
  8 10  1  0  0  0  0
  8 11  1  0  0  0  0
  9 10  1  0  0  0  0
 11 12  1  0  0  0  0
 12 13  1  0  0  0  0
 13 14  1  0  0  0  0
 14 15  1  0  0  0  0
 15 16  1  0  0  0  0
 15 17  2  0  0  0  0
 16 18  1  0  0  0  0
 18 19  1  0  0  0  0
 19 20  1  0  0  0  0
 19 21  2  0  0  0  0
 20 22  2  0  0  0  0
 21 23  1  0  0  0  0
 22 24  1  0  0  0  0
 23 24  2  0  0  0  0
 24 25  1  0  0  0  0
M  END
> <ID>
11573

> <Formula>
C20H26ClNO3

> <FW>
363.8783

> <DSSTox_CID>
26280

> <DSSTox_RID>
81506

> <DSSTox_GSID>
46280

> <DSSTox_FileID_Sort>
6187

> <TS_ChemName>
Adafenoxate

> <TS_ChemName_Synonyms>


> <TS_CASRN>
82168-26-1

> <CASRN_ChemName_Relationship>
primary

> <TS_Description>
single chemical compound

> <ChemNote>


> <STRUCTURE_Shown>
tested chemical

> <STRUCTURE_Formula>
C20H26ClNO3

> <STRUCTURE_MW>
363.8783

> <STRUCTURE_ChemType>
defined organic

> <STRUCTURE_DefinedOrganicForm>
parent

> <STRUCTURE_IUPAC>
2-(tricyclo[3.3.1.1~3,7~]dec-1-ylamino)ethyl (4-chlorophenoxy)acetate

> <STRUCTURE_SMILES>
Clc1ccc(cc1)OCC(=O)OCCNC24CC3CC(CC(C2)C3)C4

> <STRUCTURE_SMILES_Desalt>
Clc1ccc(cc1)OCC(=O)OCCNC24CC3CC(CC(C2)C3)C4

> <Substance_modify_yyyymmdd>
20110815

$$$$
