82186-77-4
ChemmineR-0915142007XD

 35 38  0  0  0  0  0  0  0  0  1 V2000
    0.0000   -7.5403    0.0000 C    0  0  0  0  0  0  0  0  0  0  0  0
    1.3289   -7.5403    0.0000 C    0  0  0  0  0  0  0  0  0  0  0  0
    2.0008   -6.3906    0.0000 C    0  0  0  0  0  0  0  0  0  0  0  0
    3.3297   -6.3906    0.0000 C    0  0  0  0  0  0  0  0  0  0  0  0
    3.9867   -7.5403    0.0000 N    0  0  0  0  0  0  0  0  0  0  0  0
    3.3297   -8.6901    0.0000 C    0  0  0  0  0  0  0  0  0  0  0  0
    2.0008   -8.6901    0.0000 C    0  0  0  0  0  0  0  0  0  0  0  0
    1.3289   -9.8398    0.0000 C    0  0  0  0  0  0  0  0  0  0  0  0
    0.0000   -9.8398    0.0000 C    0  0  0  0  0  0  0  0  0  0  0  0
    5.3156   -7.5403    0.0000 C    0  0  0  0  0  0  0  0  0  0  0  0
    5.9875   -6.3906    0.0000 C    0  0  0  0  0  0  0  0  0  0  0  0
    5.3156   -5.2409    0.0000 O    0  0  0  0  0  0  0  0  0  0  0  0
    7.3164   -6.3906    0.0000 C    0  0  0  0  0  0  0  0  0  0  0  0
    7.9733   -5.2409    0.0000 C    0  0  0  0  0  0  0  0  0  0  0  0
    7.5702   -3.9717    0.0000 C    0  0  0  0  0  0  0  0  0  0  0  0
    6.3458   -3.4342    0.0000 C    0  0  0  0  0  0  0  0  0  0  0  0
    6.2114   -2.1053    0.0000 C    0  0  0  0  0  0  0  0  0  0  0  0
    7.2865   -1.3289    0.0000 C    0  0  0  0  0  0  0  0  0  0  0  0
    7.1521    0.0000    0.0000 Cl   0  0  0  0  0  0  0  0  0  0  0  0
    8.4959   -1.8664    0.0000 C    0  0  0  0  0  0  0  0  0  0  0  0
    8.6453   -3.1953    0.0000 C    0  0  0  0  0  0  0  0  0  0  0  0
    9.7203   -3.9717    0.0000 C    0  0  0  0  0  0  0  0  0  0  0  0
   10.9746   -3.5537    0.0000 C    0  0  0  0  0  0  0  0  0  0  0  0
   11.9750   -4.4495    0.0000 C    0  0  0  0  0  0  0  0  0  0  0  0
   13.2292   -4.0315    0.0000 C    0  0  0  0  0  0  0  0  0  0  0  0
   14.2147   -4.9274    0.0000 C    0  0  0  0  0  0  0  0  0  0  0  0
   13.9459   -6.2264    0.0000 C    0  0  0  0  0  0  0  0  0  0  0  0
   14.9314   -7.1223    0.0000 Cl   0  0  0  0  0  0  0  0  0  0  0  0
   12.6767   -6.6445    0.0000 C    0  0  0  0  0  0  0  0  0  0  0  0
   11.6913   -5.7486    0.0000 C    0  0  0  0  0  0  0  0  0  0  0  0
    9.3022   -5.2409    0.0000 C    0  0  0  0  0  0  0  0  0  0  0  0
    9.9742   -6.3906    0.0000 C    0  0  0  0  0  0  0  0  0  0  0  0
    9.3022   -7.5403    0.0000 C    0  0  0  0  0  0  0  0  0  0  0  0
    7.9733   -7.5403    0.0000 C    0  0  0  0  0  0  0  0  0  0  0  0
    9.9742   -8.6901    0.0000 Cl   0  0  0  0  0  0  0  0  0  0  0  0
  1  2  1  0  0  0  0
  2  3  1  0  0  0  0
  3  4  1  0  0  0  0
  4  5  1  0  0  0  0
  5  6  1  0  0  0  0
  5 10  1  0  0  0  0
  6  7  1  0  0  0  0
  7  8  1  0  0  0  0
  8  9  1  0  0  0  0
 10 11  1  0  0  0  0
 11 12  1  0  0  0  0
 11 13  1  0  0  0  0
 13 14  2  0  0  0  0
 13 34  1  0  0  0  0
 14 15  1  0  0  0  0
 14 31  1  0  0  0  0
 15 16  2  0  0  0  0
 15 21  1  0  0  0  0
 16 17  1  0  0  0  0
 17 18  2  0  0  0  0
 18 19  1  0  0  0  0
 18 20  1  0  0  0  0
 20 21  2  0  0  0  0
 21 22  1  0  0  0  0
 22 23  2  0  0  0  0
 22 31  1  0  0  0  0
 23 24  1  0  0  0  0
 24 25  2  0  0  0  0
 24 30  1  0  0  0  0
 25 26  1  0  0  0  0
 26 27  2  0  0  0  0
 27 28  1  0  0  0  0
 27 29  1  0  0  0  0
 29 30  2  0  0  0  0
 31 32  2  0  0  0  0
 32 33  1  0  0  0  0
 33 34  2  0  0  0  0
 33 35  1  0  0  0  0
M  END
> <ID>
11870

> <Formula>
C30H32Cl3NO

> <FW>
528.9402

> <DSSTox_CID>
26663

> <DSSTox_RID>
81805

> <DSSTox_GSID>
46663

> <DSSTox_FileID_Sort>
6486

> <TS_ChemName>
Lumefantrine

> <TS_ChemName_Synonyms>


> <TS_CASRN>
82186-77-4

> <CASRN_ChemName_Relationship>
primary

> <TS_Description>
single chemical compound

> <ChemNote>
stereochem

> <STRUCTURE_Shown>
tested chemical

> <STRUCTURE_Formula>
C30H32Cl3NO

> <STRUCTURE_MW>
528.9402

> <STRUCTURE_ChemType>
defined organic

> <STRUCTURE_DefinedOrganicForm>
parent

> <STRUCTURE_IUPAC>
2-(dibutylamino)-1-[(9Z)-2,7-dichloro-9-(4-chlorobenzylidene)-9H-fluoren-4-yl]ethanol

> <STRUCTURE_SMILES>
CCCCN(CCCC)CC(O)c4cc(Cl)cc3c4c1ccc(Cl)cc1\C3=C\c2ccc(Cl)cc2

> <STRUCTURE_SMILES_Desalt>
CCCCN(CCCC)CC(O)c4cc(Cl)cc3c4c1ccc(Cl)cc1\C3=C\c2ccc(Cl)cc2

> <Substance_modify_yyyymmdd>
20110808

$$$$
