822-36-6
ChemmineR-0915142007XD

  6  6  0  0  0  0  0  0  0  0  1 V2000
    0.0000   -1.0738    0.0000 C   0  0  0  0  0  0  0  0  0  0  0  0
    1.3304   -1.0738    0.0000 C   0  0  0  0  0  0  0  0  0  0  0  0
    2.1104    0.0000    0.0000 C   0  0  0  0  0  0  0  0  0  0  0  0
    3.3767   -0.4086    0.0000 N   0  0  0  0  0  0  0  0  0  0  0  0
    3.3767   -1.7390    0.0000 C   0  0  0  0  0  0  0  0  0  0  0  0
    2.1104   -2.1509    0.0000 N   0  0  0  0  0  0  0  0  0  0  0  0
  1  2  1  0  0  0  0
  2  3  2  0  0  0  0
  2  6  1  0  0  0  0
  3  4  1  0  0  0  0
  4  5  1  0  0  0  0
  5  6  2  0  0  0  0
M  END
> <ID>
4303

> <Formula>
C4H6N2

> <FW>
82.1038

> <DSSTox_CID>
5617

> <DSSTox_RID>
77856

> <DSSTox_GSID>
25617

> <DSSTox_FileID_Sort>
2539

> <TS_ChemName>
4-Methylimidazole

> <TS_ChemName_Synonyms>


> <TS_CASRN>
822-36-6

> <CASRN_ChemName_Relationship>
primary

> <TS_Description>
single chemical compound

> <ChemNote>


> <STRUCTURE_Shown>
tested chemical

> <STRUCTURE_Formula>
C4H6N2

> <STRUCTURE_MW>
82.1038

> <STRUCTURE_ChemType>
defined organic

> <STRUCTURE_DefinedOrganicForm>
parent

> <STRUCTURE_IUPAC>
4-methyl-1H-imidazole

> <STRUCTURE_SMILES>
Cc1cncn1

> <STRUCTURE_SMILES_Desalt>
Cc1cncn1

> <Substance_modify_yyyymmdd>
20080429

$$$$
