822-06-0
ChemmineR-0915142007XD

 12 11  0  0  0  0  0  0  0  0  1 V2000
    0.0000   -2.0047    0.0000 O   0  0  0  0  0  0  0  0  0  0  0  0
    1.1546   -1.3323    0.0000 C   0  0  0  0  0  0  0  0  0  0  0  0
   11.5336   -0.6725    0.0000 C   0  0  0  0  0  0  0  0  0  0  0  0
    2.3093   -0.6725    0.0000 N   0  0  0  0  0  0  0  0  0  0  0  0
    3.4512   -1.3323    0.0000 C   0  0  0  0  0  0  0  0  0  0  0  0
    4.6058   -0.6725    0.0000 C   0  0  0  0  0  0  0  0  0  0  0  0
    5.7605   -1.3323    0.0000 C   0  0  0  0  0  0  0  0  0  0  0  0
    6.9151   -0.6725    0.0000 C   0  0  0  0  0  0  0  0  0  0  0  0
    8.0697   -1.3323    0.0000 C   0  0  0  0  0  0  0  0  0  0  0  0
    9.2244   -0.6725    0.0000 C   0  0  0  0  0  0  0  0  0  0  0  0
   10.3790   -1.3323    0.0000 N   0  0  0  0  0  0  0  0  0  0  0  0
   12.6883    0.0000    0.0000 O   0  0  0  0  0  0  0  0  0  0  0  0
  1  2  2  0  0  0  0
  2  4  2  0  0  0  0
  3 11  2  0  0  0  0
  3 12  2  0  0  0  0
  4  5  1  0  0  0  0
  5  6  1  0  0  0  0
  6  7  1  0  0  0  0
  7  8  1  0  0  0  0
  8  9  1  0  0  0  0
  9 10  1  0  0  0  0
 10 11  1  0  0  0  0
M  END
> <ID>
3525

> <Formula>
C8H12N2O2

> <FW>
168.1931

> <DSSTox_CID>
4143

> <DSSTox_RID>
77303

> <DSSTox_GSID>
24143

> <DSSTox_FileID_Sort>
1986

> <TS_ChemName>
1,6-Diisocyanatohexane

> <TS_ChemName_Synonyms>
1,6-Diisocyanatohexane (1,6-Hexamethylene diisocyanate)

> <TS_CASRN>
822-06-0

> <CASRN_ChemName_Relationship>
primary

> <TS_Description>
single chemical compound

> <ChemNote>


> <STRUCTURE_Shown>
tested chemical

> <STRUCTURE_Formula>
C8H12N2O2

> <STRUCTURE_MW>
168.1931

> <STRUCTURE_ChemType>
defined organic

> <STRUCTURE_DefinedOrganicForm>
parent

> <STRUCTURE_IUPAC>
1,6-diisocyanatohexane

> <STRUCTURE_SMILES>
O=C=N/CCCCCC\N=C=O

> <STRUCTURE_SMILES_Desalt>
O=C=N/CCCCCC\N=C=O

> <Substance_modify_yyyymmdd>
20080429

$$$$
