82219-78-1_1
ChemmineR-0915142007XD

 35 37  0  0  1  0  0  0  0  0  1 V2000
    6.1693   -6.5944    0.0000 N    0  0  0  0  0  0  0  0  0  0  0  0
    4.6391   -6.5944    0.0000 C    0  0  0  0  0  0  0  0  0  0  0  0
    4.6391   -5.1613    0.0000 C    0  0  0  0  0  0  0  0  0  0  0  0
    6.1693   -5.1613    0.0000 C    0  0  0  0  0  0  0  0  0  0  0  0
    7.2987   -7.2380    0.0000 C    0  0  0  0  0  0  0  0  0  0  0  0
    1.1659   -3.1332    0.0000 C    0  0  0  0  0  0  0  0  0  0  0  0
    1.1659   -4.4934    0.0000 C    0  0  0  0  0  0  0  0  0  0  0  0
    2.2346   -2.3681    0.0000 N    0  0  0  0  0  0  0  0  0  0  0  0
    3.4854   -4.4934    0.0000 N    0  0  0  0  0  0  0  0  0  0  0  0
    2.3196   -5.1613    0.0000 C    0  0  0  0  0  0  0  0  0  0  0  0
    7.2987   -4.4934    0.0000 S    0  0  0  0  0  0  0  0  0  0  0  0
    8.4767   -6.5579    0.0000 C    0  0  0  0  0  0  0  0  0  0  0  0
   10.1526   -3.2061    0.0000 N    0  0  0  0  0  0  0  0  0  0  0  0
   10.8327   -5.2220    0.0000 C    0  0  0  0  0  0  0  0  0  0  0  0
    1.8216   -1.0808    0.0000 C    0  0  0  0  0  0  0  0  0  0  0  0
    9.7762   -4.4934    0.0000 S    0  0  0  0  0  0  0  0  0  0  0  0
   11.4764   -3.2061    0.0000 N    0  0  0  0  0  0  0  0  0  0  0  0
   11.8528   -4.4934    0.0000 C    0  0  0  0  0  0  0  0  0  0  0  0
    0.0607   -2.3681    0.0000 C    0  0  0  0  0  0  0  0  0  0  0  0
    0.4858   -1.0808    0.0000 S    0  0  0  0  0  0  0  0  0  0  0  0
    7.2987   -8.5496    0.0000 C    0  0  0  0  0  0  0  0  0  0  0  0
    8.4767   -5.1613    0.0000 C    0  0  0  0  0  0  0  0  0  0  0  0
    0.0000   -5.1613    0.0000 N    0  0  0  0  0  0  0  0  0  0  0  0
    3.8376   -7.5295    0.0000 O    0  0  0  0  0  0  0  0  0  0  0  0
   10.8327   -6.4972    0.0000 S    0  0  0  0  0  0  0  0  0  0  0  0
    9.6790   -7.1773    0.0000 C    0  0  0  0  0  0  0  0  0  0  0  0
    2.3196   -6.4972    0.0000 O    0  0  0  0  0  0  0  0  0  0  0  0
    8.4281   -9.2418    0.0000 O    0  0  0  0  0  0  0  0  0  0  0  0
    2.6110    0.0000    0.0000 N    0  0  0  0  0  0  0  0  0  0  0  0
    6.2057   -9.2418    0.0000 O    0  0  0  0  0  0  0  0  0  0  0  0
    0.0000   -6.4972    0.0000 O    0  0  0  0  0  0  0  0  0  0  0  0
    1.1659   -7.1773    0.0000 C    0  0  0  0  0  0  0  0  0  0  0  0
    6.1693   -4.1169    0.0000 H    0  0  0  0  0  0  0  0  0  0  0  0
    4.6634   -4.0926    0.0000 H    0  0  0  0  0  0  0  0  0  0  0  0
   12.1443   -7.7116    0.0000 Cl   0  0  0  0  0  0  0  0  0  0  0  0
  1  2  1  0  0  0  0
  1  4  1  0  0  0  0
  1  5  1  0  0  0  0
  2 24  2  0  0  0  0
  2  3  1  0  0  0  0
  3  4  1  0  0  0  0
  3  9  1  1  0  0  0
  3 34  1  6  0  0  0
  4 11  1  0  0  0  0
  4 33  1  6  0  0  0
  5 12  2  0  0  0  0
  5 21  1  0  0  0  0
  6  7  1  0  0  0  0
  6  8  1  0  0  0  0
  6 19  2  0  0  0  0
  7 10  1  0  0  0  0
  7 23  2  0  0  0  0
  8 15  2  0  0  0  0
  9 10  1  0  0  0  0
 10 27  2  0  0  0  0
 11 22  1  0  0  0  0
 12 22  1  0  0  0  0
 12 26  1  0  0  0  0
 13 16  1  0  0  0  0
 13 17  2  0  0  0  0
 14 25  1  0  0  0  0
 14 16  1  0  0  0  0
 14 18  2  0  0  0  0
 15 29  1  0  0  0  0
 15 20  1  0  0  0  0
 17 18  1  0  0  0  0
 19 20  1  0  0  0  0
 21 28  2  0  0  0  0
 21 30  1  0  0  0  0
 23 31  1  0  0  0  0
 25 26  1  0  0  0  0
 31 32  1  0  0  0  0
M  END
> <ID>
11979

> <Formula>
C16H16ClN7O5S4

> <FW>
550.0551 (513.5942+36.4609)

> <DSSTox_CID>
26800

> <DSSTox_RID>
81915

> <DSSTox_GSID>
46800

> <DSSTox_FileID_Sort>
6596

> <TS_ChemName>
Cefuzonam hydrochloride

> <TS_ChemName_Synonyms>


> <TS_CASRN>
82219-78-1_1

> <CASRN_ChemName_Relationship>
CAS for parent

> <TS_Description>
single chemical compound

> <ChemNote>
stereochem; parent [82219-78-1]

> <STRUCTURE_Shown>
tested chemical

> <STRUCTURE_Formula>
C16H16ClN7O5S4

> <STRUCTURE_MW>
550.0551

> <STRUCTURE_ChemType>
defined organic

> <STRUCTURE_DefinedOrganicForm>
complex

> <STRUCTURE_IUPAC>
(6R,7R)-7-{[(2Z)-2-(2-amino-1,3-thiazol-4-yl)-2-(methoxyimino)acetyl]amino}-8-oxo-3-[(1,2,3-thiadiazol-5-ylsulfanyl)methyl]-5-thia-1-azabicyclo[4.2.0]oct-2-ene-2-carboxylic acid hydrochloride (1:1)

> <STRUCTURE_SMILES>
Cl.Nc1scc(n1)\C(=N\OC)C(=O)N[C@@H]3C(=O)N2C(=C(CS[C@@H]23)CSc4cnns4)C(=O)O

> <STRUCTURE_SMILES_Desalt>
Nc1scc(n1)\C(=N\OC)C(=O)N[C@@H]3C(=O)N2C(=C(CS[C@@H]23)CSc4cnns4)C(=O)O

> <Substance_modify_yyyymmdd>
20130911

$$$$
