823-40-5
ChemmineR-0915142007XD

  9  9  0  0  0  0  0  0  0  0  1 V2000
    3.4478   -2.0070    0.0000 C   0  0  0  0  0  0  0  0  0  0  0  0
    3.4478   -3.3374    0.0000 C   0  0  0  0  0  0  0  0  0  0  0  0
    2.3108   -3.9956    0.0000 C   0  0  0  0  0  0  0  0  0  0  0  0
    1.1554   -3.3374    0.0000 C   0  0  0  0  0  0  0  0  0  0  0  0
    1.1554   -2.0070    0.0000 C   0  0  0  0  0  0  0  0  0  0  0  0
    2.3108   -1.3349    0.0000 C   0  0  0  0  0  0  0  0  0  0  0  0
    4.6033   -1.3349    0.0000 N   0  0  0  0  0  0  0  0  0  0  0  0
    0.0000   -1.3349    0.0000 N   0  0  0  0  0  0  0  0  0  0  0  0
    2.3108    0.0000    0.0000 C   0  0  0  0  0  0  0  0  0  0  0  0
  1  2  2  0  0  0  0
  1  6  1  0  0  0  0
  1  7  1  0  0  0  0
  2  3  1  0  0  0  0
  3  4  2  0  0  0  0
  4  5  1  0  0  0  0
  5  6  2  0  0  0  0
  5  8  1  0  0  0  0
  6  9  1  0  0  0  0
M  END
> <ID>
5074

> <Formula>
C7H10N2

> <FW>
122.1677

> <DSSTox_CID>
7319

> <DSSTox_RID>
78404

> <DSSTox_GSID>
27319

> <DSSTox_FileID_Sort>
3087

> <TS_ChemName>
2,6-Toluenediamine

> <TS_ChemName_Synonyms>
1,3-Benzenediamine, 2-methyl-

> <TS_CASRN>
823-40-5

> <CASRN_ChemName_Relationship>
primary

> <TS_Description>
single chemical compound

> <ChemNote>


> <STRUCTURE_Shown>
tested chemical

> <STRUCTURE_Formula>
C7H10N2

> <STRUCTURE_MW>
122.1677

> <STRUCTURE_ChemType>
defined organic

> <STRUCTURE_DefinedOrganicForm>
parent

> <STRUCTURE_IUPAC>
2-methylbenzene-1,3-diamine

> <STRUCTURE_SMILES>
Nc1cccc(N)c1C

> <STRUCTURE_SMILES_Desalt>
Nc1cccc(N)c1C

> <Substance_modify_yyyymmdd>
20080429

$$$$
