82318-06-7
ChemmineR-0915142007XD

 97103  0  0  1  0  0  0  0  0  1 V2000
    3.2716   -1.1238    0.0000 C   0  0  0  0  0  0  0  0  0  0  0  0
    2.6222   -2.2976    0.0000 C   0  0  0  0  0  0  0  0  0  0  0  0
    2.6222    0.0000    0.0000 C   0  0  0  0  0  0  0  0  0  0  0  0
    1.2986   -2.2976    0.0000 C   0  0  0  0  0  0  0  0  0  0  0  0
    1.2986    0.0000    0.0000 C   0  0  0  0  0  0  0  0  0  0  0  0
    0.6243   -1.1238    0.0000 C   0  0  0  0  0  0  0  0  0  0  0  0
    3.0218   -3.5463    0.0000 C   0  0  0  0  0  0  0  0  0  0  0  0
    1.9480   -4.3454    0.0000 C   0  0  0  0  0  0  0  0  0  0  0  0
    0.8741   -3.5463    0.0000 N   0  0  0  0  0  0  0  0  0  0  0  0
    4.3704   -3.5463    0.0000 C   0  0  0  0  0  0  0  0  0  0  0  0
    5.4942   -4.2206    0.0000 C   0  0  0  0  0  0  0  0  0  0  0  0
    5.4942   -5.5442    0.0000 N   0  0  0  0  0  0  0  0  0  0  0  0
    6.6680   -3.5463    0.0000 C   0  0  0  0  0  0  0  0  0  0  0  0
    6.6680   -2.2227    0.0000 O   0  0  0  0  0  0  0  0  0  0  0  0
    7.8168   -4.2206    0.0000 N   0  0  0  0  0  0  0  0  0  0  0  0
    7.8168   -5.5442    0.0000 C   0  0  0  0  0  0  0  0  0  0  0  0
    6.6430   -6.2185    0.0000 C   0  0  0  0  0  0  0  0  0  0  0  0
    8.9406   -6.2185    0.0000 C   0  0  0  0  0  0  0  0  0  0  0  0
    6.6430   -7.5421    0.0000 O   0  0  0  0  0  0  0  0  0  0  0  0
    8.9406   -7.5670    0.0000 N   0  0  0  0  0  0  0  0  0  0  0  0
   10.1144   -5.5691    0.0000 O   0  0  0  0  0  0  0  0  0  0  0  0
   10.0894   -8.2413    0.0000 C   0  0  0  0  0  0  0  0  0  0  0  0
   10.0894   -9.5649    0.0000 C   0  0  0  0  0  0  0  0  0  0  0  0
   11.2632   -7.5670    0.0000 C   0  0  0  0  0  0  0  0  0  0  0  0
   12.3870   -8.2413    0.0000 N   0  0  0  0  0  0  0  0  0  0  0  0
   11.2632   -6.2185    0.0000 O   0  0  0  0  0  0  0  0  0  0  0  0
   11.2382  -10.2143    0.0000 C   0  0  0  0  0  0  0  0  0  0  0  0
   12.3870   -9.5649    0.0000 C   0  0  0  0  0  0  0  0  0  0  0  0
   11.2382  -11.5379    0.0000 C   0  0  0  0  0  0  0  0  0  0  0  0
   13.5358  -10.2392    0.0000 C   0  0  0  0  0  0  0  0  0  0  0  0
   12.3870  -12.2122    0.0000 C   0  0  0  0  0  0  0  0  0  0  0  0
   13.5358  -11.5628    0.0000 C   0  0  0  0  0  0  0  0  0  0  0  0
   14.6846  -12.2371    0.0000 O   0  0  0  0  0  0  0  0  0  0  0  0
   13.5607   -7.5670    0.0000 C   0  0  0  0  0  0  0  0  0  0  0  0
   13.5607   -6.2434    0.0000 C   0  0  0  0  0  0  0  0  0  0  0  0
   14.6846   -8.2413    0.0000 C   0  0  0  0  0  0  0  0  0  0  0  0
   15.8583   -7.5670    0.0000 N   0  0  0  0  0  0  0  0  0  0  0  0
   14.6846   -9.5899    0.0000 O   0  0  0  0  0  0  0  0  0  0  0  0
   17.0071   -8.2413    0.0000 C   0  0  0  0  0  0  0  0  0  0  0  0
   17.0071   -9.5899    0.0000 C   0  0  0  0  0  0  0  0  0  0  0  0
   18.1559   -7.5920    0.0000 C   0  0  0  0  0  0  0  0  0  0  0  0
   19.3047   -8.2663    0.0000 N   0  0  0  0  0  0  0  0  0  0  0  0
   18.1559   -6.2684    0.0000 O   0  0  0  0  0  0  0  0  0  0  0  0
   14.7095   -5.5941    0.0000 C   0  0  0  0  0  0  0  0  0  0  0  0
   14.7095   -4.2705    0.0000 C   0  0  0  0  0  0  0  0  0  0  0  0
   15.9832   -5.9937    0.0000 C   0  0  0  0  0  0  0  0  0  0  0  0
   15.9582   -3.8210    0.0000 C   0  0  0  0  0  0  0  0  0  0  0  0
   16.7574   -4.9198    0.0000 N   0  0  0  0  0  0  0  0  0  0  0  0
   13.7106   -3.3715    0.0000 C   0  0  0  0  0  0  0  0  0  0  0  0
   13.9853   -2.0728    0.0000 C   0  0  0  0  0  0  0  0  0  0  0  0
   16.2329   -2.5473    0.0000 C   0  0  0  0  0  0  0  0  0  0  0  0
   15.2590   -1.6483    0.0000 C   0  0  0  0  0  0  0  0  0  0  0  0
   18.1309  -10.2642    0.0000 C   0  0  0  0  0  0  0  0  0  0  0  0
   18.1309  -11.5878    0.0000 C   0  0  0  0  0  0  0  0  0  0  0  0
   19.3047   -9.5899    0.0000 C   0  0  0  0  0  0  0  0  0  0  0  0
   20.4535   -7.5920    0.0000 C   0  0  0  0  0  0  0  0  0  0  0  0
   21.6023   -8.2663    0.0000 C   0  0  0  0  0  0  0  0  0  0  0  0
   20.4535   -6.2684    0.0000 C   0  0  0  0  0  0  0  0  0  0  0  0
   21.6023   -9.5899    0.0000 O   0  0  0  0  0  0  0  0  0  0  0  0
   22.7761   -7.5920    0.0000 N   0  0  0  0  0  0  0  0  0  0  0  0
   21.6273   -4.2705    0.0000 C   0  0  0  0  0  0  0  0  0  0  0  0
   21.6273   -5.6191    0.0000 C   0  0  0  0  0  0  0  0  0  0  0  0
   20.4535   -3.5962    0.0000 N   0  0  0  0  0  0  0  0  0  0  0  0
   19.3297   -4.2705    0.0000 C   0  0  0  0  0  0  0  0  0  0  0  0
   19.3297   -5.6191    0.0000 N   0  0  0  0  0  0  0  0  0  0  0  0
   18.1559   -3.5962    0.0000 N   0  0  0  0  0  0  0  0  0  0  0  0
   23.1507   -6.3433    0.0000 C   0  0  0  0  0  0  0  0  0  0  0  0
   23.8250   -8.3912    0.0000 C   0  0  0  0  0  0  0  0  0  0  0  0
   24.4993   -6.3433    0.0000 C   0  0  0  0  0  0  0  0  0  0  0  0
   24.8988   -7.5920    0.0000 C   0  0  0  0  0  0  0  0  0  0  0  0
   23.8250   -9.7148    0.0000 C   0  0  0  0  0  0  0  0  0  0  0  0
   22.6762  -10.3891    0.0000 O   0  0  0  0  0  0  0  0  0  0  0  0
   24.9738  -10.3891    0.0000 N   0  0  0  0  0  0  0  0  0  0  0  0
   24.9738  -11.7127    0.0000 C   0  0  0  0  0  0  0  0  0  0  0  0
   23.8250  -12.3620    0.0000 C   0  0  0  0  0  0  0  0  0  0  0  0
    4.3704   -6.2185    0.0000 C   0  0  0  0  0  0  0  0  0  0  0  0
    3.2216   -5.5442    0.0000 O   0  0  0  0  0  0  0  0  0  0  0  0
    4.3704   -7.5421    0.0000 C   0  0  0  0  0  0  0  0  0  0  0  0
    3.2216   -8.2164    0.0000 C   0  0  0  0  0  0  0  0  0  0  0  0
    5.4942   -8.2164    0.0000 N   0  0  0  0  0  0  0  0  0  0  0  0
    2.0478   -7.5421    0.0000 C   0  0  0  0  0  0  0  0  0  0  0  0
    0.7742   -7.9417    0.0000 N   0  0  0  0  0  0  0  0  0  0  0  0
    2.0478   -6.2185    0.0000 C   0  0  0  0  0  0  0  0  0  0  0  0
    0.0000   -6.8678    0.0000 C   0  0  0  0  0  0  0  0  0  0  0  0
    0.7742   -5.7939    0.0000 N   0  0  0  0  0  0  0  0  0  0  0  0
    5.4942   -9.5400    0.0000 C   0  0  0  0  0  0  0  0  0  0  0  0
    6.6680  -10.2143    0.0000 C   0  0  0  0  0  0  0  0  0  0  0  0
    4.3454  -10.1893    0.0000 O   0  0  0  0  0  0  0  0  0  0  0  0
    7.9417   -9.8147    0.0000 C   0  0  0  0  0  0  0  0  0  0  0  0
    6.6680  -11.5379    0.0000 N   0  0  0  0  0  0  0  0  0  0  0  0
    8.7158  -10.8636    0.0000 C   0  0  0  0  0  0  0  0  0  0  0  0
    7.9417  -11.9624    0.0000 C   0  0  0  0  0  0  0  0  0  0  0  0
    8.3412  -13.2111    0.0000 O   0  0  0  0  0  0  0  0  0  0  0  0
   11.3631   -2.1977    0.0000 C   0  0  0  0  0  0  0  0  0  0  0  0
   11.3631   -3.5213    0.0000 O   0  0  0  0  0  0  0  0  0  0  0  0
   12.5118   -1.5484    0.0000 O   0  0  0  0  0  0  0  0  0  0  0  0
   10.2143   -1.5484    0.0000 C   0  0  0  0  0  0  0  0  0  0  0  0
  1  2  1  0  0  0  0
  1  3  2  0  0  0  0
  2  4  2  0  0  0  0
  2  7  1  0  0  0  0
  3  5  1  0  0  0  0
  4  6  1  0  0  0  0
  4  9  1  0  0  0  0
  5  6  2  0  0  0  0
  7  8  2  0  0  0  0
  7 10  1  0  0  0  0
  8  9  1  0  0  0  0
 11 10  1  1  0  0  0
 11 12  1  0  0  0  0
 11 13  1  0  0  0  0
 12 76  1  0  0  0  0
 13 14  2  0  0  0  0
 13 15  1  0  0  0  0
 15 16  1  0  0  0  0
 16 17  1  6  0  0  0
 16 18  1  0  0  0  0
 17 19  1  0  0  0  0
 18 20  1  0  0  0  0
 18 21  2  0  0  0  0
 20 22  1  0  0  0  0
 22 23  1  6  0  0  0
 22 24  1  0  0  0  0
 23 27  1  0  0  0  0
 24 25  1  0  0  0  0
 24 26  2  0  0  0  0
 25 34  1  0  0  0  0
 27 28  1  0  0  0  0
 27 29  2  0  0  0  0
 28 30  2  0  0  0  0
 29 31  1  0  0  0  0
 30 32  1  0  0  0  0
 31 32  2  0  0  0  0
 32 33  1  0  0  0  0
 34 35  1  6  0  0  0
 34 36  1  0  0  0  0
 35 44  1  0  0  0  0
 36 37  1  0  0  0  0
 36 38  2  0  0  0  0
 37 39  1  0  0  0  0
 39 40  1  6  0  0  0
 39 41  1  0  0  0  0
 40 53  1  0  0  0  0
 41 42  1  0  0  0  0
 41 43  2  0  0  0  0
 42 56  1  0  0  0  0
 44 45  1  0  0  0  0
 44 46  2  0  0  0  0
 45 49  1  0  0  0  0
 45 47  2  0  0  0  0
 46 48  1  0  0  0  0
 47 48  1  0  0  0  0
 47 51  1  0  0  0  0
 49 50  2  0  0  0  0
 50 52  1  0  0  0  0
 51 52  2  0  0  0  0
 53 54  1  0  0  0  0
 53 55  1  0  0  0  0
 56 57  1  0  0  0  0
 56 58  1  1  0  0  0
 57 59  2  0  0  0  0
 57 60  1  0  0  0  0
 58 62  1  0  0  0  0
 60 67  1  0  0  0  0
 60 68  1  0  0  0  0
 61 62  1  0  0  0  0
 61 63  1  0  0  0  0
 63 64  1  0  0  0  0
 64 65  2  0  0  0  0
 64 66  1  0  0  0  0
 67 69  1  0  0  0  0
 68 70  1  0  0  0  0
 68 71  1  1  0  0  0
 69 70  1  0  0  0  0
 71 72  2  0  0  0  0
 71 73  1  0  0  0  0
 73 74  1  0  0  0  0
 74 75  1  0  0  0  0
 76 77  2  0  0  0  0
 76 78  1  0  0  0  0
 78 79  1  1  0  0  0
 78 80  1  0  0  0  0
 79 81  1  0  0  0  0
 80 86  1  0  0  0  0
 81 82  1  0  0  0  0
 81 83  2  0  0  0  0
 82 84  2  0  0  0  0
 83 85  1  0  0  0  0
 84 85  1  0  0  0  0
 87 86  1  6  0  0  0
 86 88  2  0  0  0  0
 87 89  1  0  0  0  0
 87 90  1  0  0  0  0
 89 91  1  0  0  0  0
 90 92  1  0  0  0  0
 91 92  1  0  0  0  0
 92 93  2  0  0  0  0
 94 95  2  0  0  0  0
 94 96  1  0  0  0  0
 94 97  1  0  0  0  0
M  END
> <ID>
11882

> <Formula>
C66H87N17O14

> <FW>
1342.5025 (1282.4505+60.0520)

> <DSSTox_CID>
26683

> <DSSTox_RID>
81818

> <DSSTox_GSID>
46683

> <DSSTox_FileID_Sort>
6499

> <TS_ChemName>
Deslorelin acetate

> <TS_ChemName_Synonyms>


> <TS_CASRN>
82318-06-7

> <CASRN_ChemName_Relationship>
primary

> <TS_Description>
single chemical compound

> <ChemNote>
stereochem; tautomers; parent [57773-65-6]

> <STRUCTURE_Shown>
tested chemical

> <STRUCTURE_Formula>
C66H87N17O14

> <STRUCTURE_MW>
1342.5025

> <STRUCTURE_ChemType>
defined organic

> <STRUCTURE_DefinedOrganicForm>
complex

> <STRUCTURE_IUPAC>
5-oxo-L-prolyl-L-histidyl-L-tryptophyl-L-seryl-L-tyrosyl-D-tryptophyl-L-leucyl-L-arginyl-N-ethyl-L-prolinamide acetate (1:1)

> <STRUCTURE_SMILES>
CC(=O)O.O=C1CC[C@H](N1)C(=O)N[C@@H](Cc2cncn2)C(=O)N[C@@H](Cc4cnc3ccccc34)C(=O)N[C@@H](CO)C(=O)N[C@@H](Cc5ccc(O)cc5)C(=O)N[C@H](Cc7cnc6ccccc67)C(=O)N[C@@H](CC(C)C)C(=O)N[C@@H](CCCNC(=N)N)C(=O)N8CCC[C@H]8C(=O)NCC

> <STRUCTURE_SMILES_Desalt>
O=C1CC[C@H](N1)C(=O)N[C@@H](Cc2cncn2)C(=O)N[C@@H](Cc4cnc3ccccc34)C(=O)N[C@@H](CO)C(=O)N[C@@H](Cc5ccc(O)cc5)C(=O)N[C@H](Cc7cnc6ccccc67)C(=O)N[C@@H](CC(C)C)C(=O)N[C@@H](CCCNC(=N)N)C(=O)N8CCC[C@H]8C(=O)NCC

> <Substance_modify_yyyymmdd>
20110805

$$$$
