824-72-6
ChemmineR-0915142007XD

 10 10  0  0  0  0  0  0  0  0  1 V2000
    3.9888   -1.3296    0.0000 P    0  0  0  0  0  0  0  0  0  0  0  0
    3.9888   -2.6592    0.0000 O    0  0  0  0  0  0  0  0  0  0  0  0
    5.3185   -1.3296    0.0000 Cl   0  0  0  0  0  0  0  0  0  0  0  0
    3.9888    0.0000    0.0000 Cl   0  0  0  0  0  0  0  0  0  0  0  0
    0.6595   -2.4837    0.0000 C    0  0  0  0  0  0  0  0  0  0  0  0
    0.0000   -1.3296    0.0000 C    0  0  0  0  0  0  0  0  0  0  0  0
    0.6595   -0.1755    0.0000 C    0  0  0  0  0  0  0  0  0  0  0  0
    1.9838   -0.1755    0.0000 C    0  0  0  0  0  0  0  0  0  0  0  0
    2.6592   -1.3296    0.0000 C    0  0  0  0  0  0  0  0  0  0  0  0
    1.9838   -2.4837    0.0000 C    0  0  0  0  0  0  0  0  0  0  0  0
  1  2  2  0  0  0  0
  1  4  1  0  0  0  0
  1  3  1  0  0  0  0
  1  9  1  0  0  0  0
  5 10  2  0  0  0  0
  5  6  1  0  0  0  0
  6  7  2  0  0  0  0
  7  8  1  0  0  0  0
  8  9  2  0  0  0  0
  9 10  1  0  0  0  0
M  END
> <ID>
10384

> <Formula>
C6H5Cl2OP

> <FW>
194.9831

> <DSSTox_CID>
24732

> <DSSTox_RID>
80429

> <DSSTox_GSID>
44732

> <DSSTox_FileID_Sort>
5111

> <TS_ChemName>
Phenylphosphonic dichloride

> <TS_ChemName_Synonyms>
Phenylphosphonic dichloride (Phosphonic dichloride, phenyl-)

> <TS_CASRN>
824-72-6

> <CASRN_ChemName_Relationship>
primary

> <TS_Description>
single chemical compound

> <ChemNote>


> <STRUCTURE_Shown>
tested chemical

> <STRUCTURE_Formula>
C6H5Cl2OP

> <STRUCTURE_MW>
194.9831

> <STRUCTURE_ChemType>
defined organic

> <STRUCTURE_DefinedOrganicForm>
parent

> <STRUCTURE_IUPAC>
phenylphosphonic dichloride

> <STRUCTURE_SMILES>
ClP(=O)(Cl)c1ccccc1

> <STRUCTURE_SMILES_Desalt>
ClP(=O)(Cl)c1ccccc1

> <Substance_modify_yyyymmdd>
20091116

$$$$
