824-78-2
ChemmineR-0915142007XD

 11 10  0  0  0  0  0  0  0  0  2 V2000
    1.1503   -1.4106    0.0000 C    0  0  0  0  0  0  0  0  0  0  0  0
    2.3066   -2.0644    0.0000 C    0  0  0  0  0  0  0  0  0  0  0  0
    2.3066   -3.3963    0.0000 C    0  0  0  0  0  0  0  0  0  0  0  0
    1.1503   -4.0683    0.0000 C    0  0  0  0  0  0  0  0  0  0  0  0
    0.0000   -3.3963    0.0000 C    0  0  0  0  0  0  0  0  0  0  0  0
    0.0000   -2.0644    0.0000 C    0  0  0  0  0  0  0  0  0  0  0  0
    1.1503   -0.0787    0.0000 O    0  5  0  0  0  0  0  0  0  0  0  0
    1.1503   -5.4002    0.0000 N    0  3  0  0  0  0  0  0  0  0  0  0
    2.3066   -6.0540    0.0000 O    0  5  0  0  0  0  0  0  0  0  0  0
    0.0000   -6.0540    0.0000 O    0  0  0  0  0  0  0  0  0  0  0  0
    2.9604    0.0000    0.0000 Na   0  3  0  0  0  0  0  0  0  0  0  0
  1  2  2  0  0  0  0
  1  6  1  0  0  0  0
  1  7  1  0  0  0  0
  2  3  1  0  0  0  0
  3  4  2  0  0  0  0
  4  5  1  0  0  0  0
  4  8  1  0  0  0  0
  5  6  2  0  0  0  0
  8  9  1  0  0  0  0
  8 10  2  0  0  0  0
M  END
> <ID>
5075

> <Formula>
C6H4NNaO3

> <FW>
161.0906 (138.1014+22.9892)

> <DSSTox_CID>
7320

> <DSSTox_RID>
78405

> <DSSTox_GSID>
27320

> <DSSTox_FileID_Sort>
3088

> <TS_ChemName>
Sodium 4-nitrophenolate

> <TS_ChemName_Synonyms>
Phenol, 4-nitro-, sodium salt) (p-Nitrophenol sodium salt

> <TS_CASRN>
824-78-2

> <CASRN_ChemName_Relationship>
primary

> <TS_Description>
single chemical compound

> <ChemNote>
parent [824-78-2]

> <STRUCTURE_Shown>
tested chemical

> <STRUCTURE_Formula>
C6H4NNaO3

> <STRUCTURE_MW>
161.0906

> <STRUCTURE_ChemType>
defined organic

> <STRUCTURE_DefinedOrganicForm>
salt

> <STRUCTURE_IUPAC>
sodium 4-nitrophenolate

> <STRUCTURE_SMILES>
[Na+].O=[N+]([O-])c1ccc([O-])cc1

> <STRUCTURE_SMILES_Desalt>
O=[N+]([O-])c1ccc(O)cc1

> <Substance_modify_yyyymmdd>
20080429

$$$$
