82410-32-0
ChemmineR-0915142007XD

 18 19  0  0  0  0  0  0  0  0  1 V2000
    3.4629   -3.3157    0.0000 C   0  0  0  0  0  0  0  0  0  0  0  0
    3.4629   -1.9832    0.0000 C   0  0  0  0  0  0  0  0  0  0  0  0
    2.3009   -3.9820    0.0000 N   0  0  0  0  0  0  0  0  0  0  0  0
    4.7567   -3.7263    0.0000 N   0  0  0  0  0  0  0  0  0  0  0  0
    1.1621   -1.9832    0.0000 N   0  0  0  0  0  0  0  0  0  0  0  0
    4.7180   -1.5881    0.0000 N   0  0  0  0  0  0  0  0  0  0  0  0
    2.3009   -1.3247    0.0000 C   0  0  0  0  0  0  0  0  0  0  0  0
    1.1621   -3.3157    0.0000 C   0  0  0  0  0  0  0  0  0  0  0  0
    5.5004   -2.6572    0.0000 C   0  0  0  0  0  0  0  0  0  0  0  0
    4.7567   -5.0898    0.0000 C   0  0  0  0  0  0  0  0  0  0  0  0
    2.3009    0.0000    0.0000 O   0  0  0  0  0  0  0  0  0  0  0  0
    0.0000   -3.9820    0.0000 N   0  0  0  0  0  0  0  0  0  0  0  0
    3.6101   -5.7483    0.0000 O   0  0  0  0  0  0  0  0  0  0  0  0
    3.6101   -7.0731    0.0000 C   0  0  0  0  0  0  0  0  0  0  0  0
    1.3247   -7.0731    0.0000 O   0  0  0  0  0  0  0  0  0  0  0  0
    5.9110   -7.0731    0.0000 O   0  0  0  0  0  0  0  0  0  0  0  0
    4.7722   -7.7471    0.0000 C   0  0  0  0  0  0  0  0  0  0  0  0
    2.4713   -7.7471    0.0000 C   0  0  0  0  0  0  0  0  0  0  0  0
  1  2  2  0  0  0  0
  1  3  1  0  0  0  0
  1  4  1  0  0  0  0
  2  6  1  0  0  0  0
  2  7  1  0  0  0  0
  3  8  2  0  0  0  0
  4  9  1  0  0  0  0
  4 10  1  0  0  0  0
  5  8  1  0  0  0  0
  5  7  1  0  0  0  0
  6  9  2  0  0  0  0
  7 11  2  0  0  0  0
  8 12  1  0  0  0  0
 10 13  1  0  0  0  0
 13 14  1  0  0  0  0
 14 17  1  0  0  0  0
 14 18  1  0  0  0  0
 15 18  1  0  0  0  0
 16 17  1  0  0  0  0
M  END
> <ID>
8054

> <Formula>
C9H13N5O4

> <FW>
255.2306

> <DSSTox_CID>
21032

> <DSSTox_RID>
79613

> <DSSTox_GSID>
41032

> <DSSTox_FileID_Sort>
4295

> <TS_ChemName>
Ganciclovir

> <TS_ChemName_Synonyms>


> <TS_CASRN>
82410-32-0

> <CASRN_ChemName_Relationship>
primary

> <TS_Description>
single chemical compound

> <ChemNote>


> <STRUCTURE_Shown>
tested chemical

> <STRUCTURE_Formula>
C9H13N5O4

> <STRUCTURE_MW>
255.2306

> <STRUCTURE_ChemType>
defined organic

> <STRUCTURE_DefinedOrganicForm>
parent

> <STRUCTURE_IUPAC>
2-amino-9-{[(1,3-dihydroxypropan-2-yl)oxy]methyl}-1,9-dihydro-6H-purin-6-one

> <STRUCTURE_SMILES>
OCC(CO)OCn2cnc1c2N=C(N)NC1=O

> <STRUCTURE_SMILES_Desalt>
OCC(CO)OCn2cnc1c2N=C(N)NC1=O

> <Substance_modify_yyyymmdd>
20080429

$$$$
