82419-36-1
ChemmineR-0915142007XD

 26 29  0  0  0  0  0  0  0  0  1 V2000
    8.0642   -1.9959    0.0000 N   0  0  0  0  0  0  0  0  0  0  0  0
    9.2294   -3.9917    0.0000 C   0  0  0  0  0  0  0  0  0  0  0  0
    6.9221   -2.6535    0.0000 C   0  0  0  0  0  0  0  0  0  0  0  0
    5.7799   -1.9959    0.0000 C   0  0  0  0  0  0  0  0  0  0  0  0
    6.9221   -3.9917    0.0000 C   0  0  0  0  0  0  0  0  0  0  0  0
    9.2294   -2.6535    0.0000 C   0  0  0  0  0  0  0  0  0  0  0  0
    8.0642   -4.6493    0.0000 C   0  0  0  0  0  0  0  0  0  0  0  0
    4.6262   -2.6535    0.0000 C   0  0  0  0  0  0  0  0  0  0  0  0
    5.7799   -0.6691    0.0000 O   0  0  0  0  0  0  0  0  0  0  0  0
    4.6262   -3.9917    0.0000 C   0  0  0  0  0  0  0  0  0  0  0  0
    5.7799   -4.6493    0.0000 C   0  0  0  0  0  0  0  0  0  0  0  0
    3.4841   -1.9959    0.0000 N   0  0  0  0  0  0  0  0  0  0  0  0
   10.3831   -4.6609    0.0000 C   0  0  0  0  0  0  0  0  0  0  0  0
    8.0642   -0.6691    0.0000 C   0  0  0  0  0  0  0  0  0  0  0  0
    1.1652   -0.6576    0.0000 N   0  0  0  0  0  0  0  0  0  0  0  0
    8.0642   -5.9761    0.0000 O   0  0  0  0  0  0  0  0  0  0  0  0
    6.9221   -0.0115    0.0000 C   0  0  0  0  0  0  0  0  0  0  0  0
    3.4841   -0.6576    0.0000 C   0  0  0  0  0  0  0  0  0  0  0  0
    2.3189   -2.6535    0.0000 C   0  0  0  0  0  0  0  0  0  0  0  0
   11.5368   -4.0033    0.0000 O   0  0  0  0  0  0  0  0  0  0  0  0
    3.4726   -4.6609    0.0000 F   0  0  0  0  0  0  0  0  0  0  0  0
    2.3304    0.0000    0.0000 C   0  0  0  0  0  0  0  0  0  0  0  0
    1.1652   -1.9843    0.0000 C   0  0  0  0  0  0  0  0  0  0  0  0
   10.3831   -5.9991    0.0000 O   0  0  0  0  0  0  0  0  0  0  0  0
    0.0000    0.0000    0.0000 C   0  0  0  0  0  0  0  0  0  0  0  0
    9.2294    0.0000    0.0000 C   0  0  0  0  0  0  0  0  0  0  0  0
  1  3  1  0  0  0  0
  1  6  1  0  0  0  0
  1 14  1  0  0  0  0
  2  6  2  0  0  0  0
  2  7  1  0  0  0  0
  2 13  1  0  0  0  0
  3  4  1  0  0  0  0
  3  5  2  0  0  0  0
  4  8  2  0  0  0  0
  4  9  1  0  0  0  0
  5 11  1  0  0  0  0
  5  7  1  0  0  0  0
  7 16  2  0  0  0  0
  8 12  1  0  0  0  0
  8 10  1  0  0  0  0
  9 17  1  0  0  0  0
 10 11  2  0  0  0  0
 10 21  1  0  0  0  0
 12 18  1  0  0  0  0
 12 19  1  0  0  0  0
 13 20  2  0  0  0  0
 13 24  1  0  0  0  0
 14 17  1  0  0  0  0
 14 26  1  0  0  0  0
 15 23  1  0  0  0  0
 15 25  1  0  0  0  0
 15 22  1  0  0  0  0
 18 22  1  0  0  0  0
 19 23  1  0  0  0  0
M  END
> <ID>
8095

> <Formula>
C18H20FN3O4

> <FW>
361.3675

> <DSSTox_CID>
21085

> <DSSTox_RID>
79623

> <DSSTox_GSID>
41085

> <DSSTox_FileID_Sort>
4305

> <TS_ChemName>
Ofloxacin

> <TS_ChemName_Synonyms>


> <TS_CASRN>
82419-36-1

> <CASRN_ChemName_Relationship>
primary

> <TS_Description>
single chemical compound

> <ChemNote>


> <STRUCTURE_Shown>
tested chemical

> <STRUCTURE_Formula>
C18H20FN3O4

> <STRUCTURE_MW>
361.3675

> <STRUCTURE_ChemType>
defined organic

> <STRUCTURE_DefinedOrganicForm>
parent

> <STRUCTURE_IUPAC>
9-fluoro-3-methyl-10-(4-methylpiperazin-1-yl)-7-oxo-2,3-dihydro-7H-[1,4]oxazino[2,3,4-ij]quinoline-6-carboxylic acid

> <STRUCTURE_SMILES>
CN1CCN(CC1)c4c(F)cc2c3N(C=C(C2=O)C(=O)O)C(C)COc34

> <STRUCTURE_SMILES_Desalt>
CN1CCN(CC1)c4c(F)cc2c3N(C=C(C2=O)C(=O)O)C(C)COc34

> <Substance_modify_yyyymmdd>
20080429

$$$$
