82469-79-2
ChemmineR-0915142007XD

 36 35  0  0  0  0  0  0  0  0  1 V2000
    5.3248   -9.3011    0.0000 C   0  0  0  0  0  0  0  0  0  0  0  0
    5.3075   -7.9872    0.0000 C   0  0  0  0  0  0  0  0  0  0  0  0
    6.6560   -9.3011    0.0000 C   0  0  0  0  0  0  0  0  0  0  0  0
    5.3075  -10.6323    0.0000 C   0  0  0  0  0  0  0  0  0  0  0  0
    4.1665  -11.3065    0.0000 O   0  0  0  0  0  0  0  0  0  0  0  0
    7.6587  -10.1655    0.0000 C   0  0  0  0  0  0  0  0  0  0  0  0
    8.9207   -9.7160    0.0000 O   0  0  0  0  0  0  0  0  0  0  0  0
    7.4339  -11.4621    0.0000 O   0  0  0  0  0  0  0  0  0  0  0  0
    6.4658   -7.3129    0.0000 C   0  0  0  0  0  0  0  0  0  0  0  0
    7.6068   -7.9872    0.0000 O   0  0  0  0  0  0  0  0  0  0  0  0
    6.4658   -5.9817    0.0000 O   0  0  0  0  0  0  0  0  0  0  0  0
    3.9936   -9.3011    0.0000 O   0  0  0  0  0  0  0  0  0  0  0  0
    6.4658  -11.3065    0.0000 O   0  0  0  0  0  0  0  0  0  0  0  0
    7.6241   -5.3248    0.0000 C   0  0  0  0  0  0  0  0  0  0  0  0
    7.6241   -3.9936    0.0000 C   0  0  0  0  0  0  0  0  0  0  0  0
    8.7824   -3.3366    0.0000 C   0  0  0  0  0  0  0  0  0  0  0  0
    8.7824   -1.9881    0.0000 C   0  0  0  0  0  0  0  0  0  0  0  0
    9.9235   -1.3312    0.0000 C   0  0  0  0  0  0  0  0  0  0  0  0
    9.9235    0.0000    0.0000 C   0  0  0  0  0  0  0  0  0  0  0  0
    4.1665  -12.6377    0.0000 C   0  0  0  0  0  0  0  0  0  0  0  0
    3.0082  -13.2947    0.0000 C   0  0  0  0  0  0  0  0  0  0  0  0
    3.0082  -14.6259    0.0000 C   0  0  0  0  0  0  0  0  0  0  0  0
    1.8671  -15.3001    0.0000 C   0  0  0  0  0  0  0  0  0  0  0  0
    1.8671  -16.6313    0.0000 C   0  0  0  0  0  0  0  0  0  0  0  0
    0.7088  -17.2882    0.0000 C   0  0  0  0  0  0  0  0  0  0  0  0
    9.9235  -10.5804    0.0000 C   0  0  0  0  0  0  0  0  0  0  0  0
   11.1855  -10.1309    0.0000 C   0  0  0  0  0  0  0  0  0  0  0  0
   12.1882  -10.9780    0.0000 C   0  0  0  0  0  0  0  0  0  0  0  0
   13.4503  -10.5285    0.0000 C   0  0  0  0  0  0  0  0  0  0  0  0
   14.4703  -11.3930    0.0000 C   0  0  0  0  0  0  0  0  0  0  0  0
   15.7150  -10.9435    0.0000 C   0  0  0  0  0  0  0  0  0  0  0  0
    3.3193   -8.1601    0.0000 C   0  0  0  0  0  0  0  0  0  0  0  0
    3.9936   -7.0017    0.0000 O   0  0  0  0  0  0  0  0  0  0  0  0
    1.9881   -8.1601    0.0000 C   0  0  0  0  0  0  0  0  0  0  0  0
    1.3139   -7.0017    0.0000 C   0  0  0  0  0  0  0  0  0  0  0  0
    0.0000   -7.0017    0.0000 C   0  0  0  0  0  0  0  0  0  0  0  0
  1  4  1  0  0  0  0
  1  3  1  0  0  0  0
  1 12  1  0  0  0  0
  1  2  1  0  0  0  0
  2  9  1  0  0  0  0
  3  6  1  0  0  0  0
  4  5  1  0  0  0  0
  4 13  2  0  0  0  0
  5 20  1  0  0  0  0
  6  7  1  0  0  0  0
  6  8  2  0  0  0  0
  7 26  1  0  0  0  0
  9 10  2  0  0  0  0
  9 11  1  0  0  0  0
 11 14  1  0  0  0  0
 12 32  1  0  0  0  0
 14 15  1  0  0  0  0
 15 16  1  0  0  0  0
 16 17  1  0  0  0  0
 17 18  1  0  0  0  0
 18 19  1  0  0  0  0
 20 21  1  0  0  0  0
 21 22  1  0  0  0  0
 22 23  1  0  0  0  0
 23 24  1  0  0  0  0
 24 25  1  0  0  0  0
 26 27  1  0  0  0  0
 27 28  1  0  0  0  0
 28 29  1  0  0  0  0
 29 30  1  0  0  0  0
 30 31  1  0  0  0  0
 32 33  2  0  0  0  0
 32 34  1  0  0  0  0
 34 35  1  0  0  0  0
 35 36  1  0  0  0  0
M  END
> <ID>
12659

> <Formula>
C28H50O8

> <FW>
514.6918

> <DSSTox_CID>
27535

> <DSSTox_RID>
82402

> <DSSTox_GSID>
47535

> <DSSTox_FileID_Sort>
7083

> <TS_ChemName>
Butyryl trihexyl citrate

> <TS_ChemName_Synonyms>
N-BUTYRYL TRI-N-HEXYL CITRATE

> <TS_CASRN>
82469-79-2

> <CASRN_ChemName_Relationship>
primary

> <TS_Description>
single chemical compound

> <ChemNote>


> <STRUCTURE_Shown>
tested chemical

> <STRUCTURE_Formula>
C28H50O8

> <STRUCTURE_MW>
514.6918

> <STRUCTURE_ChemType>
defined organic

> <STRUCTURE_DefinedOrganicForm>
parent

> <STRUCTURE_IUPAC>
trihexyl 2-(butanoyloxy)propane-1,2,3-tricarboxylate

> <STRUCTURE_SMILES>
O=C(OCCCCCC)C(CC(=O)OCCCCCC)(CC(=O)OCCCCCC)OC(=O)CCC

> <STRUCTURE_SMILES_Desalt>
O=C(OCCCCCC)C(CC(=O)OCCCCCC)(CC(=O)OCCCCCC)OC(=O)CCC

> <Substance_modify_yyyymmdd>
20100921

$$$$
