825-90-1
ChemmineR-0915142007XD

 12 11  0  0  0  0  0  0  0  0  2 V2000
    3.7289   -2.6588    0.0000 C    0  0  0  0  0  0  0  0  0  0  0  0
    4.8855   -3.3301    0.0000 C    0  0  0  0  0  0  0  0  0  0  0  0
    4.8855   -4.6595    0.0000 C    0  0  0  0  0  0  0  0  0  0  0  0
    3.7289   -5.3175    0.0000 C    0  0  0  0  0  0  0  0  0  0  0  0
    2.5790   -4.6595    0.0000 C    0  0  0  0  0  0  0  0  0  0  0  0
    2.5790   -3.3301    0.0000 C    0  0  0  0  0  0  0  0  0  0  0  0
    3.7289   -1.3294    0.0000 S    0  0  0  0  0  0  0  0  0  0  0  0
    5.0583   -1.3294    0.0000 O    0  0  0  0  0  0  0  0  0  0  0  0
    2.3995   -1.3294    0.0000 O    0  5  0  0  0  0  0  0  0  0  0  0
    3.7289    0.0000    0.0000 O    0  0  0  0  0  0  0  0  0  0  0  0
    3.7289   -6.6469    0.0000 O    0  0  0  0  0  0  0  0  0  0  0  0
    0.0000   -1.2031    0.0000 Na   0  3  0  0  0  0  0  0  0  0  0  0
  1  2  2  0  0  0  0
  1  6  1  0  0  0  0
  1  7  1  0  0  0  0
  2  3  1  0  0  0  0
  3  4  2  0  0  0  0
  4  5  1  0  0  0  0
  4 11  1  0  0  0  0
  5  6  2  0  0  0  0
  7  8  2  0  0  0  0
  7  9  1  0  0  0  0
  7 10  2  0  0  0  0
M  END
> <ID>
5076

> <Formula>
C6H5NaO4S

> <FW>
196.1563 (173.1670+22.9892)

> <DSSTox_CID>
7321

> <DSSTox_RID>
78406

> <DSSTox_GSID>
27321

> <DSSTox_FileID_Sort>
3089

> <TS_ChemName>
Benzenesulfonic acid, 4-hydroxy-, monosodium salt

> <TS_ChemName_Synonyms>


> <TS_CASRN>
825-90-1

> <CASRN_ChemName_Relationship>
primary

> <TS_Description>
single chemical compound

> <ChemNote>


> <STRUCTURE_Shown>
tested chemical

> <STRUCTURE_Formula>
C6H5NaO4S

> <STRUCTURE_MW>
196.1563

> <STRUCTURE_ChemType>
defined organic

> <STRUCTURE_DefinedOrganicForm>
salt

> <STRUCTURE_IUPAC>
sodium 4-hydroxybenzenesulfonate

> <STRUCTURE_SMILES>
[Na+].Oc1ccc(cc1)S(=O)([O-])=O

> <STRUCTURE_SMILES_Desalt>
Oc1ccc(cc1)S(O)(=O)=O

> <Substance_modify_yyyymmdd>
20080429

$$$$
