82547-58-8
ChemmineR-0915142007XD

 34 37  0  0  1  0  0  0  0  0  1 V2000
    7.4203   -4.8512    0.0000 N   0  0  0  0  0  0  0  0  0  0  0  0
    6.0675   -4.8512    0.0000 C   0  0  0  0  0  0  0  0  0  0  0  0
    6.0675   -3.4847    0.0000 C   0  0  0  0  0  0  0  0  0  0  0  0
    7.4203   -3.4847    0.0000 C   0  0  0  0  0  0  0  0  0  0  0  0
    8.5819   -5.5208    0.0000 C   0  0  0  0  0  0  0  0  0  0  0  0
    9.7298   -4.8512    0.0000 C   0  0  0  0  0  0  0  0  0  0  0  0
    2.0225   -3.4847    0.0000 C   0  0  0  0  0  0  0  0  0  0  0  0
   11.9983   -4.7829    0.0000 N   0  0  0  0  0  0  0  0  0  0  0  0
   13.2965   -4.7829    0.0000 N   0  0  0  0  0  0  0  0  0  0  0  0
    2.6921   -2.3505    0.0000 C   0  0  0  0  0  0  0  0  0  0  0  0
   11.6156   -3.5667    0.0000 N   0  0  0  0  0  0  0  0  0  0  0  0
    2.4324   -4.7692    0.0000 N   0  0  0  0  0  0  0  0  0  0  0  0
   13.6654   -3.5667    0.0000 N   0  0  0  0  0  0  0  0  0  0  0  0
    4.7282   -3.4847    0.0000 N   0  0  0  0  0  0  0  0  0  0  0  0
    4.0586   -2.3505    0.0000 C   0  0  0  0  0  0  0  0  0  0  0  0
    8.5819   -2.8014    0.0000 S   0  0  0  0  0  0  0  0  0  0  0  0
   12.6679   -2.8151    0.0000 C   0  0  0  0  0  0  0  0  0  0  0  0
    1.3392   -5.5482    0.0000 C   0  0  0  0  0  0  0  0  0  0  0  0
    0.6559   -3.4847    0.0000 C   0  0  0  0  0  0  0  0  0  0  0  0
    0.2596   -4.7692    0.0000 S   0  0  0  0  0  0  0  0  0  0  0  0
    8.5819   -6.8737    0.0000 C   0  0  0  0  0  0  0  0  0  0  0  0
   10.8504   -5.4252    0.0000 C   0  0  0  0  0  0  0  0  0  0  0  0
    9.7298   -3.4847    0.0000 C   0  0  0  0  0  0  0  0  0  0  0  0
    2.0225   -1.1479    0.0000 N   0  0  0  0  0  0  0  0  0  0  0  0
    5.1109   -5.7805    0.0000 O   0  0  0  0  0  0  0  0  0  0  0  0
    4.7282   -1.1479    0.0000 O   0  0  0  0  0  0  0  0  0  0  0  0
    9.7298   -7.5297    0.0000 O   0  0  0  0  0  0  0  0  0  0  0  0
    1.3392   -6.8874    0.0000 N   0  0  0  0  0  0  0  0  0  0  0  0
    7.4203   -7.5297    0.0000 O   0  0  0  0  0  0  0  0  0  0  0  0
    0.6559   -1.1479    0.0000 O   0  0  0  0  0  0  0  0  0  0  0  0
   12.6679   -1.5032    0.0000 C   0  0  0  0  0  0  0  0  0  0  0  0
    0.0000    0.0000    0.0000 C   0  0  0  0  0  0  0  0  0  0  0  0
    7.4340   -2.1865    0.0000 H   0  0  0  0  0  0  0  0  0  0  0  0
    6.0675   -2.2001    0.0000 H   0  0  0  0  0  0  0  0  0  0  0  0
  1  2  1  0  0  0  0
  1  4  1  0  0  0  0
  1  5  1  0  0  0  0
  2 25  2  0  0  0  0
  2  3  1  0  0  0  0
  3  4  1  0  0  0  0
  3 14  1  1  0  0  0
  3 34  1  6  0  0  0
  4 16  1  0  0  0  0
  4 33  1  6  0  0  0
  5  6  2  0  0  0  0
  5 21  1  0  0  0  0
  6 22  1  0  0  0  0
  6 23  1  0  0  0  0
  7 10  1  0  0  0  0
  7 12  1  0  0  0  0
  7 19  2  0  0  0  0
  8 22  1  0  0  0  0
  8  9  1  0  0  0  0
  8 11  1  0  0  0  0
  9 13  2  0  0  0  0
 10 15  1  0  0  0  0
 10 24  2  0  0  0  0
 11 17  2  0  0  0  0
 12 18  2  0  0  0  0
 13 17  1  0  0  0  0
 14 15  1  0  0  0  0
 15 26  2  0  0  0  0
 16 23  1  0  0  0  0
 17 31  1  0  0  0  0
 18 28  1  0  0  0  0
 18 20  1  0  0  0  0
 19 20  1  0  0  0  0
 21 27  2  0  0  0  0
 21 29  1  0  0  0  0
 24 30  1  0  0  0  0
 30 32  1  0  0  0  0
M  END
> <ID>
13810

> <Formula>
C16H17N9O5S2

> <FW>
479.4935

> <DSSTox_CID>
28747

> <DSSTox_RID>
83016

> <DSSTox_GSID>
48821

> <DSSTox_FileID_Sort>
7693

> <TS_ChemName>
Cefteram

> <TS_ChemName_Synonyms>


> <TS_CASRN>
82547-58-8

> <CASRN_ChemName_Relationship>
primary

> <TS_Description>
single chemical compound

> <ChemNote>


> <STRUCTURE_Shown>
tested chemical

> <STRUCTURE_Formula>
C16H17N9O5S2

> <STRUCTURE_MW>
479.4935

> <STRUCTURE_ChemType>
defined organic

> <STRUCTURE_DefinedOrganicForm>
parent

> <STRUCTURE_IUPAC>
(6R,7R)-7-{[(2E)-2-(2-amino-1,3-thiazol-4-yl)-2-(methoxyimino)acetyl]amino}-3-[(5-methyl-2H-tetrazol-2-yl)methyl]-8-oxo-5-thia-1-azabicyclo[4.2.0]oct-2-ene-2-carboxylic acid

> <STRUCTURE_SMILES>
Nc1scc(n1)/C(=N\OC)C(=O)N[C@@H]4C(=O)N3C(=C(Cn2nc(C)nn2)CS[C@@H]34)C(=O)O

> <STRUCTURE_SMILES_Desalt>
Nc1scc(n1)/C(=N\OC)C(=O)N[C@@H]4C(=O)N3C(=C(Cn2nc(C)nn2)CS[C@@H]34)C(=O)O

> <Substance_modify_yyyymmdd>
20111204

$$$$
