82558-50-7
ChemmineR-0915142007XD

 24 25  0  0  0  0  0  0  0  0  1 V2000
    3.4613   -2.6484    0.0000 C   0  0  0  0  0  0  0  0  0  0  0  0
    5.7601   -2.6572    0.0000 C   0  0  0  0  0  0  0  0  0  0  0  0
    5.7601   -3.9858    0.0000 C   0  0  0  0  0  0  0  0  0  0  0  0
    7.8055   -3.3564    0.0000 N   0  0  0  0  0  0  0  0  0  0  0  0
    2.3076   -1.9754    0.0000 C   0  0  0  0  0  0  0  0  0  0  0  0
    4.6151   -1.9841    0.0000 N   0  0  0  0  0  0  0  0  0  0  0  0
    7.0450   -4.3966    0.0000 C   0  0  0  0  0  0  0  0  0  0  0  0
    7.0450   -2.2639    0.0000 O   0  0  0  0  0  0  0  0  0  0  0  0
    7.4908   -5.6640    0.0000 C   0  0  0  0  0  0  0  0  0  0  0  0
    3.4613   -3.9858    0.0000 O   0  0  0  0  0  0  0  0  0  0  0  0
    1.1538   -2.6484    0.0000 C   0  0  0  0  0  0  0  0  0  0  0  0
    2.3076   -0.6556    0.0000 C   0  0  0  0  0  0  0  0  0  0  0  0
    3.4613    0.0000    0.0000 O   0  0  0  0  0  0  0  0  0  0  0  0
    1.1538   -3.9770    0.0000 O   0  0  0  0  0  0  0  0  0  0  0  0
    0.0000   -0.6730    0.0000 C   0  0  0  0  0  0  0  0  0  0  0  0
    7.9191   -6.9139    0.0000 C   0  0  0  0  0  0  0  0  0  0  0  0
    6.2059   -6.0923    0.0000 C   0  0  0  0  0  0  0  0  0  0  0  0
    8.7407   -5.2182    0.0000 C   0  0  0  0  0  0  0  0  0  0  0  0
    0.0000   -1.9754    0.0000 C   0  0  0  0  0  0  0  0  0  0  0  0
    1.1538    0.0000    0.0000 C   0  0  0  0  0  0  0  0  0  0  0  0
    4.6151   -0.6556    0.0000 C   0  0  0  0  0  0  0  0  0  0  0  0
    2.3076   -4.6326    0.0000 C   0  0  0  0  0  0  0  0  0  0  0  0
    7.0450   -7.9279    0.0000 C   0  0  0  0  0  0  0  0  0  0  0  0
    5.2095   -5.2182    0.0000 C   0  0  0  0  0  0  0  0  0  0  0  0
  1  5  1  0  0  0  0
  1  6  1  0  0  0  0
  1 10  2  0  0  0  0
  2  6  1  0  0  0  0
  2  3  2  0  0  0  0
  2  8  1  0  0  0  0
  3  7  1  0  0  0  0
  4  8  1  0  0  0  0
  4  7  2  0  0  0  0
  5 11  2  0  0  0  0
  5 12  1  0  0  0  0
  7  9  1  0  0  0  0
  9 16  1  0  0  0  0
  9 17  1  0  0  0  0
  9 18  1  0  0  0  0
 11 14  1  0  0  0  0
 11 19  1  0  0  0  0
 12 13  1  0  0  0  0
 12 20  2  0  0  0  0
 13 21  1  0  0  0  0
 14 22  1  0  0  0  0
 15 20  1  0  0  0  0
 15 19  2  0  0  0  0
 16 23  1  0  0  0  0
 17 24  1  0  0  0  0
M  END
> <ID>
3535

> <Formula>
C18H24N2O4

> <FW>
332.3942

> <DSSTox_CID>
4159

> <DSSTox_RID>
77309

> <DSSTox_GSID>
24159

> <DSSTox_FileID_Sort>
1992

> <TS_ChemName>
Isoxaben

> <TS_ChemName_Synonyms>


> <TS_CASRN>
82558-50-7

> <CASRN_ChemName_Relationship>
primary

> <TS_Description>
single chemical compound

> <ChemNote>


> <STRUCTURE_Shown>
tested chemical

> <STRUCTURE_Formula>
C18H24N2O4

> <STRUCTURE_MW>
332.3942

> <STRUCTURE_ChemType>
defined organic

> <STRUCTURE_DefinedOrganicForm>
parent

> <STRUCTURE_IUPAC>
2,6-dimethoxy-N-[3-(3-methylpentan-3-yl)-1,2-oxazol-5-yl]benzamide

> <STRUCTURE_SMILES>
CCC(C)(CC)c2cc(NC(=O)c1c(OC)cccc1OC)on2

> <STRUCTURE_SMILES_Desalt>
CCC(C)(CC)c2cc(NC(=O)c1c(OC)cccc1OC)on2

> <Substance_modify_yyyymmdd>
20080429

$$$$
