82560-54-1
ChemmineR-0915142007XD

 28 29  0  0  0  0  0  0  0  0  1 V2000
    5.6924   -5.3149    0.0000 C   0  0  0  0  0  0  0  0  0  0  0  0
    5.6924   -3.9737    0.0000 N   0  0  0  0  0  0  0  0  0  0  0  0
    6.8547   -3.2783    0.0000 S   0  0  0  0  0  0  0  0  0  0  0  0
    5.6725   -7.9475    0.0000 C   0  0  0  0  0  0  0  0  0  0  0  0
    6.9739   -7.5501    0.0000 O   0  0  0  0  0  0  0  0  0  0  0  0
    4.5301   -5.9606    0.0000 O   0  0  0  0  0  0  0  0  0  0  0  0
    4.5301   -7.3017    0.0000 C   0  0  0  0  0  0  0  0  0  0  0  0
    6.8547   -1.9670    0.0000 N   0  0  0  0  0  0  0  0  0  0  0  0
    5.6725   -9.2886    0.0000 C   0  0  0  0  0  0  0  0  0  0  0  0
    7.7091   -8.5932    0.0000 C   0  0  0  0  0  0  0  0  0  0  0  0
    4.5698   -1.9670    0.0000 C   0  0  0  0  0  0  0  0  0  0  0  0
    3.4373   -1.3411    0.0000 C   0  0  0  0  0  0  0  0  0  0  0  0
    6.9739   -9.6959    0.0000 C   0  0  0  0  0  0  0  0  0  0  0  0
    6.8150   -5.9606    0.0000 O   0  0  0  0  0  0  0  0  0  0  0  0
    5.7222   -1.3411    0.0000 C   0  0  0  0  0  0  0  0  0  0  0  0
    3.4373   -0.0497    0.0000 O   0  0  0  0  0  0  0  0  0  0  0  0
    8.0071   -1.3411    0.0000 C   0  0  0  0  0  0  0  0  0  0  0  0
    4.5698   -3.3280    0.0000 C   0  0  0  0  0  0  0  0  0  0  0  0
    2.2849   -2.0167    0.0000 O   0  0  0  0  0  0  0  0  0  0  0  0
    4.5301   -9.9344    0.0000 C   0  0  0  0  0  0  0  0  0  0  0  0
    3.3876   -7.9475    0.0000 C   0  0  0  0  0  0  0  0  0  0  0  0
    8.5634   -7.3514    0.0000 C   0  0  0  0  0  0  0  0  0  0  0  0
    8.6131   -9.6959    0.0000 C   0  0  0  0  0  0  0  0  0  0  0  0
    3.3876   -9.2389    0.0000 C   0  0  0  0  0  0  0  0  0  0  0  0
    8.0071    0.0000    0.0000 C   0  0  0  0  0  0  0  0  0  0  0  0
    9.1495   -1.9670    0.0000 C   0  0  0  0  0  0  0  0  0  0  0  0
    1.1524   -1.3411    0.0000 C   0  0  0  0  0  0  0  0  0  0  0  0
    0.0000   -2.0167    0.0000 C   0  0  0  0  0  0  0  0  0  0  0  0
  1  2  1  0  0  0  0
  1  6  1  0  0  0  0
  1 14  2  0  0  0  0
  2  3  1  0  0  0  0
  2 18  1  0  0  0  0
  3  8  1  0  0  0  0
  4  7  1  0  0  0  0
  4  5  1  0  0  0  0
  4  9  2  0  0  0  0
  5 10  1  0  0  0  0
  6  7  1  0  0  0  0
  7 21  2  0  0  0  0
  8 15  1  0  0  0  0
  8 17  1  0  0  0  0
  9 13  1  0  0  0  0
  9 20  1  0  0  0  0
 10 22  1  0  0  0  0
 10 23  1  0  0  0  0
 10 13  1  0  0  0  0
 11 15  1  0  0  0  0
 11 12  1  0  0  0  0
 12 16  2  0  0  0  0
 12 19  1  0  0  0  0
 17 25  1  0  0  0  0
 17 26  1  0  0  0  0
 19 27  1  0  0  0  0
 20 24  2  0  0  0  0
 21 24  1  0  0  0  0
 27 28  1  0  0  0  0
M  END
> <ID>
8582

> <Formula>
C20H30N2O5S

> <FW>
410.5276

> <DSSTox_CID>
21622

> <DSSTox_RID>
79791

> <DSSTox_GSID>
41622

> <DSSTox_FileID_Sort>
4473

> <TS_ChemName>
Benfuracarb

> <TS_ChemName_Synonyms>


> <TS_CASRN>
82560-54-1

> <CASRN_ChemName_Relationship>
primary

> <TS_Description>
single chemical compound

> <ChemNote>


> <STRUCTURE_Shown>
tested chemical

> <STRUCTURE_Formula>
C20H30N2O5S

> <STRUCTURE_MW>
410.5276

> <STRUCTURE_ChemType>
defined organic

> <STRUCTURE_DefinedOrganicForm>
parent

> <STRUCTURE_IUPAC>
ethyl N-{[{[(2,2-dimethyl-2,3-dihydro-1-benzofuran-7-yl)oxy]carbonyl}(methyl)amino]sulfanyl}-N-propan-2-yl-beta-alaninate

> <STRUCTURE_SMILES>
CC(C)N(CCC(=O)OCC)SN(C)C(=O)Oc1cccc2CC(C)(C)Oc12

> <STRUCTURE_SMILES_Desalt>
CC(C)N(CCC(=O)OCC)SN(C)C(=O)Oc1cccc2CC(C)(C)Oc12

> <Substance_modify_yyyymmdd>
20080825

$$$$
