825643-57-0
ChemmineR-0915142007XD

 43 46  0  0  1  0  0  0  0  0  1 V2000
    3.4755   -6.0009    0.0000 C   0  0  0  0  0  0  0  0  0  0  0  0
    3.4755   -7.3385    0.0000 C   0  0  0  0  0  0  0  0  0  0  0  0
    2.1503   -7.3510    0.0000 C   0  0  0  0  0  0  0  0  0  0  0  0
    2.3128   -5.3383    0.0000 O   0  0  0  0  0  0  0  0  0  0  0  0
    4.6382   -5.3383    0.0000 N   0  0  0  0  0  0  0  0  0  0  0  0
    2.3128  -10.6890    0.0000 C   0  0  0  0  0  0  0  0  0  0  0  0
    3.4755  -11.3391    0.0000 C   0  0  0  0  0  0  0  0  0  0  0  0
    4.6382  -10.6890    0.0000 C   0  0  0  0  0  0  0  0  0  0  0  0
    4.6382   -9.3513    0.0000 C   0  0  0  0  0  0  0  0  0  0  0  0
    3.4755   -8.6762    0.0000 C   0  0  0  0  0  0  0  0  0  0  0  0
    2.3128   -9.3513    0.0000 C   0  0  0  0  0  0  0  0  0  0  0  0
    1.1627  -11.3391    0.0000 C   0  0  0  0  0  0  0  0  0  0  0  0
    1.8378  -12.5018    0.0000 F   0  0  0  0  0  0  0  0  0  0  0  0
    0.5001  -10.1889    0.0000 F   0  0  0  0  0  0  0  0  0  0  0  0
    0.0000  -12.0142    0.0000 F   0  0  0  0  0  0  0  0  0  0  0  0
    5.7883  -11.3391    0.0000 C   0  0  0  0  0  0  0  0  0  0  0  0
    6.4509  -10.1889    0.0000 F   0  0  0  0  0  0  0  0  0  0  0  0
    5.1132  -12.5018    0.0000 F   0  0  0  0  0  0  0  0  0  0  0  0
    6.9510  -12.0142    0.0000 F   0  0  0  0  0  0  0  0  0  0  0  0
    6.9510   -8.0136    0.0000 N   0  0  0  0  0  0  0  0  0  0  0  0
    8.1137   -7.3385    0.0000 C   0  0  0  0  0  0  0  0  0  0  0  0
    5.7883   -7.3385    0.0000 C   0  0  0  0  0  0  0  0  0  0  0  0
    5.7883   -6.0009    0.0000 C   0  0  0  0  0  0  0  0  0  0  0  0
    8.1137   -6.0009    0.0000 C   0  0  0  0  0  0  0  0  0  0  0  0
    6.9510   -5.3383    0.0000 C   0  0  0  0  0  0  0  0  0  0  0  0
    8.1137   -2.0003    0.0000 C   0  0  0  0  0  0  0  0  0  0  0  0
    6.9510   -1.3377    0.0000 C   0  0  0  0  0  0  0  0  0  0  0  0
    5.7883   -2.0003    0.0000 C   0  0  0  0  0  0  0  0  0  0  0  0
    5.7883   -3.3255    0.0000 C   0  0  0  0  0  0  0  0  0  0  0  0
    6.9510   -4.0006    0.0000 C   0  0  0  0  0  0  0  0  0  0  0  0
    8.1137   -3.3255    0.0000 C   0  0  0  0  0  0  0  0  0  0  0  0
    6.9510    0.0000    0.0000 F   0  0  0  0  0  0  0  0  0  0  0  0
    9.2513   -4.0006    0.0000 C   0  0  0  0  0  0  0  0  0  0  0  0
    9.2513   -8.0136    0.0000 N   0  0  0  0  0  0  0  0  0  0  0  0
    9.4013   -9.3263    0.0000 C   0  0  0  0  0  0  0  0  0  0  0  0
   10.4765   -7.4636    0.0000 C   0  0  0  0  0  0  0  0  0  0  0  0
   10.7015   -9.6264    0.0000 C   0  0  0  0  0  0  0  0  0  0  0  0
   11.3766   -8.4637    0.0000 C   0  0  0  0  0  0  0  0  0  0  0  0
   11.2516  -10.8265    0.0000 O   0  0  0  0  0  0  0  0  0  0  0  0
    8.4012  -10.2390    0.0000 C   0  0  0  0  0  0  0  0  0  0  0  0
    8.6887  -11.5391    0.0000 O   0  0  0  0  0  0  0  0  0  0  0  0
    4.6382   -4.0006    0.0000 C   0  0  0  0  0  0  0  0  0  0  0  0
    4.5381   -7.3385    0.0000 C   0  0  0  0  0  0  0  0  0  0  0  0
  1  2  1  0  0  0  0
  1  5  1  0  0  0  0
  1  4  2  0  0  0  0
  2  3  1  0  0  0  0
  2 10  1  0  0  0  0
  2 43  1  0  0  0  0
  5 23  1  0  0  0  0
  5 42  1  0  0  0  0
  6 11  2  0  0  0  0
  6  7  1  0  0  0  0
  6 12  1  0  0  0  0
  7  8  2  0  0  0  0
  8  9  1  0  0  0  0
  8 16  1  0  0  0  0
  9 10  2  0  0  0  0
 10 11  1  0  0  0  0
 12 13  1  0  0  0  0
 12 14  1  0  0  0  0
 12 15  1  0  0  0  0
 16 17  1  0  0  0  0
 16 18  1  0  0  0  0
 16 19  1  0  0  0  0
 20 21  2  0  0  0  0
 20 22  1  0  0  0  0
 21 24  1  0  0  0  0
 21 34  1  0  0  0  0
 22 23  2  0  0  0  0
 23 25  1  0  0  0  0
 24 25  2  0  0  0  0
 25 30  1  0  0  0  0
 26 31  2  0  0  0  0
 26 27  1  0  0  0  0
 27 28  2  0  0  0  0
 27 32  1  0  0  0  0
 28 29  1  0  0  0  0
 29 30  2  0  0  0  0
 30 31  1  0  0  0  0
 31 33  1  0  0  0  0
 34 35  1  0  0  0  0
 34 36  1  0  0  0  0
 35 37  1  0  0  0  0
 35 40  1  1  0  0  0
 36 38  1  0  0  0  0
 37 38  1  0  0  0  0
 37 39  1  1  0  0  0
 40 41  1  0  0  0  0
M  END
> <ID>
13561

> <Formula>
C30H30F7N3O3

> <FW>
613.5663

> <DSSTox_CID>
28487

> <DSSTox_RID>
82764

> <DSSTox_GSID>
48513

> <DSSTox_FileID_Sort>
7441

> <TS_ChemName>
PharmaGSID_48513

> <TS_ChemName_Synonyms>
2-[3,5-Bis(trifluoromethyl)phenyl]-N-{4-(4-fluoro-2-methylphenyl)-6-[(2R,3R)-3-hydroxy-2-(hydroxymethyl)pyrrolidin-1-yl]pyridin-3-yl}-N,2-dimethylpropanamide

> <TS_CASRN>
825643-57-0

> <CASRN_ChemName_Relationship>
primary

> <TS_Description>
single chemical compound

> <ChemNote>
absolute stereochem

> <STRUCTURE_Shown>
tested chemical

> <STRUCTURE_Formula>
C30H30F7N3O3

> <STRUCTURE_MW>
613.5663

> <STRUCTURE_ChemType>
defined organic

> <STRUCTURE_DefinedOrganicForm>
parent

> <STRUCTURE_IUPAC>
2-[3,5-bis(trifluoromethyl)phenyl]-N-{4-(4-fluoro-2-methylphenyl)-6-[(2R,3R)-3-hydroxy-2-(hydroxymethyl)pyrrolidin-1-yl]pyridin-3-yl}-N,2-dimethylpropanamide

> <STRUCTURE_SMILES>
FC(F)(F)c1cc(cc(c1)C(F)(F)F)C(C)(C)C(=O)N(C)c2cnc(cc2c3ccc(F)cc3C)N4CC[C@@H](O)[C@H]4CO

> <STRUCTURE_SMILES_Desalt>
FC(F)(F)c1cc(cc(c1)C(F)(F)F)C(C)(C)C(=O)N(C)c2cnc(cc2c3ccc(F)cc3C)N4CC[C@@H](O)[C@H]4CO

> <Substance_modify_yyyymmdd>
20130910

$$$$
