82586-52-5
ChemmineR-0915142007XD

 37 38  0  0  1  0  0  0  0  0  1 V2000
   13.8280   -2.6623    0.0000 C    0  0  0  0  0  0  0  0  0  0  0  0
   12.6663   -2.0008    0.0000 C    0  0  0  0  0  0  0  0  0  0  0  0
   13.8280   -4.0016    0.0000 C    0  0  0  0  0  0  0  0  0  0  0  0
   11.5206   -2.6623    0.0000 C    0  0  0  0  0  0  0  0  0  0  0  0
   12.6663   -4.6470    0.0000 C    0  0  0  0  0  0  0  0  0  0  0  0
   11.5206   -4.0016    0.0000 C    0  0  0  0  0  0  0  0  0  0  0  0
   12.6663   -5.9862    0.0000 C    0  0  0  0  0  0  0  0  0  0  0  0
   11.5206   -6.6639    0.0000 C    0  0  0  0  0  0  0  0  0  0  0  0
   10.3750   -4.6793    0.0000 C    0  0  0  0  0  0  0  0  0  0  0  0
   10.3750   -6.0024    0.0000 N    0  0  0  0  0  0  0  0  0  0  0  0
   11.5206   -7.9870    0.0000 C    0  0  0  0  0  0  0  0  0  0  0  0
   12.6824   -8.6486    0.0000 O    0  0  0  0  0  0  0  0  0  0  0  0
    9.2133   -6.6639    0.0000 C    0  0  0  0  0  0  0  0  0  0  0  0
    8.0838   -6.0024    0.0000 C    0  0  0  0  0  0  0  0  0  0  0  0
    6.9221   -4.0016    0.0000 O    0  0  0  0  0  0  0  0  0  0  0  0
    5.7765   -4.6793    0.0000 C    0  0  0  0  0  0  0  0  0  0  0  0
    6.9221   -6.6639    0.0000 N    0  0  0  0  0  0  0  0  0  0  0  0
    5.7765   -6.0024    0.0000 C    0  0  0  0  0  0  0  0  0  0  0  0
    4.6147   -4.0016    0.0000 O    0  0  0  0  0  0  0  0  0  0  0  0
    3.4691   -4.6793    0.0000 C    0  0  0  0  0  0  0  0  0  0  0  0
    4.6147   -6.6639    0.0000 C    0  0  0  0  0  0  0  0  0  0  0  0
    3.4691   -6.0024    0.0000 C    0  0  0  0  0  0  0  0  0  0  0  0
    2.3074   -4.0016    0.0000 C    0  0  0  0  0  0  0  0  0  0  0  0
    2.3074   -6.6639    0.0000 C    0  0  0  0  0  0  0  0  0  0  0  0
    1.1617   -6.0024    0.0000 C    0  0  0  0  0  0  0  0  0  0  0  0
    2.3074   -7.9870    0.0000 C    0  0  0  0  0  0  0  0  0  0  0  0
    1.1617   -8.6647    0.0000 C    0  0  0  0  0  0  0  0  0  0  0  0
    0.0000   -6.6639    0.0000 C    0  0  0  0  0  0  0  0  0  0  0  0
    0.0000   -7.9870    0.0000 C    0  0  0  0  0  0  0  0  0  0  0  0
   14.9736   -2.0008    0.0000 O    0  0  0  0  0  0  0  0  0  0  0  0
   12.6663   -0.6615    0.0000 O    0  0  0  0  0  0  0  0  0  0  0  0
   16.1354   -2.6623    0.0000 C    0  0  0  0  0  0  0  0  0  0  0  0
   11.5206    0.0000    0.0000 C    0  0  0  0  0  0  0  0  0  0  0  0
    9.2133   -7.9870    0.0000 O    0  0  0  0  0  0  0  0  0  0  0  0
   10.3750   -8.6486    0.0000 O    0  0  0  0  0  0  0  0  0  0  0  0
    8.0838   -4.6793    0.0000 C    0  0  0  0  0  0  0  0  0  0  0  0
    8.1161   -1.8556    0.0000 Cl   0  0  0  0  0  0  0  0  0  0  0  0
  1  2  1  0  0  0  0
  1  3  2  0  0  0  0
  1 30  1  0  0  0  0
  2  4  2  0  0  0  0
  2 31  1  0  0  0  0
  3  5  1  0  0  0  0
  4  6  1  0  0  0  0
  5  7  1  0  0  0  0
  5  6  2  0  0  0  0
  6  9  1  0  0  0  0
  7  8  1  0  0  0  0
  8 11  1  1  0  0  0
  8 10  1  0  0  0  0
  9 10  1  0  0  0  0
 10 13  1  0  0  0  0
 11 12  2  0  0  0  0
 11 35  1  0  0  0  0
 13 14  1  0  0  0  0
 13 34  2  0  0  0  0
 14 17  1  0  0  0  0
 14 36  1  1  0  0  0
 15 16  2  0  0  0  0
 16 19  1  0  0  0  0
 18 16  1  1  0  0  0
 17 18  1  0  0  0  0
 18 21  1  0  0  0  0
 19 20  1  0  0  0  0
 20 23  1  0  0  0  0
 21 22  1  0  0  0  0
 22 24  1  0  0  0  0
 24 26  2  0  0  0  0
 24 25  1  0  0  0  0
 25 28  2  0  0  0  0
 26 27  1  0  0  0  0
 27 29  2  0  0  0  0
 28 29  1  0  0  0  0
 30 32  1  0  0  0  0
 31 33  1  0  0  0  0
M  END
> <ID>
9948

> <Formula>
C27H35ClN2O7

> <FW>
535.0290 (498.5681+36.4609)

> <DSSTox_CID>
24267

> <DSSTox_RID>
80137

> <DSSTox_GSID>
44267

> <DSSTox_FileID_Sort>
4819

> <TS_ChemName>
Moexipril hydrochloride

> <TS_ChemName_Synonyms>


> <TS_CASRN>
82586-52-5

> <CASRN_ChemName_Relationship>
primary

> <TS_Description>
single chemical compound

> <ChemNote>
stereochem; parent [103775-10-6]

> <STRUCTURE_Shown>
tested chemical

> <STRUCTURE_Formula>
C27H35ClN2O7

> <STRUCTURE_MW>
535.029

> <STRUCTURE_ChemType>
defined organic

> <STRUCTURE_DefinedOrganicForm>
complex

> <STRUCTURE_IUPAC>
(3S)-2-{N-[(2S)-1-ethoxy-1-oxo-4-phenylbutan-2-yl]-L-alanyl}-6,7-dimethoxy-1,2,3,4-tetrahydroisoquinoline-3-carboxylic acid hydrochloride (1:1)

> <STRUCTURE_SMILES>
Cl.O=C(OCC)[C@H](CCc1ccccc1)N[C@@H](C)C(=O)N2Cc3cc(OC)c(OC)cc3C[C@H]2C(=O)O

> <STRUCTURE_SMILES_Desalt>
O=C(OCC)[C@H](CCc1ccccc1)N[C@@H](C)C(=O)N2Cc3cc(OC)c(OC)cc3C[C@H]2C(=O)O

> <Substance_modify_yyyymmdd>
20090302

$$$$
