826-36-8
ChemmineR-0915142007XD

 11 11  0  0  0  0  0  0  0  0  1 V2000
    2.4959   -0.4922    0.0000 N   0  0  0  0  0  0  0  0  0  0  0  0
    3.6296   -1.1485    0.0000 C   0  0  0  0  0  0  0  0  0  0  0  0
    1.3424   -1.1485    0.0000 C   0  0  0  0  0  0  0  0  0  0  0  0
    3.6445   -2.4761    0.0000 C   0  0  0  0  0  0  0  0  0  0  0  0
    1.3424   -2.4761    0.0000 C   0  0  0  0  0  0  0  0  0  0  0  0
    2.4959   -3.1473    0.0000 C   0  0  0  0  0  0  0  0  0  0  0  0
    2.4959   -4.4748    0.0000 O   0  0  0  0  0  0  0  0  0  0  0  0
    4.3008    0.0000    0.0000 C   0  0  0  0  0  0  0  0  0  0  0  0
    4.9720   -1.1485    0.0000 C   0  0  0  0  0  0  0  0  0  0  0  0
    0.6712    0.0000    0.0000 C   0  0  0  0  0  0  0  0  0  0  0  0
    0.0000   -1.1485    0.0000 C   0  0  0  0  0  0  0  0  0  0  0  0
  1  2  1  0  0  0  0
  1  3  1  0  0  0  0
  2  4  1  0  0  0  0
  2  8  1  0  0  0  0
  2  9  1  0  0  0  0
  3  5  1  0  0  0  0
  3 10  1  0  0  0  0
  3 11  1  0  0  0  0
  4  6  1  0  0  0  0
  5  6  1  0  0  0  0
  6  7  2  0  0  0  0
M  END
> <ID>
8493

> <Formula>
C9H17NO

> <FW>
155.2374

> <DSSTox_CID>
21527

> <DSSTox_RID>
79766

> <DSSTox_GSID>
41527

> <DSSTox_FileID_Sort>
4448

> <TS_ChemName>
2,2,6,6-Tetramethyl-4-piperidone

> <TS_ChemName_Synonyms>


> <TS_CASRN>
826-36-8

> <CASRN_ChemName_Relationship>
primary

> <TS_Description>
single chemical compound

> <ChemNote>


> <STRUCTURE_Shown>
tested chemical

> <STRUCTURE_Formula>
C9H17NO

> <STRUCTURE_MW>
155.2374

> <STRUCTURE_ChemType>
defined organic

> <STRUCTURE_DefinedOrganicForm>
parent

> <STRUCTURE_IUPAC>
2,2,6,6-tetramethylpiperidin-4-one

> <STRUCTURE_SMILES>
O=C1CC(C)(C)NC(C)(C)C1

> <STRUCTURE_SMILES_Desalt>
O=C1CC(C)(C)NC(C)(C)C1

> <Substance_modify_yyyymmdd>
20080825

$$$$
