826-62-0
ChemmineR-0915142007XD

 12 14  0  0  0  0  0  0  0  0  1 V2000
    2.2338   -1.5910    0.0000 C   0  0  0  0  0  0  0  0  0  0  0  0
    2.2338   -2.9678    0.0000 C   0  0  0  0  0  0  0  0  0  0  0  0
    4.2624   -2.2794    0.0000 O   0  0  0  0  0  0  0  0  0  0  0  0
    3.4829   -1.2354    0.0000 C   0  0  0  0  0  0  0  0  0  0  0  0
    3.4829   -3.3233    0.0000 C   0  0  0  0  0  0  0  0  0  0  0  0
    1.0941   -0.9847    0.0000 C   0  0  0  0  0  0  0  0  0  0  0  0
    1.0941   -3.5741    0.0000 C   0  0  0  0  0  0  0  0  0  0  0  0
    0.0000   -2.9678    0.0000 C   0  0  0  0  0  0  0  0  0  0  0  0
    0.0000   -1.5910    0.0000 C   0  0  0  0  0  0  0  0  0  0  0  0
    1.8417   -2.2794    0.0000 C   0  0  0  0  0  0  0  0  0  0  0  0
    3.8704   -4.5588    0.0000 O   0  0  0  0  0  0  0  0  0  0  0  0
    3.8704    0.0000    0.0000 O   0  0  0  0  0  0  0  0  0  0  0  0
  1  2  1  0  0  0  0
  1  4  1  0  0  0  0
  1  6  1  0  0  0  0
  2  5  1  0  0  0  0
  2  7  1  0  0  0  0
  3  4  1  0  0  0  0
  3  5  1  0  0  0  0
  4 12  2  0  0  0  0
  5 11  2  0  0  0  0
  6  9  1  0  0  0  0
  6 10  1  0  0  0  0
  7  8  1  0  0  0  0
  7 10  1  0  0  0  0
  8  9  2  0  0  0  0
M  END
> <ID>
12595

> <Formula>
C9H8O3

> <FW>
164.158

> <DSSTox_CID>
27456

> <DSSTox_RID>
82359

> <DSSTox_GSID>
47456

> <DSSTox_FileID_Sort>
7040

> <TS_ChemName>
3a,4,7,7a-Tetrahydro-4,7-methanoisobenzofuran-1,3-dione

> <TS_ChemName_Synonyms>
4,7-Methanoisobenzofuran-1,3-dione, 3a,4,7,7a-tetrahydro-

> <TS_CASRN>
826-62-0

> <CASRN_ChemName_Relationship>
primary

> <TS_Description>
single chemical compound

> <ChemNote>


> <STRUCTURE_Shown>
tested chemical

> <STRUCTURE_Formula>
C9H8O3

> <STRUCTURE_MW>
164.158

> <STRUCTURE_ChemType>
defined organic

> <STRUCTURE_DefinedOrganicForm>
parent

> <STRUCTURE_IUPAC>
3a,4,7,7a-tetrahydro-4,7-methano-2-benzofuran-1,3-dione

> <STRUCTURE_SMILES>
O=C1OC(=O)C3C1C2CC3C=C2

> <STRUCTURE_SMILES_Desalt>
O=C1OC(=O)C3C1C2CC3C=C2

> <Substance_modify_yyyymmdd>
20100621

$$$$
