82626-48-0
ChemmineR-0915142007XD

 23 25  0  0  0  0  0  0  0  0  1 V2000
    4.5719    0.0000    0.0000 C   0  0  0  0  0  0  0  0  0  0  0  0
    3.4155   -0.6638    0.0000 N   0  0  0  0  0  0  0  0  0  0  0  0
    2.2699    0.0000    0.0000 C   0  0  0  0  0  0  0  0  0  0  0  0
    3.4155   -1.9915    0.0000 C   0  0  0  0  0  0  0  0  0  0  0  0
    2.2699   -2.6553    0.0000 O   0  0  0  0  0  0  0  0  0  0  0  0
    4.5719   -2.6553    0.0000 C   0  0  0  0  0  0  0  0  0  0  0  0
    4.5719   -3.9830    0.0000 C   0  0  0  0  0  0  0  0  0  0  0  0
    5.6425   -4.7646    0.0000 C   0  0  0  0  0  0  0  0  0  0  0  0
    5.2357   -6.0387    0.0000 N   0  0  0  0  0  0  0  0  0  0  0  0
    3.9080   -6.0387    0.0000 C   0  0  0  0  0  0  0  0  0  0  0  0
    3.0086   -7.0237    0.0000 C   0  0  0  0  0  0  0  0  0  0  0  0
    1.7131   -6.7454    0.0000 C   0  0  0  0  0  0  0  0  0  0  0  0
    1.3062   -5.4819    0.0000 C   0  0  0  0  0  0  0  0  0  0  0  0
    2.1949   -4.4969    0.0000 C   0  0  0  0  0  0  0  0  0  0  0  0
    3.4905   -4.7646    0.0000 N   0  0  0  0  0  0  0  0  0  0  0  0
    0.0000   -5.2036    0.0000 C   0  0  0  0  0  0  0  0  0  0  0  0
    6.9060   -4.3577    0.0000 C   0  0  0  0  0  0  0  0  0  0  0  0
    7.1843   -3.0622    0.0000 C   0  0  0  0  0  0  0  0  0  0  0  0
    8.4478   -2.6446    0.0000 C   0  0  0  0  0  0  0  0  0  0  0  0
    9.4435   -3.5333    0.0000 C   0  0  0  0  0  0  0  0  0  0  0  0
   10.7069   -3.1264    0.0000 C   0  0  0  0  0  0  0  0  0  0  0  0
    9.1651   -4.8395    0.0000 C   0  0  0  0  0  0  0  0  0  0  0  0
    7.9017   -5.2464    0.0000 C   0  0  0  0  0  0  0  0  0  0  0  0
  1  2  1  0  0  0  0
  2  3  1  0  0  0  0
  2  4  1  0  0  0  0
  4  5  2  0  0  0  0
  4  6  1  0  0  0  0
  6  7  1  0  0  0  0
  7  8  2  0  0  0  0
  7 15  1  0  0  0  0
  8  9  1  0  0  0  0
  8 17  1  0  0  0  0
  9 10  2  0  0  0  0
 10 11  1  0  0  0  0
 10 15  1  0  0  0  0
 11 12  2  0  0  0  0
 12 13  1  0  0  0  0
 13 14  2  0  0  0  0
 13 16  1  0  0  0  0
 14 15  1  0  0  0  0
 17 18  2  0  0  0  0
 17 23  1  0  0  0  0
 18 19  1  0  0  0  0
 19 20  2  0  0  0  0
 20 21  1  0  0  0  0
 20 22  1  0  0  0  0
 22 23  2  0  0  0  0
M  END
> <ID>
11312

> <Formula>
C19H21N3O

> <FW>
307.3895

> <DSSTox_CID>
25946

> <DSSTox_RID>
81244

> <DSSTox_GSID>
45946

> <DSSTox_FileID_Sort>
5925

> <TS_ChemName>
Zolpidem

> <TS_ChemName_Synonyms>


> <TS_CASRN>
82626-48-0

> <CASRN_ChemName_Relationship>
primary

> <TS_Description>
single chemical compound

> <ChemNote>


> <STRUCTURE_Shown>
tested chemical

> <STRUCTURE_Formula>
C19H21N3O

> <STRUCTURE_MW>
307.3895

> <STRUCTURE_ChemType>
defined organic

> <STRUCTURE_DefinedOrganicForm>
parent

> <STRUCTURE_IUPAC>
N,N-dimethyl-2-[6-methyl-2-(4-methylphenyl)imidazo[1,2-a]pyridin-3-yl]acetamide

> <STRUCTURE_SMILES>
CN(C)C(=O)Cc1c(nc2ccc(C)cn12)c3ccc(C)cc3

> <STRUCTURE_SMILES_Desalt>
CN(C)C(=O)Cc1c(nc2ccc(C)cn12)c3ccc(C)cc3

> <Substance_modify_yyyymmdd>
20110930

$$$$
