82626-01-5
ChemmineR-0915142007XD

 27 29  0  0  0  0  0  0  0  0  1 V2000
    4.6911   -2.4157    0.0000 C    0  0  0  0  0  0  0  0  0  0  0  0
    3.4294   -2.0166    0.0000 N    0  0  0  0  0  0  0  0  0  0  0  0
    4.6911   -0.2804    0.0000 N    0  0  0  0  0  0  0  0  0  0  0  0
    5.5107   -1.3480    0.0000 C    0  0  0  0  0  0  0  0  0  0  0  0
    3.4294   -0.6794    0.0000 C    0  0  0  0  0  0  0  0  0  0  0  0
    4.6911   -3.7637    0.0000 C    0  0  0  0  0  0  0  0  0  0  0  0
    5.8666   -4.4215    0.0000 C    0  0  0  0  0  0  0  0  0  0  0  0
    2.2970   -2.6961    0.0000 C    0  0  0  0  0  0  0  0  0  0  0  0
    2.2970    0.0000    0.0000 C    0  0  0  0  0  0  0  0  0  0  0  0
    1.1323   -2.0166    0.0000 C    0  0  0  0  0  0  0  0  0  0  0  0
    6.8048   -1.3480    0.0000 C    0  0  0  0  0  0  0  0  0  0  0  0
    1.1323   -0.6794    0.0000 C    0  0  0  0  0  0  0  0  0  0  0  0
    5.8666   -5.7372    0.0000 N    0  0  0  0  0  0  0  0  0  0  0  0
    6.9990   -3.7637    0.0000 O    0  0  0  0  0  0  0  0  0  0  0  0
    7.4627   -2.4804    0.0000 C    0  0  0  0  0  0  0  0  0  0  0  0
    7.4627   -0.1833    0.0000 C    0  0  0  0  0  0  0  0  0  0  0  0
    0.0000   -2.6961    0.0000 Cl   0  0  0  0  0  0  0  0  0  0  0  0
    9.4578   -1.3480    0.0000 C    0  0  0  0  0  0  0  0  0  0  0  0
    8.7891   -2.4804    0.0000 C    0  0  0  0  0  0  0  0  0  0  0  0
    8.7891   -0.1833    0.0000 C    0  0  0  0  0  0  0  0  0  0  0  0
   10.7842   -1.3480    0.0000 Cl   0  0  0  0  0  0  0  0  0  0  0  0
    6.9990   -6.4166    0.0000 C    0  0  0  0  0  0  0  0  0  0  0  0
    4.6911   -6.4166    0.0000 C    0  0  0  0  0  0  0  0  0  0  0  0
    3.5588   -5.7372    0.0000 C    0  0  0  0  0  0  0  0  0  0  0  0
    8.1636   -5.7372    0.0000 C    0  0  0  0  0  0  0  0  0  0  0  0
    9.2960   -6.3843    0.0000 C    0  0  0  0  0  0  0  0  0  0  0  0
    2.3941   -6.4166    0.0000 C    0  0  0  0  0  0  0  0  0  0  0  0
  1  2  1  0  0  0  0
  1  4  2  0  0  0  0
  1  6  1  0  0  0  0
  2  5  1  0  0  0  0
  2  8  1  0  0  0  0
  3  4  1  0  0  0  0
  3  5  2  0  0  0  0
  4 11  1  0  0  0  0
  5  9  1  0  0  0  0
  6  7  1  0  0  0  0
  7 13  1  0  0  0  0
  7 14  2  0  0  0  0
  8 10  2  0  0  0  0
  9 12  2  0  0  0  0
 10 12  1  0  0  0  0
 10 17  1  0  0  0  0
 11 15  2  0  0  0  0
 11 16  1  0  0  0  0
 13 22  1  0  0  0  0
 13 23  1  0  0  0  0
 15 19  1  0  0  0  0
 16 20  2  0  0  0  0
 18 20  1  0  0  0  0
 18 21  1  0  0  0  0
 18 19  2  0  0  0  0
 22 25  1  0  0  0  0
 23 24  1  0  0  0  0
 24 27  1  0  0  0  0
 25 26  1  0  0  0  0
M  END
> <ID>
14030

> <Formula>
C21H23Cl2N3O

> <FW>
404.3328

> <DSSTox_CID>
28972

> <DSSTox_RID>
83237

> <DSSTox_GSID>
49046

> <DSSTox_FileID_Sort>
7912

> <TS_ChemName>
Alpidem

> <TS_ChemName_Synonyms>


> <TS_CASRN>
82626-01-5

> <CASRN_ChemName_Relationship>
primary

> <TS_Description>
single chemical compound

> <ChemNote>


> <STRUCTURE_Shown>
tested chemical

> <STRUCTURE_Formula>
C21H23Cl2N3O

> <STRUCTURE_MW>
404.3328

> <STRUCTURE_ChemType>
defined organic

> <STRUCTURE_DefinedOrganicForm>
parent

> <STRUCTURE_IUPAC>
2-[6-chloro-2-(4-chlorophenyl)imidazo[1,2-a]pyridin-3-yl]-N,N-dipropylacetamide

> <STRUCTURE_SMILES>
CCCN(CCC)C(=O)Cc1c(nc2ccc(Cl)cn12)c3ccc(Cl)cc3

> <STRUCTURE_SMILES_Desalt>
CCCN(CCC)C(=O)Cc1c(nc2ccc(Cl)cn12)c3ccc(Cl)cc3

> <Substance_modify_yyyymmdd>
20111204

$$$$
