82640-04-8
ChemmineR-0915142007XD

 35 38  0  0  0  0  0  0  0  0  1 V2000
    8.0051   -2.4100    0.0000 C    0  0  0  0  0  0  0  0  0  0  0  0
    8.7661   -1.3107    0.0000 C    0  0  0  0  0  0  0  0  0  0  0  0
    6.7226   -1.9872    0.0000 C    0  0  0  0  0  0  0  0  0  0  0  0
    8.6534   -3.5515    0.0000 C    0  0  0  0  0  0  0  0  0  0  0  0
   10.1050   -1.3107    0.0000 C    0  0  0  0  0  0  0  0  0  0  0  0
    8.0051   -0.2537    0.0000 S    0  0  0  0  0  0  0  0  0  0  0  0
    6.7226   -0.6483    0.0000 C    0  0  0  0  0  0  0  0  0  0  0  0
    5.5669   -2.6496    0.0000 C    0  0  0  0  0  0  0  0  0  0  0  0
    8.0051   -4.7072    0.0000 C    0  0  0  0  0  0  0  0  0  0  0  0
    9.9922   -3.5515    0.0000 O    0  0  0  0  0  0  0  0  0  0  0  0
   10.7533   -2.4804    0.0000 C    0  0  0  0  0  0  0  0  0  0  0  0
   10.7533   -0.1832    0.0000 C    0  0  0  0  0  0  0  0  0  0  0  0
    5.5669    0.0000    0.0000 C    0  0  0  0  0  0  0  0  0  0  0  0
    4.4253   -1.9872    0.0000 C    0  0  0  0  0  0  0  0  0  0  0  0
    6.6662   -4.7072    0.0000 C    0  0  0  0  0  0  0  0  0  0  0  0
    8.6534   -5.8770    0.0000 C    0  0  0  0  0  0  0  0  0  0  0  0
   12.0922   -2.4804    0.0000 C    0  0  0  0  0  0  0  0  0  0  0  0
   12.0922   -0.1832    0.0000 C    0  0  0  0  0  0  0  0  0  0  0  0
    4.4253   -0.6483    0.0000 C    0  0  0  0  0  0  0  0  0  0  0  0
    5.9756   -5.8770    0.0000 C    0  0  0  0  0  0  0  0  0  0  0  0
    8.0051   -7.0185    0.0000 C    0  0  0  0  0  0  0  0  0  0  0  0
   12.7546   -1.3107    0.0000 C    0  0  0  0  0  0  0  0  0  0  0  0
    3.2556    0.0000    0.0000 O    0  0  0  0  0  0  0  0  0  0  0  0
    6.6662   -7.0185    0.0000 C    0  0  0  0  0  0  0  0  0  0  0  0
   14.0934   -1.3107    0.0000 O    0  0  0  0  0  0  0  0  0  0  0  0
    5.9756   -8.1601    0.0000 O    0  0  0  0  0  0  0  0  0  0  0  0
    4.6508   -8.1601    0.0000 C    0  0  0  0  0  0  0  0  0  0  0  0
    3.9884   -7.0185    0.0000 C    0  0  0  0  0  0  0  0  0  0  0  0
    2.6637   -7.0185    0.0000 N    0  0  0  0  0  0  0  0  0  0  0  0
    2.0013   -8.1601    0.0000 C    0  0  0  0  0  0  0  0  0  0  0  0
    2.0013   -5.8770    0.0000 C    0  0  0  0  0  0  0  0  0  0  0  0
    0.6624   -8.1601    0.0000 C    0  0  0  0  0  0  0  0  0  0  0  0
    0.6624   -5.8770    0.0000 C    0  0  0  0  0  0  0  0  0  0  0  0
    0.0000   -7.0185    0.0000 C    0  0  0  0  0  0  0  0  0  0  0  0
    2.0013   -2.6496    0.0000 Cl   0  0  0  0  0  0  0  0  0  0  0  0
  1  2  2  0  0  0  0
  1  3  1  0  0  0  0
  1  4  1  0  0  0  0
  2  5  1  0  0  0  0
  2  6  1  0  0  0  0
  3  7  1  0  0  0  0
  3  8  2  0  0  0  0
  4  9  1  0  0  0  0
  4 10  2  0  0  0  0
  5 11  2  0  0  0  0
  5 12  1  0  0  0  0
  6  7  1  0  0  0  0
  7 13  2  0  0  0  0
  8 14  1  0  0  0  0
  9 15  1  0  0  0  0
  9 16  2  0  0  0  0
 11 17  1  0  0  0  0
 12 18  2  0  0  0  0
 13 19  1  0  0  0  0
 14 19  2  0  0  0  0
 15 20  2  0  0  0  0
 16 21  1  0  0  0  0
 17 22  2  0  0  0  0
 18 22  1  0  0  0  0
 19 23  1  0  0  0  0
 20 24  1  0  0  0  0
 21 24  2  0  0  0  0
 22 25  1  0  0  0  0
 24 26  1  0  0  0  0
 26 27  1  0  0  0  0
 27 28  1  0  0  0  0
 28 29  1  0  0  0  0
 29 30  1  0  0  0  0
 29 31  1  0  0  0  0
 30 32  1  0  0  0  0
 31 33  1  0  0  0  0
 32 34  1  0  0  0  0
 33 34  1  0  0  0  0
M  END
> <ID>
6671

> <Formula>
C28H28ClNO4S

> <FW>
510.0442 (473.5833+36.4609)

> <DSSTox_CID>
14181

> <DSSTox_RID>
79119

> <DSSTox_GSID>
34181

> <DSSTox_FileID_Sort>
3801

> <TS_ChemName>
Raloxifene hydrochloride

> <TS_ChemName_Synonyms>


> <TS_CASRN>
82640-04-8

> <CASRN_ChemName_Relationship>
primary

> <TS_Description>
single chemical compound

> <ChemNote>
parent [84449-90-1]

> <STRUCTURE_Shown>
tested chemical

> <STRUCTURE_Formula>
C28H28ClNO4S

> <STRUCTURE_MW>
510.0442

> <STRUCTURE_ChemType>
defined organic

> <STRUCTURE_DefinedOrganicForm>
complex

> <STRUCTURE_IUPAC>
[6-hydroxy-2-(4-hydroxyphenyl)-1-benzothiophen-3-yl]{4-[2-(piperidin-1-yl)ethoxy]phenyl}methanone hydrochloride (1:1)

> <STRUCTURE_SMILES>
Cl.Oc1ccc(cc1)c3sc2cc(O)ccc2c3C(=O)c5ccc(OCCN4CCCCC4)cc5

> <STRUCTURE_SMILES_Desalt>
Oc1ccc(cc1)c3sc2cc(O)ccc2c3C(=O)c5ccc(OCCN4CCCCC4)cc5

> <Substance_modify_yyyymmdd>
20080429

$$$$
