82657-04-3
ChemmineR-0915142007XD

 29 31  0  0  0  0  0  0  0  0  1 V2000
    5.3428   -1.0224    0.0000 C    0  0  0  0  0  0  0  0  0  0  0  0
    4.6337   -2.1932    0.0000 C    0  0  0  0  0  0  0  0  0  0  0  0
    6.0024   -2.1932    0.0000 C    0  0  0  0  0  0  0  0  0  0  0  0
    3.5124   -2.8528    0.0000 C    0  0  0  0  0  0  0  0  0  0  0  0
    1.1708   -2.8198    0.0000 C    0  0  0  0  0  0  0  0  0  0  0  0
    2.3416   -2.1932    0.0000 C    0  0  0  0  0  0  0  0  0  0  0  0
    7.1897   -2.8693    0.0000 C    0  0  0  0  0  0  0  0  0  0  0  0
   11.8069   -2.8528    0.0000 C    0  0  0  0  0  0  0  0  0  0  0  0
   12.9777   -2.1767    0.0000 C    0  0  0  0  0  0  0  0  0  0  0  0
    8.3110   -2.2097    0.0000 O    0  0  0  0  0  0  0  0  0  0  0  0
   10.6526   -2.2097    0.0000 C    0  0  0  0  0  0  0  0  0  0  0  0
    7.1897   -4.2050    0.0000 O    0  0  0  0  0  0  0  0  0  0  0  0
   14.1485   -2.8363    0.0000 C    0  0  0  0  0  0  0  0  0  0  0  0
    9.4983   -2.8693    0.0000 C    0  0  0  0  0  0  0  0  0  0  0  0
    0.0000   -3.4629    0.0000 F    0  0  0  0  0  0  0  0  0  0  0  0
    0.5277   -1.6490    0.0000 F    0  0  0  0  0  0  0  0  0  0  0  0
    1.8139   -3.9906    0.0000 F    0  0  0  0  0  0  0  0  0  0  0  0
    4.7821    0.0000    0.0000 C    0  0  0  0  0  0  0  0  0  0  0  0
    5.9694    0.0000    0.0000 C    0  0  0  0  0  0  0  0  0  0  0  0
    2.3416   -0.8575    0.0000 Cl   0  0  0  0  0  0  0  0  0  0  0  0
   12.9777   -0.8410    0.0000 C    0  0  0  0  0  0  0  0  0  0  0  0
   11.8234   -4.1885    0.0000 C    0  0  0  0  0  0  0  0  0  0  0  0
   11.7905   -0.1649    0.0000 C    0  0  0  0  0  0  0  0  0  0  0  0
   10.6526   -0.8740    0.0000 C    0  0  0  0  0  0  0  0  0  0  0  0
   14.1650   -4.1720    0.0000 C    0  0  0  0  0  0  0  0  0  0  0  0
   15.2864   -2.1437    0.0000 C    0  0  0  0  0  0  0  0  0  0  0  0
   16.4572   -2.8033    0.0000 C    0  0  0  0  0  0  0  0  0  0  0  0
   15.3193   -4.8316    0.0000 C    0  0  0  0  0  0  0  0  0  0  0  0
   16.4901   -4.1555    0.0000 C    0  0  0  0  0  0  0  0  0  0  0  0
  1  2  1  0  0  0  0
  1  3  1  0  0  0  0
  1 18  1  0  0  0  0
  1 19  1  0  0  0  0
  2  4  1  0  0  0  0
  2  3  1  0  0  0  0
  3  7  1  0  0  0  0
  4  6  2  0  0  0  0
  5  6  1  0  0  0  0
  5 15  1  0  0  0  0
  5 16  1  0  0  0  0
  5 17  1  0  0  0  0
  6 20  1  0  0  0  0
  7 10  1  0  0  0  0
  7 12  2  0  0  0  0
  8 11  1  0  0  0  0
  8  9  2  0  0  0  0
  8 22  1  0  0  0  0
  9 13  1  0  0  0  0
  9 21  1  0  0  0  0
 10 14  1  0  0  0  0
 11 14  1  0  0  0  0
 11 24  2  0  0  0  0
 13 25  2  0  0  0  0
 13 26  1  0  0  0  0
 21 23  2  0  0  0  0
 23 24  1  0  0  0  0
 25 28  1  0  0  0  0
 26 27  2  0  0  0  0
 27 29  1  0  0  0  0
 28 29  2  0  0  0  0
M  END
> <ID>
157

> <Formula>
C23H22ClF3O2

> <FW>
422.8678

> <DSSTox_CID>
160

> <DSSTox_RID>
75410

> <DSSTox_GSID>
20160

> <DSSTox_FileID_Sort>
94

> <TS_ChemName>
Bifenthrin

> <TS_ChemName_Synonyms>
Bifenthrin (Biphenthrin)

> <TS_CASRN>
82657-04-3

> <CASRN_ChemName_Relationship>
primary

> <TS_Description>
single chemical compound

> <ChemNote>
mixture of (1R,S) stereoisomers; ? 97% Z isomer; stereochem

> <STRUCTURE_Shown>
tested chemical

> <STRUCTURE_Formula>
C23H22ClF3O2

> <STRUCTURE_MW>
422.8678

> <STRUCTURE_ChemType>
defined organic

> <STRUCTURE_DefinedOrganicForm>
parent

> <STRUCTURE_IUPAC>
(2-methylbiphenyl-3-yl)methyl 3-[(1Z)-2-chloro-3,3,3-trifluoroprop-1-en-1-yl]-2,2-dimethylcyclopropanecarboxylate

> <STRUCTURE_SMILES>
Cl\C(=C/C3C(C(=O)OCc2cccc(c1ccccc1)c2C)C3(C)C)C(F)(F)F

> <STRUCTURE_SMILES_Desalt>
Cl\C(=C/C3C(C(=O)OCc2cccc(c1ccccc1)c2C)C3(C)C)C(F)(F)F

> <Substance_modify_yyyymmdd>
20080429

$$$$
