82691-32-5
ChemmineR-0915142007XD

 15 14  0  0  0  0  0  0  0  0  1 V2000
    4.7121   -3.4303    0.0000 Cl   0  0  0  0  0  0  0  0  0  0  0  0
    9.2213    0.0000    0.0000 C    0  0  0  0  0  0  0  0  0  0  0  0
    8.0778   -0.6824    0.0000 C    0  0  0  0  0  0  0  0  0  0  0  0
    8.0778   -2.0010    0.0000 C    0  0  0  0  0  0  0  0  0  0  0  0
    6.9159    0.0000    0.0000 N    0  0  0  0  0  0  0  0  0  0  0  0
    5.7633   -0.6824    0.0000 C    0  0  0  0  0  0  0  0  0  0  0  0
    5.7633   -2.0010    0.0000 C    0  0  0  0  0  0  0  0  0  0  0  0
    4.6198    0.0000    0.0000 C    0  0  0  0  0  0  0  0  0  0  0  0
    3.4580   -0.6824    0.0000 C    0  0  0  0  0  0  0  0  0  0  0  0
    3.4580   -2.0010    0.0000 C    0  0  0  0  0  0  0  0  0  0  0  0
    2.3053   -2.6557    0.0000 C    0  0  0  0  0  0  0  0  0  0  0  0
    1.1619   -2.0010    0.0000 C    0  0  0  0  0  0  0  0  0  0  0  0
    0.0000   -2.6557    0.0000 I    0  0  0  0  0  0  0  0  0  0  0  0
    1.1619   -0.6824    0.0000 C    0  0  0  0  0  0  0  0  0  0  0  0
    2.3053    0.0000    0.0000 C    0  0  0  0  0  0  0  0  0  0  0  0
  2  3  1  0  0  0  0
  3  4  1  0  0  0  0
  3  5  1  0  0  0  0
  5  6  1  0  0  0  0
  6  7  1  0  0  0  0
  6  8  1  0  0  0  0
  8  9  1  0  0  0  0
  9 10  2  0  0  0  0
  9 15  1  0  0  0  0
 10 11  1  0  0  0  0
 11 12  2  0  0  0  0
 12 13  1  0  0  0  0
 12 14  1  0  0  0  0
 14 15  2  0  0  0  0
M  END
> <ID>
11184

> <Formula>
C12H19ClIN

> <FW>
339.6434 (36.4609+303.1825)

> <DSSTox_CID>
25774

> <DSSTox_RID>
81116

> <DSSTox_GSID>
45774

> <DSSTox_FileID_Sort>
5797

> <TS_ChemName>
Iofetamine hydrochloride

> <TS_ChemName_Synonyms>


> <TS_CASRN>
82691-32-5

> <CASRN_ChemName_Relationship>
primary

> <TS_Description>
single chemical compound

> <ChemNote>
parent [95896-48-3]

> <STRUCTURE_Shown>
tested chemical

> <STRUCTURE_Formula>
C12H19ClIN

> <STRUCTURE_MW>
339.6434

> <STRUCTURE_ChemType>
defined organic

> <STRUCTURE_DefinedOrganicForm>
complex

> <STRUCTURE_IUPAC>
1-(4-iodophenyl)-N-(propan-2-yl)propan-2-amine hydrochloride (1:1)

> <STRUCTURE_SMILES>
Cl.Ic1ccc(CC(C)NC(C)C)cc1

> <STRUCTURE_SMILES_Desalt>
Ic1ccc(CC(C)NC(C)C)cc1

> <Substance_modify_yyyymmdd>
20110902

$$$$
