827-61-2
ChemmineR-0915142007XD

 12 13  0  0  0  0  0  0  0  0  1 V2000
    3.5985   -1.4431    0.0000 N   0  0  0  0  0  0  0  0  0  0  0  0
    4.8513   -2.1739    0.0000 C   0  0  0  0  0  0  0  0  0  0  0  0
    3.5985    0.0000    0.0000 C   0  0  0  0  0  0  0  0  0  0  0  0
    2.3458   -2.1739    0.0000 C   0  0  0  0  0  0  0  0  0  0  0  0
    4.0530   -2.2598    0.0000 C   0  0  0  0  0  0  0  0  0  0  0  0
    5.3057   -2.9906    0.0000 C   0  0  0  0  0  0  0  0  0  0  0  0
    4.0530   -0.8167    0.0000 C   0  0  0  0  0  0  0  0  0  0  0  0
    2.8002   -2.9906    0.0000 C   0  0  0  0  0  0  0  0  0  0  0  0
    2.4195   -4.3846    0.0000 O   0  0  0  0  0  0  0  0  0  0  0  0
    1.0071   -4.7469    0.0000 C   0  0  0  0  0  0  0  0  0  0  0  0
    0.6264   -6.1408    0.0000 C   0  0  0  0  0  0  0  0  0  0  0  0
    0.0000   -3.7029    0.0000 O   0  0  0  0  0  0  0  0  0  0  0  0
  1  2  1  0  0  0  0
  1  3  1  0  0  0  0
  1  4  1  0  0  0  0
  2  6  1  0  0  0  0
  3  7  1  0  0  0  0
  4  8  1  0  0  0  0
  5  6  1  0  0  0  0
  5  7  1  0  0  0  0
  5  8  1  0  0  0  0
  8  9  1  0  0  0  0
  9 10  1  0  0  0  0
 10 11  1  0  0  0  0
 10 12  2  0  0  0  0
M  END
> <ID>
11103

> <Formula>
C9H15NO2

> <FW>
169.2209

> <DSSTox_CID>
25658

> <DSSTox_RID>
81035

> <DSSTox_GSID>
45658

> <DSSTox_FileID_Sort>
5716

> <TS_ChemName>
Aceclidine

> <TS_ChemName_Synonyms>


> <TS_CASRN>
827-61-2

> <CASRN_ChemName_Relationship>
primary

> <TS_Description>
single chemical compound

> <ChemNote>


> <STRUCTURE_Shown>
tested chemical

> <STRUCTURE_Formula>
C9H15NO2

> <STRUCTURE_MW>
169.2209

> <STRUCTURE_ChemType>
defined organic

> <STRUCTURE_DefinedOrganicForm>
parent

> <STRUCTURE_IUPAC>
1-azabicyclo[2.2.2]oct-3-yl acetate

> <STRUCTURE_SMILES>
CC(=O)OC2CN1CCC2CC1

> <STRUCTURE_SMILES_Desalt>
CC(=O)OC2CN1CCC2CC1

> <Substance_modify_yyyymmdd>
20100107

$$$$
