827-95-2
ChemmineR-0915142007XD

 13 12  0  0  0  0  0  0  0  0  2 V2000
    5.7599   -1.3268    0.0000 C    0  0  0  0  0  0  0  0  0  0  0  0
    5.7599    0.0000    0.0000 O    0  0  0  0  0  0  0  0  0  0  0  0
    4.6079   -1.9941    0.0000 C    0  0  0  0  0  0  0  0  0  0  0  0
    6.8880   -1.9941    0.0000 O    0  5  0  0  0  0  0  0  0  0  0  0
    3.4639   -1.3268    0.0000 C    0  0  0  0  0  0  0  0  0  0  0  0
    4.6079   -3.3368    0.0000 C    0  0  0  0  0  0  0  0  0  0  0  0
    2.2960   -1.9941    0.0000 C    0  0  0  0  0  0  0  0  0  0  0  0
    3.4639   -3.9882    0.0000 C    0  0  0  0  0  0  0  0  0  0  0  0
    2.2960   -3.3368    0.0000 C    0  0  0  0  0  0  0  0  0  0  0  0
    1.1520   -1.3268    0.0000 N    0  3  0  0  0  0  0  0  0  0  0  0
    0.0000   -1.9941    0.0000 O    0  5  0  0  0  0  0  0  0  0  0  0
    1.1520    0.0000    0.0000 O    0  0  0  0  0  0  0  0  0  0  0  0
    7.9447   -0.3972    0.0000 Na   0  3  0  0  0  0  0  0  0  0  0  0
  1  2  2  0  0  0  0
  1  3  1  0  0  0  0
  1  4  1  0  0  0  0
  3  5  2  0  0  0  0
  3  6  1  0  0  0  0
  5  7  1  0  0  0  0
  6  8  2  0  0  0  0
  7  9  2  0  0  0  0
  7 10  1  0  0  0  0
  8  9  1  0  0  0  0
 10 11  1  0  0  0  0
 10 12  2  0  0  0  0
M  END
> <ID>
10385

> <Formula>
C7H4NNaO4

> <FW>
189.1007 (166.1115+22.9892)

> <DSSTox_CID>
24733

> <DSSTox_RID>
80430

> <DSSTox_GSID>
44733

> <DSSTox_FileID_Sort>
5112

> <TS_ChemName>
Sodium 3-nitrobenzoate

> <TS_ChemName_Synonyms>
Sodium 3-nitrobenzoate (Benzoic acid, 3-nitro-, sodium salt)

> <TS_CASRN>
827-95-2

> <CASRN_ChemName_Relationship>
primary

> <TS_Description>
single chemical compound

> <ChemNote>
parent [121-92-6]

> <STRUCTURE_Shown>
tested chemical

> <STRUCTURE_Formula>
C7H4NNaO4

> <STRUCTURE_MW>
189.1007

> <STRUCTURE_ChemType>
defined organic

> <STRUCTURE_DefinedOrganicForm>
salt

> <STRUCTURE_IUPAC>
sodium 3-nitrobenzoate

> <STRUCTURE_SMILES>
[Na+].O=[N+]([O-])c1cc(ccc1)C([O-])=O

> <STRUCTURE_SMILES_Desalt>
O=[N+]([O-])c1cc(ccc1)C(=O)O

> <Substance_modify_yyyymmdd>
20091116

$$$$
