82752-99-6
ChemmineR-0915142007XD

 34 36  0  0  0  0  0  0  0  0  1 V2000
   12.5314   -2.1177    0.0000 N    0  0  0  0  0  0  0  0  0  0  0  0
   12.1234   -3.3806    0.0000 C    0  0  0  0  0  0  0  0  0  0  0  0
   11.4434   -1.3406    0.0000 C    0  0  0  0  0  0  0  0  0  0  0  0
   13.6777   -1.4766    0.0000 C    0  0  0  0  0  0  0  0  0  0  0  0
   10.7828   -3.3806    0.0000 N    0  0  0  0  0  0  0  0  0  0  0  0
   12.9006   -4.4880    0.0000 C    0  0  0  0  0  0  0  0  0  0  0  0
   10.3554   -2.1177    0.0000 N    0  0  0  0  0  0  0  0  0  0  0  0
   11.4434    0.0000    0.0000 O    0  0  0  0  0  0  0  0  0  0  0  0
   14.8434   -2.1566    0.0000 C    0  0  0  0  0  0  0  0  0  0  0  0
   14.2217   -4.4880    0.0000 C    0  0  0  0  0  0  0  0  0  0  0  0
    9.2091   -1.4571    0.0000 C    0  0  0  0  0  0  0  0  0  0  0  0
   15.9703   -1.4766    0.0000 O    0  0  0  0  0  0  0  0  0  0  0  0
    8.0434   -2.1177    0.0000 C    0  0  0  0  0  0  0  0  0  0  0  0
   17.1166   -2.1566    0.0000 C    0  0  0  0  0  0  0  0  0  0  0  0
    6.8971   -1.4571    0.0000 C    0  0  0  0  0  0  0  0  0  0  0  0
   18.3017   -1.4766    0.0000 C    0  0  0  0  0  0  0  0  0  0  0  0
   17.1166   -3.4777    0.0000 C    0  0  0  0  0  0  0  0  0  0  0  0
    5.7509   -2.1177    0.0000 N    0  0  0  0  0  0  0  0  0  0  0  0
   19.4286   -2.1566    0.0000 C    0  0  0  0  0  0  0  0  0  0  0  0
   18.3017   -4.1577    0.0000 C    0  0  0  0  0  0  0  0  0  0  0  0
    5.7509   -3.4777    0.0000 C    0  0  0  0  0  0  0  0  0  0  0  0
    4.5851   -1.4571    0.0000 C    0  0  0  0  0  0  0  0  0  0  0  0
   19.4286   -3.4777    0.0000 C    0  0  0  0  0  0  0  0  0  0  0  0
    4.5851   -4.1189    0.0000 C    0  0  0  0  0  0  0  0  0  0  0  0
    3.4583   -2.1177    0.0000 C    0  0  0  0  0  0  0  0  0  0  0  0
    3.4583   -3.4777    0.0000 N    0  0  0  0  0  0  0  0  0  0  0  0
    2.2731   -4.1189    0.0000 C    0  0  0  0  0  0  0  0  0  0  0  0
    2.2731   -5.4400    0.0000 C    0  0  0  0  0  0  0  0  0  0  0  0
    1.1269   -3.4777    0.0000 C    0  0  0  0  0  0  0  0  0  0  0  0
    1.1269   -6.1006    0.0000 C    0  0  0  0  0  0  0  0  0  0  0  0
    0.0000   -4.1189    0.0000 C    0  0  0  0  0  0  0  0  0  0  0  0
    0.0000   -5.4400    0.0000 C    0  0  0  0  0  0  0  0  0  0  0  0
    1.1269   -7.4411    0.0000 Cl   0  0  0  0  0  0  0  0  0  0  0  0
    8.0628   -4.7600    0.0000 Cl   0  0  0  0  0  0  0  0  0  0  0  0
  1  2  1  0  0  0  0
  1  3  1  0  0  0  0
  1  4  1  0  0  0  0
  2  5  2  0  0  0  0
  2  6  1  0  0  0  0
  3  7  1  0  0  0  0
  3  8  2  0  0  0  0
  4  9  1  0  0  0  0
  5  7  1  0  0  0  0
  6 10  1  0  0  0  0
  7 11  1  0  0  0  0
  9 12  1  0  0  0  0
 11 13  1  0  0  0  0
 12 14  1  0  0  0  0
 13 15  1  0  0  0  0
 14 16  2  0  0  0  0
 14 17  1  0  0  0  0
 15 18  1  0  0  0  0
 16 19  1  0  0  0  0
 17 20  2  0  0  0  0
 18 21  1  0  0  0  0
 18 22  1  0  0  0  0
 19 23  2  0  0  0  0
 20 23  1  0  0  0  0
 21 24  1  0  0  0  0
 22 25  1  0  0  0  0
 24 26  1  0  0  0  0
 25 26  1  0  0  0  0
 26 27  1  0  0  0  0
 27 28  2  0  0  0  0
 27 29  1  0  0  0  0
 28 30  1  0  0  0  0
 29 31  2  0  0  0  0
 30 32  2  0  0  0  0
 30 33  1  0  0  0  0
 31 32  1  0  0  0  0
M  END
> <ID>
11396

> <Formula>
C25H33Cl2N5O2

> <FW>
506.4678 (470.0069+36.4609)

> <DSSTox_CID>
26088

> <DSSTox_RID>
81328

> <DSSTox_GSID>
46088

> <DSSTox_FileID_Sort>
6009

> <TS_ChemName>
Nefazodone hydrochloride

> <TS_ChemName_Synonyms>


> <TS_CASRN>
82752-99-6

> <CASRN_ChemName_Relationship>
primary

> <TS_Description>
single chemical compound

> <ChemNote>
parent [83366-66-9]

> <STRUCTURE_Shown>
tested chemical

> <STRUCTURE_Formula>
C25H33Cl2N5O2

> <STRUCTURE_MW>
506.4678

> <STRUCTURE_ChemType>
defined organic

> <STRUCTURE_DefinedOrganicForm>
complex

> <STRUCTURE_IUPAC>
2-{3-[4-(3-chlorophenyl)piperazin-1-yl]propyl}-5-ethyl-4-(2-phenoxyethyl)-2,4-dihydro-3H-1,2,4-triazol-3-one hydrochloride (1:1)

> <STRUCTURE_SMILES>
Cl.Clc1cccc(c1)N4CCN(CCCN3N=C(CC)N(CCOc2ccccc2)C3=O)CC4

> <STRUCTURE_SMILES_Desalt>
Clc1cccc(c1)N4CCN(CCCN3N=C(CC)N(CCOc2ccccc2)C3=O)CC4

> <Substance_modify_yyyymmdd>
20110819

$$$$
