828-00-2
ChemmineR-0915142007XD

 12 12  0  0  0  0  0  0  0  0  1 V2000
    2.3013    0.0000    0.0000 C   0  0  0  0  0  0  0  0  0  0  0  0
    2.3013   -1.3269    0.0000 C   0  0  0  0  0  0  0  0  0  0  0  0
    3.4554   -1.9903    0.0000 C   0  0  0  0  0  0  0  0  0  0  0  0
    3.4554   -3.3241    0.0000 C   0  0  0  0  0  0  0  0  0  0  0  0
    2.3013   -3.9876    0.0000 O   0  0  0  0  0  0  0  0  0  0  0  0
    1.1541   -3.3241    0.0000 C   0  0  0  0  0  0  0  0  0  0  0  0
    1.1541   -1.9903    0.0000 O   0  0  0  0  0  0  0  0  0  0  0  0
    0.0000   -3.9876    0.0000 C   0  0  0  0  0  0  0  0  0  0  0  0
    4.6095   -3.9876    0.0000 O   0  0  0  0  0  0  0  0  0  0  0  0
    5.7567   -3.3241    0.0000 C   0  0  0  0  0  0  0  0  0  0  0  0
    5.7567   -1.9903    0.0000 O   0  0  0  0  0  0  0  0  0  0  0  0
    6.9108   -3.9876    0.0000 C   0  0  0  0  0  0  0  0  0  0  0  0
  1  2  1  0  0  0  0
  2  3  1  0  0  0  0
  2  7  1  0  0  0  0
  3  4  1  0  0  0  0
  4  5  1  0  0  0  0
  4  9  1  0  0  0  0
  5  6  1  0  0  0  0
  6  7  1  0  0  0  0
  6  8  1  0  0  0  0
  9 10  1  0  0  0  0
 10 11  2  0  0  0  0
 10 12  1  0  0  0  0
M  END
> <ID>
464

> <Formula>
C8H14O4

> <FW>
174.1944

> <DSSTox_CID>
480

> <DSSTox_RID>
75616

> <DSSTox_GSID>
20480

> <DSSTox_FileID_Sort>
300

> <TS_ChemName>
Dimethoxane

> <TS_ChemName_Synonyms>
Dimethoxane (2,6-Dimethyl-m-dioxan-4-ol acetate )

> <TS_CASRN>
828-00-2

> <CASRN_ChemName_Relationship>
primary

> <TS_Description>
single chemical compound

> <ChemNote>


> <STRUCTURE_Shown>
tested chemical

> <STRUCTURE_Formula>
C8H14O4

> <STRUCTURE_MW>
174.1944

> <STRUCTURE_ChemType>
defined organic

> <STRUCTURE_DefinedOrganicForm>
parent

> <STRUCTURE_IUPAC>
2,6-dimethyl-1,3-dioxan-4-yl acetate

> <STRUCTURE_SMILES>
O=C(C)OC1CC(C)OC(C)O1

> <STRUCTURE_SMILES_Desalt>
O=C(C)OC1CC(C)OC(C)O1

> <Substance_modify_yyyymmdd>
20080429

$$$$
