82834-16-0
ChemmineR-0915142007XD

 28 29  0  0  1  0  0  0  0  0  1 V2000
    6.8271   -3.0528    0.0000 N   0  0  0  0  0  0  0  0  0  0  0  0
    6.0430   -1.9446    0.0000 C   0  0  0  0  0  0  0  0  0  0  0  0
    6.8271   -4.3388    0.0000 C   0  0  0  0  0  0  0  0  0  0  0  0
    8.1339   -2.6137    0.0000 C   0  0  0  0  0  0  0  0  0  0  0  0
    6.8271   -0.8573    0.0000 C   0  0  0  0  0  0  0  0  0  0  0  0
    4.6838   -1.9446    0.0000 C   0  0  0  0  0  0  0  0  0  0  0  0
    5.6770   -6.3252    0.0000 N   0  0  0  0  0  0  0  0  0  0  0  0
    8.1339   -1.2546    0.0000 C   0  0  0  0  0  0  0  0  0  0  0  0
    5.6770   -4.9870    0.0000 C   0  0  0  0  0  0  0  0  0  0  0  0
    3.4188   -6.3252    0.0000 C   0  0  0  0  0  0  0  0  0  0  0  0
    4.5374   -6.9630    0.0000 C   0  0  0  0  0  0  0  0  0  0  0  0
    7.9667   -5.0079    0.0000 O   0  0  0  0  0  0  0  0  0  0  0  0
    4.0042   -3.1156    0.0000 O   0  0  0  0  0  0  0  0  0  0  0  0
    3.4188   -4.9870    0.0000 O   0  0  0  0  0  0  0  0  0  0  0  0
    4.0042   -0.7737    0.0000 O   0  0  0  0  0  0  0  0  0  0  0  0
    2.2583   -6.9630    0.0000 O   0  0  0  0  0  0  0  0  0  0  0  0
    9.3049   -3.3038    0.0000 C   0  0  0  0  0  0  0  0  0  0  0  0
    9.3049   -0.5855    0.0000 C   0  0  0  0  0  0  0  0  0  0  0  0
    4.5374   -4.3388    0.0000 C   0  0  0  0  0  0  0  0  0  0  0  0
    4.5374   -8.2803    0.0000 C   0  0  0  0  0  0  0  0  0  0  0  0
    1.1396   -6.3252    0.0000 C   0  0  0  0  0  0  0  0  0  0  0  0
    3.4188   -8.9390    0.0000 C   0  0  0  0  0  0  0  0  0  0  0  0
   10.4549   -2.6137    0.0000 C   0  0  0  0  0  0  0  0  0  0  0  0
   10.4549   -1.2546    0.0000 C   0  0  0  0  0  0  0  0  0  0  0  0
    0.0000   -6.9630    0.0000 C   0  0  0  0  0  0  0  0  0  0  0  0
    3.4188  -10.2668    0.0000 C   0  0  0  0  0  0  0  0  0  0  0  0
    8.1339   -3.9520    0.0000 H   0  0  0  0  0  0  0  0  0  0  0  0
    8.1339    0.0000    0.0000 H   0  0  0  0  0  0  0  0  0  0  0  0
  1  2  1  0  0  0  0
  1  3  1  0  0  0  0
  1  4  1  0  0  0  0
  2  5  1  0  0  0  0
  2  6  1  6  0  0  0
  3  9  1  0  0  0  0
  3 12  2  0  0  0  0
  4  8  1  0  0  0  0
  4 17  1  0  0  0  0
  4 27  1  1  0  0  0
  5  8  1  0  0  0  0
  6 13  2  0  0  0  0
  6 15  1  0  0  0  0
  7  9  1  0  0  0  0
  7 11  1  0  0  0  0
  8 18  1  0  0  0  0
  8 28  1  1  0  0  0
  9 19  1  1  0  0  0
 11 10  1  1  0  0  0
 10 14  2  0  0  0  0
 10 16  1  0  0  0  0
 11 20  1  0  0  0  0
 16 21  1  0  0  0  0
 17 23  1  0  0  0  0
 18 24  1  0  0  0  0
 20 22  1  0  0  0  0
 21 25  1  0  0  0  0
 22 26  1  0  0  0  0
 23 24  1  0  0  0  0
M  END
> <ID>
3086

> <Formula>
C19H32N2O5

> <FW>
368.4678

> <DSSTox_CID>
3440

> <DSSTox_RID>
77030

> <DSSTox_GSID>
23440

> <DSSTox_FileID_Sort>
1714

> <TS_ChemName>
Perindopril

> <TS_ChemName_Synonyms>


> <TS_CASRN>
82834-16-0

> <CASRN_ChemName_Relationship>
primary

> <TS_Description>
single chemical compound

> <ChemNote>
stereochem

> <STRUCTURE_Shown>
tested chemical

> <STRUCTURE_Formula>
C19H32N2O5

> <STRUCTURE_MW>
368.4678

> <STRUCTURE_ChemType>
defined organic

> <STRUCTURE_DefinedOrganicForm>
parent

> <STRUCTURE_IUPAC>
(2S,3aS,7aS)-1-[(2S)-2-{[(2S)-1-ethoxy-1-oxopentan-2-yl]amino}propanoyl]octahydro-1H-indole-2-carboxylic acid

> <STRUCTURE_SMILES>
O=C(OCC)[C@H](CCC)N[C@@H](C)C(=O)N1[C@@H](C[C@@H]2CCCC[C@H]12)C(=O)O

> <STRUCTURE_SMILES_Desalt>
O=C(OCC)[C@H](CCC)N[C@@H](C)C(=O)N1[C@@H](C[C@@H]2CCCC[C@H]12)C(=O)O

> <Substance_modify_yyyymmdd>
20080429

$$$$
