82854-37-3
ChemmineR-0915142007XD

 55 59  0  0  1  0  0  0  0  0  1 V2000
    8.1169  -11.9453    0.0000 C   0  0  0  0  0  0  0  0  0  0  0  0
    8.7795  -13.1232    0.0000 C   0  0  0  0  0  0  0  0  0  0  0  0
   10.1047  -13.1232    0.0000 O   0  0  0  0  0  0  0  0  0  0  0  0
    8.1169  -14.2460    0.0000 C   0  0  0  0  0  0  0  0  0  0  0  0
    8.7795  -15.3871    0.0000 O   0  0  0  0  0  0  0  0  0  0  0  0
    6.7917  -14.2460    0.0000 C   0  0  0  0  0  0  0  0  0  0  0  0
    6.1107  -15.3871    0.0000 O   0  0  0  0  0  0  0  0  0  0  0  0
    6.1107  -13.1232    0.0000 C   0  0  0  0  0  0  0  0  0  0  0  0
    6.7917  -11.9453    0.0000 O   0  0  0  0  0  0  0  0  0  0  0  0
    4.7855  -13.1232    0.0000 C   0  0  0  0  0  0  0  0  0  0  0  0
    3.4603  -11.6140    0.0000 C   0  0  0  0  0  0  0  0  0  0  0  0
    3.4603  -12.9392    0.0000 C   0  0  0  0  0  0  0  0  0  0  0  0
    2.3007  -10.9514    0.0000 C   0  0  0  0  0  0  0  0  0  0  0  0
    2.3007  -13.6018    0.0000 C   0  0  0  0  0  0  0  0  0  0  0  0
    1.1596  -11.6140    0.0000 C   0  0  0  0  0  0  0  0  0  0  0  0
    1.1596  -12.9392    0.0000 C   0  0  0  0  0  0  0  0  0  0  0  0
    4.6014  -10.9330    0.0000 C   0  0  0  0  0  0  0  0  0  0  0  0
    4.6014   -9.6078    0.0000 C   0  0  0  0  0  0  0  0  0  0  0  0
    5.7426   -8.9452    0.0000 C   0  0  0  0  0  0  0  0  0  0  0  0
    5.7426   -7.6199    0.0000 O   0  0  0  0  0  0  0  0  0  0  0  0
   10.3624   -7.6199    0.0000 C   0  0  0  0  0  0  0  0  0  0  0  0
   10.3624   -8.9452    0.0000 C   0  0  0  0  0  0  0  0  0  0  0  0
    9.2028   -6.9757    0.0000 O   0  0  0  0  0  0  0  0  0  0  0  0
    9.2028   -9.6262    0.0000 C   0  0  0  0  0  0  0  0  0  0  0  0
    8.0433   -7.6199    0.0000 C   0  0  0  0  0  0  0  0  0  0  0  0
    8.0433   -8.9452    0.0000 C   0  0  0  0  0  0  0  0  0  0  0  0
   11.5035   -6.9573    0.0000 O   0  0  0  0  0  0  0  0  0  0  0  0
   11.5035   -9.6262    0.0000 O   0  0  0  0  0  0  0  0  0  0  0  0
    9.2028  -10.9514    0.0000 O   0  0  0  0  0  0  0  0  0  0  0  0
    6.9021   -9.6262    0.0000 O   0  0  0  0  0  0  0  0  0  0  0  0
    6.9021   -6.9757    0.0000 C   0  0  0  0  0  0  0  0  0  0  0  0
   12.6631   -7.6199    0.0000 C   0  0  0  0  0  0  0  0  0  0  0  0
   13.8043   -6.9573    0.0000 C   0  0  0  0  0  0  0  0  0  0  0  0
   17.2461   -7.6199    0.0000 C   0  0  0  0  0  0  0  0  0  0  0  0
   17.2461   -8.9452    0.0000 C   0  0  0  0  0  0  0  0  0  0  0  0
   16.1050   -6.9573    0.0000 C   0  0  0  0  0  0  0  0  0  0  0  0
   16.1050   -9.6078    0.0000 C   0  0  0  0  0  0  0  0  0  0  0  0
   14.9454   -7.6199    0.0000 C   0  0  0  0  0  0  0  0  0  0  0  0
   14.9454   -8.9452    0.0000 C   0  0  0  0  0  0  0  0  0  0  0  0
   18.4057   -9.6078    0.0000 O   0  0  0  0  0  0  0  0  0  0  0  0
   18.4057   -6.9573    0.0000 O   0  0  0  0  0  0  0  0  0  0  0  0
    0.0000  -13.6018    0.0000 O   0  0  0  0  0  0  0  0  0  0  0  0
    0.0000  -10.9514    0.0000 O   0  0  0  0  0  0  0  0  0  0  0  0
    6.9389   -4.5094    0.0000 C   0  0  0  0  0  0  0  0  0  0  0  0
    5.6505   -4.2333    0.0000 C   0  0  0  0  0  0  0  0  0  0  0  0
    7.8408   -3.5339    0.0000 O   0  0  0  0  0  0  0  0  0  0  0  0
    5.2272   -2.9633    0.0000 C   0  0  0  0  0  0  0  0  0  0  0  0
    7.4175   -2.2639    0.0000 C   0  0  0  0  0  0  0  0  0  0  0  0
    6.1291   -1.9694    0.0000 C   0  0  0  0  0  0  0  0  0  0  0  0
    7.3439   -5.7610    0.0000 O   0  0  0  0  0  0  0  0  0  0  0  0
    4.7487   -5.2088    0.0000 O   0  0  0  0  0  0  0  0  0  0  0  0
    3.9388   -2.6872    0.0000 O   0  0  0  0  0  0  0  0  0  0  0  0
    5.7242   -0.7178    0.0000 O   0  0  0  0  0  0  0  0  0  0  0  0
    8.3194   -1.2700    0.0000 C   0  0  0  0  0  0  0  0  0  0  0  0
    7.9144    0.0000    0.0000 O   0  0  0  0  0  0  0  0  0  0  0  0
  1  2  1  0  0  0  0
  1  9  1  0  0  0  0
  1 29  1  1  0  0  0
  2  3  1  6  0  0  0
  2  4  1  0  0  0  0
  4  5  1  6  0  0  0
  4  6  1  0  0  0  0
  6  7  1  1  0  0  0
  6  8  1  0  0  0  0
  8  9  1  0  0  0  0
  8 10  1  6  0  0  0
 11 12  1  0  0  0  0
 11 13  2  0  0  0  0
 11 17  1  0  0  0  0
 12 14  2  0  0  0  0
 13 15  1  0  0  0  0
 14 16  1  0  0  0  0
 15 16  2  0  0  0  0
 15 43  1  0  0  0  0
 16 42  1  0  0  0  0
 17 18  2  0  0  0  0
 18 19  1  0  0  0  0
 19 20  2  0  0  0  0
 19 30  1  0  0  0  0
 21 22  1  0  0  0  0
 21 23  1  0  0  0  0
 21 27  1  1  0  0  0
 22 24  1  0  0  0  0
 22 28  1  6  0  0  0
 23 25  1  0  0  0  0
 24 26  1  0  0  0  0
 24 29  1  1  0  0  0
 25 26  1  0  0  0  0
 25 31  1  1  0  0  0
 26 30  1  6  0  0  0
 27 32  1  0  0  0  0
 31 50  1  0  0  0  0
 32 33  1  0  0  0  0
 33 38  1  0  0  0  0
 34 35  1  0  0  0  0
 34 36  2  0  0  0  0
 34 41  1  0  0  0  0
 35 37  2  0  0  0  0
 35 40  1  0  0  0  0
 36 38  1  0  0  0  0
 37 39  1  0  0  0  0
 38 39  2  0  0  0  0
 44 45  1  0  0  0  0
 44 46  1  0  0  0  0
 44 50  1  1  0  0  0
 45 47  1  0  0  0  0
 45 51  1  6  0  0  0
 46 48  1  0  0  0  0
 47 49  1  0  0  0  0
 47 52  1  1  0  0  0
 48 49  1  0  0  0  0
 48 54  1  1  0  0  0
 49 53  1  6  0  0  0
 54 55  1  0  0  0  0
M  END
> <ID>
6628

> <Formula>
C35H46O20

> <FW>
786.7277

> <DSSTox_CID>
13469

> <DSSTox_RID>
79077

> <DSSTox_GSID>
33469

> <DSSTox_FileID_Sort>
3759

> <TS_ChemName>
Echinacoside

> <TS_ChemName_Synonyms>


> <TS_CASRN>
82854-37-3

> <CASRN_ChemName_Relationship>
primary

> <TS_Description>
single chemical compound

> <ChemNote>
stereochem

> <STRUCTURE_Shown>
tested chemical

> <STRUCTURE_Formula>
C35H46O20

> <STRUCTURE_MW>
786.7277

> <STRUCTURE_ChemType>
defined organic

> <STRUCTURE_DefinedOrganicForm>
parent

> <STRUCTURE_IUPAC>
2-(3,4-dihydroxyphenyl)ethyl 6-deoxy-alpha-L-mannopyranosyl-(1->3)-[beta-D-glucopyranosyl-(1->6)]-4-O-[(2E)-3-(3,4-dihydroxyphenyl)prop-2-enoyl]-beta-D-glucopyranoside

> <STRUCTURE_SMILES>
Oc1ccc(cc1O)/C=C/C(=O)O[C@@H]5[C@@H](CO[C@@H]2O[C@H](CO)[C@@H](O)[C@H](O)[C@H]2O)O[C@@H](OCCc3ccc(O)c(O)c3)[C@H](O)[C@H]5O[C@@H]4O[C@@H](C)[C@H](O)[C@@H](O)[C@H]4O

> <STRUCTURE_SMILES_Desalt>
Oc1ccc(cc1O)/C=C/C(=O)O[C@@H]5[C@@H](CO[C@@H]2O[C@H](CO)[C@@H](O)[C@H](O)[C@H]2O)O[C@@H](OCCc3ccc(O)c(O)c3)[C@H](O)[C@H]5O[C@@H]4O[C@@H](C)[C@H](O)[C@@H](O)[C@H]4O

> <Substance_modify_yyyymmdd>
20080429

$$$$
