829-74-3
ChemmineR-0915142007XD

 13 13  0  0  1  0  0  0  0  0  1 V2000
    3.4381   -1.9997    0.0000 C   0  0  0  0  0  0  0  0  0  0  0  0
    2.2874   -1.3051    0.0000 C   0  0  0  0  0  0  0  0  0  0  0  0
    3.4381   -3.3118    0.0000 C   0  0  0  0  0  0  0  0  0  0  0  0
    4.5888   -1.3051    0.0000 C   0  0  0  0  0  0  0  0  0  0  0  0
    1.1507   -1.9997    0.0000 C   0  0  0  0  0  0  0  0  0  0  0  0
    2.2874   -3.9714    0.0000 C   0  0  0  0  0  0  0  0  0  0  0  0
    5.7395   -1.9997    0.0000 C   0  0  0  0  0  0  0  0  0  0  0  0
    4.5888    0.0000    0.0000 O   0  0  0  0  0  0  0  0  0  0  0  0
    1.1507   -3.3118    0.0000 C   0  0  0  0  0  0  0  0  0  0  0  0
    0.0000   -1.3051    0.0000 O   0  0  0  0  0  0  0  0  0  0  0  0
    7.0166   -1.5436    0.0000 C   0  0  0  0  0  0  0  0  0  0  0  0
    5.8308   -3.3258    0.0000 N   0  0  0  0  0  0  0  0  0  0  0  0
    0.0000   -3.9714    0.0000 O   0  0  0  0  0  0  0  0  0  0  0  0
  1  2  1  0  0  0  0
  1  3  2  0  0  0  0
  1  4  1  0  0  0  0
  2  5  2  0  0  0  0
  3  6  1  0  0  0  0
  4  7  1  0  0  0  0
  4  8  1  1  0  0  0
  5  9  1  0  0  0  0
  5 10  1  0  0  0  0
  6  9  2  0  0  0  0
  7 11  1  0  0  0  0
  7 12  1  6  0  0  0
  9 13  1  0  0  0  0
M  END
> <ID>
11620

> <Formula>
C9H13NO3

> <FW>
183.2044

> <DSSTox_CID>
26349

> <DSSTox_RID>
81553

> <DSSTox_GSID>
46349

> <DSSTox_FileID_Sort>
6234

> <TS_ChemName>
Levonordefrin

> <TS_ChemName_Synonyms>


> <TS_CASRN>
829-74-3

> <CASRN_ChemName_Relationship>
primary

> <TS_Description>
single chemical compound

> <ChemNote>
stereochem

> <STRUCTURE_Shown>
tested chemical

> <STRUCTURE_Formula>
C9H13NO3

> <STRUCTURE_MW>
183.2044

> <STRUCTURE_ChemType>
defined organic

> <STRUCTURE_DefinedOrganicForm>
parent

> <STRUCTURE_IUPAC>
4-[(1R,2S)-2-amino-1-hydroxypropyl]benzene-1,2-diol

> <STRUCTURE_SMILES>
Oc1ccc(cc1O)[C@@H](O)[C@H](C)N

> <STRUCTURE_SMILES_Desalt>
Oc1ccc(cc1O)[C@@H](O)[C@H](C)N

> <Substance_modify_yyyymmdd>
20110814

$$$$
