82956-11-4
ChemmineR-0915142007XD

 31 32  0  0  0  0  0  0  0  0  1 V2000
    6.8677   -3.3678    0.0000 C   0  0  0  0  0  0  0  0  0  0  0  0
    1.1721   -5.3489    0.0000 C   0  0  0  0  0  0  0  0  0  0  0  0
   14.8745   -1.3537    0.0000 C   0  0  0  0  0  0  0  0  0  0  0  0
   13.7024   -2.0306    0.0000 C   0  0  0  0  0  0  0  0  0  0  0  0
    8.0233   -4.0117    0.0000 O   0  0  0  0  0  0  0  0  0  0  0  0
   12.5798   -1.3702    0.0000 C   0  0  0  0  0  0  0  0  0  0  0  0
   11.4407   -2.0306    0.0000 C   0  0  0  0  0  0  0  0  0  0  0  0
    2.3278   -6.0092    0.0000 N   0  0  0  0  0  0  0  0  0  0  0  0
    5.7286   -4.0117    0.0000 C   0  0  0  0  0  0  0  0  0  0  0  0
   11.4407   -3.3678    0.0000 C   0  0  0  0  0  0  0  0  0  0  0  0
    1.1721   -4.0117    0.0000 N   0  0  0  0  0  0  0  0  0  0  0  0
   14.8745    0.0000    0.0000 N   0  0  0  0  0  0  0  0  0  0  0  0
    9.1459   -3.3678    0.0000 C   0  0  0  0  0  0  0  0  0  0  0  0
    6.8677   -2.0471    0.0000 O   0  0  0  0  0  0  0  0  0  0  0  0
   10.3016   -4.0117    0.0000 C   0  0  0  0  0  0  0  0  0  0  0  0
   13.7024   -3.3678    0.0000 C   0  0  0  0  0  0  0  0  0  0  0  0
   12.5798   -4.0117    0.0000 C   0  0  0  0  0  0  0  0  0  0  0  0
   10.3016   -1.3702    0.0000 C   0  0  0  0  0  0  0  0  0  0  0  0
    5.7286   -5.3489    0.0000 C   0  0  0  0  0  0  0  0  0  0  0  0
    4.5895   -3.3678    0.0000 C   0  0  0  0  0  0  0  0  0  0  0  0
    0.0000   -6.0258    0.0000 N   0  0  0  0  0  0  0  0  0  0  0  0
   16.0136   -2.0141    0.0000 N   0  0  0  0  0  0  0  0  0  0  0  0
    3.4339   -5.3489    0.0000 C   0  0  0  0  0  0  0  0  0  0  0  0
    9.1459   -2.0306    0.0000 C   0  0  0  0  0  0  0  0  0  0  0  0
    4.5895   -6.0092    0.0000 C   0  0  0  0  0  0  0  0  0  0  0  0
    3.4339   -4.0117    0.0000 C   0  0  0  0  0  0  0  0  0  0  0  0
   15.1882   -5.2003    0.0000 S   0  0  0  0  0  0  0  0  0  0  0  0
   15.1882   -6.7026    0.0000 O   0  0  0  0  0  0  0  0  0  0  0  0
   16.5089   -5.2003    0.0000 O   0  0  0  0  0  0  0  0  0  0  0  0
   15.1882   -3.8796    0.0000 O   0  0  0  0  0  0  0  0  0  0  0  0
   13.8180   -5.2003    0.0000 C   0  0  0  0  0  0  0  0  0  0  0  0
  1  5  1  0  0  0  0
  1  9  1  0  0  0  0
  1 14  2  0  0  0  0
  2  8  1  0  0  0  0
  2 11  2  0  0  0  0
  2 21  1  0  0  0  0
  3  4  1  0  0  0  0
  3 12  2  0  0  0  0
  3 22  1  0  0  0  0
  4  6  2  0  0  0  0
  4 16  1  0  0  0  0
  5 13  1  0  0  0  0
  6  7  1  0  0  0  0
  7 18  1  0  0  0  0
  7 10  2  0  0  0  0
  8 23  1  0  0  0  0
  9 19  2  0  0  0  0
  9 20  1  0  0  0  0
 10 15  1  0  0  0  0
 10 17  1  0  0  0  0
 13 15  2  0  0  0  0
 13 24  1  0  0  0  0
 16 17  2  0  0  0  0
 18 24  2  0  0  0  0
 19 25  1  0  0  0  0
 20 26  2  0  0  0  0
 23 25  2  0  0  0  0
 23 26  1  0  0  0  0
 27 28  2  0  0  0  0
 27 29  1  0  0  0  0
 27 30  2  0  0  0  0
 27 31  1  0  0  0  0
M  END
> <ID>
11430

> <Formula>
C20H21N5O5S

> <FW>
443.4762 (347.3706+96.1057)

> <DSSTox_CID>
26128

> <DSSTox_RID>
81362

> <DSSTox_GSID>
46128

> <DSSTox_FileID_Sort>
6043

> <TS_ChemName>
Nafamostat mesylate

> <TS_ChemName_Synonyms>


> <TS_CASRN>
82956-11-4

> <CASRN_ChemName_Relationship>
primary

> <TS_Description>
single chemical compound

> <ChemNote>
parent [81525-10-2]

> <STRUCTURE_Shown>
tested chemical

> <STRUCTURE_Formula>
C20H21N5O5S

> <STRUCTURE_MW>
443.4762

> <STRUCTURE_ChemType>
defined organic

> <STRUCTURE_DefinedOrganicForm>
complex

> <STRUCTURE_IUPAC>
6-carbamimidoylnaphthalen-2-yl 4-carbamimidamidobenzoate methanesulfonate (1:1)

> <STRUCTURE_SMILES>
CS(=O)(=O)O.N=C(N)Nc1ccc(cc1)C(=O)Oc2ccc3cc(ccc3c2)C(=N)N

> <STRUCTURE_SMILES_Desalt>
N=C(N)Nc1ccc(cc1)C(=O)Oc2ccc3cc(ccc3c2)C(=N)N

> <Substance_modify_yyyymmdd>
20110818

$$$$
