82989-25-1
ChemmineR-0915142007XD

 21 22  0  0  0  0  0  0  0  0  1 V2000
    0.0000   -2.6558    0.0000 N   0  0  0  0  0  0  0  0  0  0  0  0
    1.0682   -1.8694    0.0000 N   0  0  0  0  0  0  0  0  0  0  0  0
    0.4006   -3.9317    0.0000 N   0  0  0  0  0  0  0  0  0  0  0  0
    2.1365   -2.6558    0.0000 C   0  0  0  0  0  0  0  0  0  0  0  0
    1.7211   -3.9317    0.0000 N   0  0  0  0  0  0  0  0  0  0  0  0
    5.5935   -0.6528    0.0000 C   0  0  0  0  0  0  0  0  0  0  0  0
    5.5935   -2.0030    0.0000 C   0  0  0  0  0  0  0  0  0  0  0  0
    4.4510    0.0000    0.0000 C   0  0  0  0  0  0  0  0  0  0  0  0
    4.4510   -2.6558    0.0000 C   0  0  0  0  0  0  0  0  0  0  0  0
    3.3086   -0.6528    0.0000 C   0  0  0  0  0  0  0  0  0  0  0  0
    3.3086   -2.0030    0.0000 C   0  0  0  0  0  0  0  0  0  0  0  0
    6.7656   -2.6558    0.0000 N   0  0  0  0  0  0  0  0  0  0  0  0
    7.9228   -2.0030    0.0000 C   0  0  0  0  0  0  0  0  0  0  0  0
    9.0653   -2.6558    0.0000 C   0  0  0  0  0  0  0  0  0  0  0  0
    7.9228   -0.6528    0.0000 O   0  0  0  0  0  0  0  0  0  0  0  0
    9.0653   -3.9911    0.0000 O   0  0  0  0  0  0  0  0  0  0  0  0
   10.2225   -2.0030    0.0000 O   0  0  0  0  0  0  0  0  0  0  0  0
   11.3650   -2.6558    0.0000 C   0  0  0  0  0  0  0  0  0  0  0  0
   12.5371   -2.0030    0.0000 C   0  0  0  0  0  0  0  0  0  0  0  0
   13.6795   -2.6558    0.0000 C   0  0  0  0  0  0  0  0  0  0  0  0
   14.8368   -2.0030    0.0000 C   0  0  0  0  0  0  0  0  0  0  0  0
  1  2  1  0  0  0  0
  1  3  2  0  0  0  0
  2  4  1  0  0  0  0
  3  5  1  0  0  0  0
  4  5  2  0  0  0  0
  4 11  1  0  0  0  0
  6  7  1  0  0  0  0
  6  8  2  0  0  0  0
  7  9  2  0  0  0  0
  7 12  1  0  0  0  0
  8 10  1  0  0  0  0
  9 11  1  0  0  0  0
 10 11  2  0  0  0  0
 12 13  1  0  0  0  0
 13 14  1  0  0  0  0
 13 15  2  0  0  0  0
 14 16  2  0  0  0  0
 14 17  1  0  0  0  0
 17 18  1  0  0  0  0
 18 19  1  0  0  0  0
 19 20  1  0  0  0  0
 20 21  1  0  0  0  0
M  END
> <ID>
13623

> <Formula>
C13H15N5O3

> <FW>
289.2899

> <DSSTox_CID>
28552

> <DSSTox_RID>
82824

> <DSSTox_GSID>
48626

> <DSSTox_FileID_Sort>
7501

> <TS_ChemName>
Tazanolast

> <TS_ChemName_Synonyms>


> <TS_CASRN>
82989-25-1

> <CASRN_ChemName_Relationship>
primary

> <TS_Description>
single chemical compound

> <ChemNote>
tautomers

> <STRUCTURE_Shown>
tested chemical

> <STRUCTURE_Formula>
C13H15N5O3

> <STRUCTURE_MW>
289.2899

> <STRUCTURE_ChemType>
defined organic

> <STRUCTURE_DefinedOrganicForm>
parent

> <STRUCTURE_IUPAC>
butyl oxo{[3-(1H-tetrazol-5-yl)phenyl]amino}acetate

> <STRUCTURE_SMILES>
O=C(OCCCC)C(=O)Nc1cccc(c1)c2nnnn2

> <STRUCTURE_SMILES_Desalt>
O=C(OCCCC)C(=O)Nc1cccc(c1)c2nnnn2

> <Substance_modify_yyyymmdd>
20111015

$$$$
