83-05-6
ChemmineR-0915142007XD

 18 19  0  0  0  0  0  0  0  0  1 V2000
    4.6033   -0.6629    0.0000 C    0  0  0  0  0  0  0  0  0  0  0  0
    5.7541    0.0000    0.0000 O    0  0  0  0  0  0  0  0  0  0  0  0
    3.4432    0.0000    0.0000 O    0  0  0  0  0  0  0  0  0  0  0  0
    4.6033   -1.9978    0.0000 C    0  0  0  0  0  0  0  0  0  0  0  0
    6.9049   -4.6493    0.0000 C    0  0  0  0  0  0  0  0  0  0  0  0
    8.0557   -3.9956    0.0000 C    0  0  0  0  0  0  0  0  0  0  0  0
    8.0557   -2.6607    0.0000 C    0  0  0  0  0  0  0  0  0  0  0  0
    6.8957   -1.9978    0.0000 C    0  0  0  0  0  0  0  0  0  0  0  0
    5.7541   -2.6607    0.0000 C    0  0  0  0  0  0  0  0  0  0  0  0
    5.7541   -3.9864    0.0000 C    0  0  0  0  0  0  0  0  0  0  0  0
    9.2065   -4.6585    0.0000 Cl   0  0  0  0  0  0  0  0  0  0  0  0
    1.1508   -2.6515    0.0000 C    0  0  0  0  0  0  0  0  0  0  0  0
    1.1508   -3.9864    0.0000 C    0  0  0  0  0  0  0  0  0  0  0  0
    2.3108   -4.6585    0.0000 C    0  0  0  0  0  0  0  0  0  0  0  0
    3.4617   -3.9864    0.0000 C    0  0  0  0  0  0  0  0  0  0  0  0
    3.4617   -2.6607    0.0000 C    0  0  0  0  0  0  0  0  0  0  0  0
    2.3016   -1.9978    0.0000 C    0  0  0  0  0  0  0  0  0  0  0  0
    0.0000   -4.6585    0.0000 Cl   0  0  0  0  0  0  0  0  0  0  0  0
  1  2  2  0  0  0  0
  1  3  1  0  0  0  0
  1  4  1  0  0  0  0
  4  9  1  0  0  0  0
  4 16  1  0  0  0  0
  5 10  2  0  0  0  0
  5  6  1  0  0  0  0
  6  7  2  0  0  0  0
  6 11  1  0  0  0  0
  7  8  1  0  0  0  0
  8  9  2  0  0  0  0
  9 10  1  0  0  0  0
 12 17  2  0  0  0  0
 12 13  1  0  0  0  0
 13 14  2  0  0  0  0
 13 18  1  0  0  0  0
 14 15  1  0  0  0  0
 15 16  2  0  0  0  0
 16 17  1  0  0  0  0
M  END
> <ID>
7895

> <Formula>
C14H10Cl2O2

> <FW>
281.134

> <DSSTox_CID>
20699

> <DSSTox_RID>
79550

> <DSSTox_GSID>
40699

> <DSSTox_FileID_Sort>
4232

> <TS_ChemName>
p,p'-DDA

> <TS_ChemName_Synonyms>


> <TS_CASRN>
83-05-6

> <CASRN_ChemName_Relationship>
primary

> <TS_Description>
single chemical compound

> <ChemNote>


> <STRUCTURE_Shown>
tested chemical

> <STRUCTURE_Formula>
C14H10Cl2O2

> <STRUCTURE_MW>
281.134

> <STRUCTURE_ChemType>
defined organic

> <STRUCTURE_DefinedOrganicForm>
parent

> <STRUCTURE_IUPAC>
bis(4-chlorophenyl)acetic acid

> <STRUCTURE_SMILES>
Clc1ccc(cc1)C(C(=O)O)c2ccc(Cl)cc2

> <STRUCTURE_SMILES_Desalt>
Clc1ccc(cc1)C(C(=O)O)c2ccc(Cl)cc2

> <Substance_modify_yyyymmdd>
20080429

$$$$
