83-12-5
ChemmineR-0915142007XD

 17 19  0  0  0  0  0  0  0  0  1 V2000
    8.3441   -1.6772    0.0000 C   0  0  0  0  0  0  0  0  0  0  0  0
    8.3441   -3.0039    0.0000 C   0  0  0  0  0  0  0  0  0  0  0  0
    7.1926   -3.6714    0.0000 C   0  0  0  0  0  0  0  0  0  0  0  0
    6.0411   -3.0039    0.0000 C   0  0  0  0  0  0  0  0  0  0  0  0
    6.0411   -1.6772    0.0000 C   0  0  0  0  0  0  0  0  0  0  0  0
    7.1926   -1.0096    0.0000 C   0  0  0  0  0  0  0  0  0  0  0  0
    4.7728   -1.2600    0.0000 C   0  0  0  0  0  0  0  0  0  0  0  0
    4.3640    0.0000    0.0000 O   0  0  0  0  0  0  0  0  0  0  0  0
    3.9885   -2.3363    0.0000 C   0  0  0  0  0  0  0  0  0  0  0  0
    2.6618   -2.3363    0.0000 C   0  0  0  0  0  0  0  0  0  0  0  0
    1.9942   -3.4878    0.0000 C   0  0  0  0  0  0  0  0  0  0  0  0
    0.6675   -3.4878    0.0000 C   0  0  0  0  0  0  0  0  0  0  0  0
    0.0000   -2.3363    0.0000 C   0  0  0  0  0  0  0  0  0  0  0  0
    0.6675   -1.1849    0.0000 C   0  0  0  0  0  0  0  0  0  0  0  0
    1.9942   -1.1849    0.0000 C   0  0  0  0  0  0  0  0  0  0  0  0
    4.7728   -3.4127    0.0000 C   0  0  0  0  0  0  0  0  0  0  0  0
    4.3640   -4.6810    0.0000 O   0  0  0  0  0  0  0  0  0  0  0  0
  1  2  2  0  0  0  0
  1  6  1  0  0  0  0
  2  3  1  0  0  0  0
  3  4  2  0  0  0  0
  4  5  1  0  0  0  0
  4 16  1  0  0  0  0
  5  6  2  0  0  0  0
  5  7  1  0  0  0  0
  7  8  2  0  0  0  0
  7  9  1  0  0  0  0
  9 10  1  0  0  0  0
  9 16  1  0  0  0  0
 10 11  2  0  0  0  0
 10 15  1  0  0  0  0
 11 12  1  0  0  0  0
 12 13  2  0  0  0  0
 13 14  1  0  0  0  0
 14 15  2  0  0  0  0
 16 17  2  0  0  0  0
M  END
> <ID>
3097

> <Formula>
C15H10O2

> <FW>
222.2387

> <DSSTox_CID>
3453

> <DSSTox_RID>
77033

> <DSSTox_GSID>
23453

> <DSSTox_FileID_Sort>
1717

> <TS_ChemName>
Phenindione

> <TS_ChemName_Synonyms>


> <TS_CASRN>
83-12-5

> <CASRN_ChemName_Relationship>
primary

> <TS_Description>
single chemical compound

> <ChemNote>


> <STRUCTURE_Shown>
tested chemical

> <STRUCTURE_Formula>
C15H10O2

> <STRUCTURE_MW>
222.2387

> <STRUCTURE_ChemType>
defined organic

> <STRUCTURE_DefinedOrganicForm>
parent

> <STRUCTURE_IUPAC>
2-phenyl-1H-indene-1,3(2H)-dione

> <STRUCTURE_SMILES>
O=C2c1ccccc1C(=O)C2c3ccccc3

> <STRUCTURE_SMILES_Desalt>
O=C2c1ccccc1C(=O)C2c3ccccc3

> <Substance_modify_yyyymmdd>
20080429

$$$$
