83-28-3
ChemmineR-0915142007XD

 17 18  0  0  0  0  0  0  0  0  1 V2000
    4.3453   -2.3186    0.0000 C   0  0  0  0  0  0  0  0  0  0  0  0
    3.5780   -1.2594    0.0000 C   0  0  0  0  0  0  0  0  0  0  0  0
    3.5780   -3.4112    0.0000 C   0  0  0  0  0  0  0  0  0  0  0  0
    5.6715   -2.3186    0.0000 C   0  0  0  0  0  0  0  0  0  0  0  0
    2.3186   -2.9942    0.0000 C   0  0  0  0  0  0  0  0  0  0  0  0
    2.3186   -1.6764    0.0000 C   0  0  0  0  0  0  0  0  0  0  0  0
    3.9950   -4.6706    0.0000 O   0  0  0  0  0  0  0  0  0  0  0  0
    4.0117    0.0000    0.0000 O   0  0  0  0  0  0  0  0  0  0  0  0
    6.3470   -3.4779    0.0000 C   0  0  0  0  0  0  0  0  0  0  0  0
    6.3470   -1.1760    0.0000 O   0  0  0  0  0  0  0  0  0  0  0  0
    1.1593   -1.0008    0.0000 C   0  0  0  0  0  0  0  0  0  0  0  0
    1.1593   -3.6698    0.0000 C   0  0  0  0  0  0  0  0  0  0  0  0
    7.6648   -3.4779    0.0000 C   0  0  0  0  0  0  0  0  0  0  0  0
    8.3404   -2.3353    0.0000 C   0  0  0  0  0  0  0  0  0  0  0  0
    8.3404   -4.6373    0.0000 C   0  0  0  0  0  0  0  0  0  0  0  0
    0.0000   -1.6764    0.0000 C   0  0  0  0  0  0  0  0  0  0  0  0
    0.0000   -2.9942    0.0000 C   0  0  0  0  0  0  0  0  0  0  0  0
  1  2  1  0  0  0  0
  1  3  1  0  0  0  0
  1  4  1  0  0  0  0
  2  6  1  0  0  0  0
  2  8  2  0  0  0  0
  3  5  1  0  0  0  0
  3  7  2  0  0  0  0
  4  9  1  0  0  0  0
  4 10  2  0  0  0  0
  5 12  1  0  0  0  0
  5  6  2  0  0  0  0
  6 11  1  0  0  0  0
  9 13  1  0  0  0  0
 11 16  2  0  0  0  0
 12 17  2  0  0  0  0
 13 14  1  0  0  0  0
 13 15  1  0  0  0  0
 16 17  1  0  0  0  0
M  END
> <ID>
9415

> <Formula>
C14H14O3

> <FW>
230.2592

> <DSSTox_CID>
22509

> <DSSTox_RID>
80045

> <DSSTox_GSID>
42509

> <DSSTox_FileID_Sort>
4727

> <TS_ChemName>
2-Isovaleryl-1,3-indanedione

> <TS_ChemName_Synonyms>
2-Isovaleryl-1,3-indanedione (Valone)

> <TS_CASRN>
83-28-3

> <CASRN_ChemName_Relationship>
primary

> <TS_Description>
single chemical compound

> <ChemNote>
tautomers

> <STRUCTURE_Shown>
tested chemical

> <STRUCTURE_Formula>
C14H14O3

> <STRUCTURE_MW>
230.2592

> <STRUCTURE_ChemType>
defined organic

> <STRUCTURE_DefinedOrganicForm>
parent

> <STRUCTURE_IUPAC>
2-(3-methylbutanoyl)-1H-indene-1,3(2H)-dione

> <STRUCTURE_SMILES>
CC(C)CC(=O)C2C(=O)c1ccccc1C2=O

> <STRUCTURE_SMILES_Desalt>
CC(C)CC(=O)C2C(=O)c1ccccc1C2=O

> <Substance_modify_yyyymmdd>
20080825

$$$$
