83-34-1
ChemmineR-0915142007XD

 10 11  0  0  0  0  0  0  0  0  1 V2000
    3.5658   -0.2680    0.0000 N   0  0  0  0  0  0  0  0  0  0  0  0
    4.3221   -1.3183    0.0000 C   0  0  0  0  0  0  0  0  0  0  0  0
    3.5658   -2.4031    0.0000 C   0  0  0  0  0  0  0  0  0  0  0  0
    2.3037   -2.0055    0.0000 C   0  0  0  0  0  0  0  0  0  0  0  0
    2.3037   -0.6699    0.0000 C   0  0  0  0  0  0  0  0  0  0  0  0
    3.9937   -3.6825    0.0000 C   0  0  0  0  0  0  0  0  0  0  0  0
    1.1627   -2.6754    0.0000 C   0  0  0  0  0  0  0  0  0  0  0  0
    1.1627    0.0000    0.0000 C   0  0  0  0  0  0  0  0  0  0  0  0
    0.0000   -2.0184    0.0000 C   0  0  0  0  0  0  0  0  0  0  0  0
    0.0000   -0.6526    0.0000 C   0  0  0  0  0  0  0  0  0  0  0  0
  1  2  1  0  0  0  0
  1  5  1  0  0  0  0
  2  3  2  0  0  0  0
  3  6  1  0  0  0  0
  3  4  1  0  0  0  0
  4  5  2  0  0  0  0
  4  7  1  0  0  0  0
  5  8  1  0  0  0  0
  7  9  2  0  0  0  0
  8 10  2  0  0  0  0
  9 10  1  0  0  0  0
M  END
> <ID>
1682

> <Formula>
C9H9N

> <FW>
131.1745

> <DSSTox_CID>
1775

> <DSSTox_RID>
76320

> <DSSTox_GSID>
21775

> <DSSTox_FileID_Sort>
1004

> <TS_ChemName>
3-Methylindole

> <TS_ChemName_Synonyms>


> <TS_CASRN>
83-34-1

> <CASRN_ChemName_Relationship>
primary

> <TS_Description>
single chemical compound

> <ChemNote>


> <STRUCTURE_Shown>
tested chemical

> <STRUCTURE_Formula>
C9H9N

> <STRUCTURE_MW>
131.1745

> <STRUCTURE_ChemType>
defined organic

> <STRUCTURE_DefinedOrganicForm>
parent

> <STRUCTURE_IUPAC>
3-methyl-1H-indole

> <STRUCTURE_SMILES>
Cc2cnc1ccccc12

> <STRUCTURE_SMILES_Desalt>
Cc2cnc1ccccc12

> <Substance_modify_yyyymmdd>
20080429

$$$$
