83-40-9
ChemmineR-0915142007XD

 11 11  0  0  0  0  0  0  0  0  1 V2000
    1.1372   -1.9984    0.0000 C   0  0  0  0  0  0  0  0  0  0  0  0
    2.2885   -2.6583    0.0000 C   0  0  0  0  0  0  0  0  0  0  0  0
    1.1372   -0.6599    0.0000 C   0  0  0  0  0  0  0  0  0  0  0  0
    0.0000    0.0000    0.0000 O   0  0  0  0  0  0  0  0  0  0  0  0
    2.2885   -3.9921    0.0000 C   0  0  0  0  0  0  0  0  0  0  0  0
    3.4492   -1.9703    0.0000 O   0  0  0  0  0  0  0  0  0  0  0  0
    2.2885    0.0000    0.0000 O   0  0  0  0  0  0  0  0  0  0  0  0
    0.0000   -2.6583    0.0000 C   0  0  0  0  0  0  0  0  0  0  0  0
    0.0000   -3.9921    0.0000 C   0  0  0  0  0  0  0  0  0  0  0  0
    1.1372   -4.6519    0.0000 C   0  0  0  0  0  0  0  0  0  0  0  0
    3.4492   -4.6800    0.0000 C   0  0  0  0  0  0  0  0  0  0  0  0
  1  2  1  0  0  0  0
  1  3  1  0  0  0  0
  1  8  2  0  0  0  0
  2  5  2  0  0  0  0
  2  6  1  0  0  0  0
  3  4  2  0  0  0  0
  3  7  1  0  0  0  0
  5 11  1  0  0  0  0
  5 10  1  0  0  0  0
  8  9  1  0  0  0  0
  9 10  2  0  0  0  0
M  END
> <ID>
7468

> <Formula>
C8H8O3

> <FW>
152.1473

> <DSSTox_CID>
18686

> <DSSTox_RID>
79384

> <DSSTox_GSID>
38686

> <DSSTox_FileID_Sort>
4066

> <TS_ChemName>
2-Hydroxy-3-methylbenzoic acid

> <TS_ChemName_Synonyms>
Benzoic acid, 2-hydroxy-3-methyl-

> <TS_CASRN>
83-40-9

> <CASRN_ChemName_Relationship>
primary

> <TS_Description>
single chemical compound

> <ChemNote>


> <STRUCTURE_Shown>
tested chemical

> <STRUCTURE_Formula>
C8H8O3

> <STRUCTURE_MW>
152.1473

> <STRUCTURE_ChemType>
defined organic

> <STRUCTURE_DefinedOrganicForm>
parent

> <STRUCTURE_IUPAC>
2-hydroxy-3-methylbenzoic acid

> <STRUCTURE_SMILES>
OC(=O)c1cccc(C)c1O

> <STRUCTURE_SMILES_Desalt>
OC(=O)c1cccc(C)c1O

> <Substance_modify_yyyymmdd>
20080429

$$$$
