83-43-2
ChemmineR-0915142007XD

 30 33  0  0  1  0  0  0  0  0  1 V2000
    3.4792   -4.4223    0.0000 C   0  0  0  0  0  0  0  0  0  0  0  0
    6.9584   -2.4522    0.0000 C   0  0  0  0  0  0  0  0  0  0  0  0
    3.4792   -5.7637    0.0000 C   0  0  0  0  0  0  0  0  0  0  0  0
    8.2159   -2.0330    0.0000 C   0  0  0  0  0  0  0  0  0  0  0  0
    4.6110   -3.7621    0.0000 C   0  0  0  0  0  0  0  0  0  0  0  0
    5.7637   -4.4538    0.0000 C   0  0  0  0  0  0  0  0  0  0  0  0
    6.9584   -3.7831    0.0000 C   0  0  0  0  0  0  0  0  0  0  0  0
    2.3055   -3.7621    0.0000 C   0  0  0  0  0  0  0  0  0  0  0  0
    5.7637   -1.7815    0.0000 C   0  0  0  0  0  0  0  0  0  0  0  0
    4.6110   -2.4522    0.0000 C   0  0  0  0  0  0  0  0  0  0  0  0
    5.7637   -5.7532    0.0000 C   0  0  0  0  0  0  0  0  0  0  0  0
    2.3055   -6.4239    0.0000 C   0  0  0  0  0  0  0  0  0  0  0  0
    4.6110   -6.4239    0.0000 C   0  0  0  0  0  0  0  0  0  0  0  0
    8.2159   -0.6916    0.0000 C   0  0  0  0  0  0  0  0  0  0  0  0
    8.9599   -3.1124    0.0000 C   0  0  0  0  0  0  0  0  0  0  0  0
    8.2054   -4.1813    0.0000 C   0  0  0  0  0  0  0  0  0  0  0  0
    1.1842   -4.4538    0.0000 C   0  0  0  0  0  0  0  0  0  0  0  0
    1.1842   -5.7532    0.0000 C   0  0  0  0  0  0  0  0  0  0  0  0
    7.0527    0.0000    0.0000 O   0  0  0  0  0  0  0  0  0  0  0  0
    0.0000   -6.3925    0.0000 O   0  0  0  0  0  0  0  0  0  0  0  0
    9.4420   -1.4462    0.0000 O   0  0  0  0  0  0  0  0  0  0  0  0
    3.4792   -3.0914    0.0000 C   0  0  0  0  0  0  0  0  0  0  0  0
    6.9584   -1.1213    0.0000 C   0  0  0  0  0  0  0  0  0  0  0  0
    3.4477   -1.7815    0.0000 O   0  0  0  0  0  0  0  0  0  0  0  0
    9.3582   -0.0524    0.0000 C   0  0  0  0  0  0  0  0  0  0  0  0
   10.4795   -0.7650    0.0000 O   0  0  0  0  0  0  0  0  0  0  0  0
    4.6110   -7.7548    0.0000 C   0  0  0  0  0  0  0  0  0  0  0  0
    5.7637   -3.1229    0.0000 H   0  0  0  0  0  0  0  0  0  0  0  0
    6.9584   -5.1140    0.0000 H   0  0  0  0  0  0  0  0  0  0  0  0
    4.6110   -5.0930    0.0000 H   0  0  0  0  0  0  0  0  0  0  0  0
  1  3  1  0  0  0  0
  1  5  1  0  0  0  0
  1  8  1  0  0  0  0
  1 22  1  1  0  0  0
  2  9  1  0  0  0  0
  2  4  1  0  0  0  0
  2 23  1  1  0  0  0
  2  7  1  0  0  0  0
  3 12  2  0  0  0  0
  3 13  1  0  0  0  0
  4 14  1  0  0  0  0
  4 21  1  6  0  0  0
  4 15  1  0  0  0  0
  5  6  1  0  0  0  0
  5 10  1  0  0  0  0
  5 30  1  6  0  0  0
  6  7  1  0  0  0  0
  6 11  1  0  0  0  0
  6 28  1  1  0  0  0
  7 16  1  0  0  0  0
  7 29  1  6  0  0  0
  8 17  2  0  0  0  0
  9 10  1  0  0  0  0
 10 24  1  1  0  0  0
 11 13  1  0  0  0  0
 12 18  1  0  0  0  0
 13 27  1  6  0  0  0
 14 19  2  0  0  0  0
 14 25  1  0  0  0  0
 15 16  1  0  0  0  0
 17 18  1  0  0  0  0
 18 20  2  0  0  0  0
 25 26  1  0  0  0  0
M  END
> <ID>
2962

> <Formula>
C22H30O5

> <FW>
374.4706

> <DSSTox_CID>
3300

> <DSSTox_RID>
76965

> <DSSTox_GSID>
23300

> <DSSTox_FileID_Sort>
1649

> <TS_ChemName>
Methylprednisolone

> <TS_ChemName_Synonyms>
Methylprednisolone (MP) (MPL)

> <TS_CASRN>
83-43-2

> <CASRN_ChemName_Relationship>
primary

> <TS_Description>
single chemical compound

> <ChemNote>
stereochem; tautomers

> <STRUCTURE_Shown>
tested chemical

> <STRUCTURE_Formula>
C22H30O5

> <STRUCTURE_MW>
374.4706

> <STRUCTURE_ChemType>
defined organic

> <STRUCTURE_DefinedOrganicForm>
parent

> <STRUCTURE_IUPAC>
(6alpha,11beta)-11,17,21-trihydroxy-6-methylpregna-1,4-diene-3,20-dione

> <STRUCTURE_SMILES>
OCC(=O)[C@@]4(O)CC[C@@H]3[C@]4(C)C[C@H](O)[C@H]2[C@H]3C[C@H](C)C1=CC(=O)C=C[C@@]12C

> <STRUCTURE_SMILES_Desalt>
OCC(=O)[C@@]4(O)CC[C@@H]3[C@]4(C)C[C@H](O)[C@H]2[C@H]3C[C@H](C)C1=CC(=O)C=C[C@@]12C

> <Substance_modify_yyyymmdd>
20080429

$$$$
