83-67-0
ChemmineR-0915142007XD

 13 14  0  0  0  0  0  0  0  0  1 V2000
    3.4932   -3.3169    0.0000 C   0  0  0  0  0  0  0  0  0  0  0  0
    3.4932   -2.0001    0.0000 C   0  0  0  0  0  0  0  0  0  0  0  0
    2.3362   -3.9891    0.0000 N   0  0  0  0  0  0  0  0  0  0  0  0
    1.1681   -3.3169    0.0000 C   0  0  0  0  0  0  0  0  0  0  0  0
    1.1681   -2.0001    0.0000 N   0  0  0  0  0  0  0  0  0  0  0  0
    4.7550   -3.7301    0.0000 N   0  0  0  0  0  0  0  0  0  0  0  0
    2.3362   -1.3279    0.0000 C   0  0  0  0  0  0  0  0  0  0  0  0
    4.7550   -1.5868    0.0000 N   0  0  0  0  0  0  0  0  0  0  0  0
    5.5098   -2.6447    0.0000 C   0  0  0  0  0  0  0  0  0  0  0  0
    0.0000   -3.9560    0.0000 O   0  0  0  0  0  0  0  0  0  0  0  0
    2.3362    0.0000    0.0000 O   0  0  0  0  0  0  0  0  0  0  0  0
    2.3362   -5.3170    0.0000 C   0  0  0  0  0  0  0  0  0  0  0  0
    5.1737   -0.3030    0.0000 C   0  0  0  0  0  0  0  0  0  0  0  0
  1  2  2  0  0  0  0
  1  3  1  0  0  0  0
  1  6  1  0  0  0  0
  2  7  1  0  0  0  0
  2  8  1  0  0  0  0
  3  4  1  0  0  0  0
  3 12  1  0  0  0  0
  4  5  1  0  0  0  0
  4 10  2  0  0  0  0
  5  7  1  0  0  0  0
  6  9  2  0  0  0  0
  7 11  2  0  0  0  0
  8 13  1  0  0  0  0
  8  9  1  0  0  0  0
M  END
> <ID>
4562

> <Formula>
C7H8N4O2

> <FW>
180.164

> <DSSTox_CID>
6132

> <DSSTox_RID>
78030

> <DSSTox_GSID>
26132

> <DSSTox_FileID_Sort>
2713

> <TS_ChemName>
Theobromine

> <TS_ChemName_Synonyms>


> <TS_CASRN>
83-67-0

> <CASRN_ChemName_Relationship>
primary

> <TS_Description>
single chemical compound

> <ChemNote>


> <STRUCTURE_Shown>
tested chemical

> <STRUCTURE_Formula>
C7H8N4O2

> <STRUCTURE_MW>
180.164

> <STRUCTURE_ChemType>
defined organic

> <STRUCTURE_DefinedOrganicForm>
parent

> <STRUCTURE_IUPAC>
3,7-dimethyl-3,7-dihydro-1H-purine-2,6-dione

> <STRUCTURE_SMILES>
Cn1cnc2c1C(=O)NC(=O)N2C

> <STRUCTURE_SMILES_Desalt>
Cn1cnc2c1C(=O)NC(=O)N2C

> <Substance_modify_yyyymmdd>
20080429

$$$$
