83-73-8
ChemmineR-0915142007XD

 13 14  0  0  0  0  0  0  0  0  1 V2000
    2.3033   -1.3282    0.0000 C   0  0  0  0  0  0  0  0  0  0  0  0
    2.3033    0.0000    0.0000 I   0  0  0  0  0  0  0  0  0  0  0  0
    1.1487   -1.9922    0.0000 C   0  0  0  0  0  0  0  0  0  0  0  0
    1.1487   -3.3264    0.0000 C   0  0  0  0  0  0  0  0  0  0  0  0
    0.0000   -3.9904    0.0000 I   0  0  0  0  0  0  0  0  0  0  0  0
    2.3033   -3.9904    0.0000 C   0  0  0  0  0  0  0  0  0  0  0  0
    3.4520   -3.3264    0.0000 C   0  0  0  0  0  0  0  0  0  0  0  0
    3.4520   -1.9922    0.0000 C   0  0  0  0  0  0  0  0  0  0  0  0
    4.6067   -1.3282    0.0000 O   0  0  0  0  0  0  0  0  0  0  0  0
    4.6067   -3.9904    0.0000 N   0  0  0  0  0  0  0  0  0  0  0  0
    4.6067   -5.3186    0.0000 C   0  0  0  0  0  0  0  0  0  0  0  0
    3.4520   -5.9827    0.0000 C   0  0  0  0  0  0  0  0  0  0  0  0
    2.3033   -5.3186    0.0000 C   0  0  0  0  0  0  0  0  0  0  0  0
  1  2  1  0  0  0  0
  1  3  2  0  0  0  0
  1  8  1  0  0  0  0
  3  4  1  0  0  0  0
  4  5  1  0  0  0  0
  4  6  2  0  0  0  0
  6  7  1  0  0  0  0
  6 13  1  0  0  0  0
  7  8  2  0  0  0  0
  7 10  1  0  0  0  0
  8  9  1  0  0  0  0
 10 11  2  0  0  0  0
 11 12  1  0  0  0  0
 12 13  2  0  0  0  0
M  END
> <ID>
2832

> <Formula>
C9H5I2NO

> <FW>
396.951

> <DSSTox_CID>
3155

> <DSSTox_RID>
76894

> <DSSTox_GSID>
23155

> <DSSTox_FileID_Sort>
1578

> <TS_ChemName>
Iodoquinol

> <TS_ChemName_Synonyms>
5,7-Diiodo-8-quinolinol (Iodoquinol)

> <TS_CASRN>
83-73-8

> <CASRN_ChemName_Relationship>
primary

> <TS_Description>
single chemical compound

> <ChemNote>


> <STRUCTURE_Shown>
tested chemical

> <STRUCTURE_Formula>
C9H5I2NO

> <STRUCTURE_MW>
396.951

> <STRUCTURE_ChemType>
defined organic

> <STRUCTURE_DefinedOrganicForm>
parent

> <STRUCTURE_IUPAC>
5,7-diiodoquinolin-8-ol

> <STRUCTURE_SMILES>
Oc1c(I)cc(I)c2cccnc12

> <STRUCTURE_SMILES_Desalt>
Oc1c(I)cc(I)c2cccnc12

> <Substance_modify_yyyymmdd>
20080429

$$$$
