83-79-4
ChemmineR-0915142007XD

 31 35  0  0  1  0  0  0  0  0  1 V2000
    8.0602   -4.4011    0.0000 C   0  0  0  0  0  0  0  0  0  0  0  0
    6.9088   -6.3970    0.0000 C   0  0  0  0  0  0  0  0  0  0  0  0
    5.7573   -5.7061    0.0000 C   0  0  0  0  0  0  0  0  0  0  0  0
    8.0602   -5.7061    0.0000 C   0  0  0  0  0  0  0  0  0  0  0  0
    9.2117   -3.7103    0.0000 C   0  0  0  0  0  0  0  0  0  0  0  0
    4.6186   -6.3970    0.0000 C   0  0  0  0  0  0  0  0  0  0  0  0
    6.9088   -3.7103    0.0000 O   0  0  0  0  0  0  0  0  0  0  0  0
    5.7573   -4.4011    0.0000 C   0  0  0  0  0  0  0  0  0  0  0  0
    3.4672   -5.7061    0.0000 C   0  0  0  0  0  0  0  0  0  0  0  0
   11.3355   -3.4800    0.0000 O   0  0  0  0  0  0  0  0  0  0  0  0
   10.3632   -4.4011    0.0000 C   0  0  0  0  0  0  0  0  0  0  0  0
    9.5060   -2.4181    0.0000 C   0  0  0  0  0  0  0  0  0  0  0  0
   10.8237   -2.2901    0.0000 C   0  0  0  0  0  0  0  0  0  0  0  0
    4.6186   -7.7020    0.0000 C   0  0  0  0  0  0  0  0  0  0  0  0
    3.4672   -4.4011    0.0000 O   0  0  0  0  0  0  0  0  0  0  0  0
    2.3157   -6.3970    0.0000 C   0  0  0  0  0  0  0  0  0  0  0  0
    9.2117   -6.3970    0.0000 C   0  0  0  0  0  0  0  0  0  0  0  0
    3.4672   -8.3929    0.0000 C   0  0  0  0  0  0  0  0  0  0  0  0
    2.3157   -7.7020    0.0000 C   0  0  0  0  0  0  0  0  0  0  0  0
   11.5018   -1.1643    0.0000 C   0  0  0  0  0  0  0  0  0  0  0  0
    4.6186   -3.7103    0.0000 C   0  0  0  0  0  0  0  0  0  0  0  0
    6.9088   -7.7020    0.0000 O   0  0  0  0  0  0  0  0  0  0  0  0
   10.3632   -5.7061    0.0000 C   0  0  0  0  0  0  0  0  0  0  0  0
   10.8109    0.0000    0.0000 C   0  0  0  0  0  0  0  0  0  0  0  0
    3.4672   -9.7107    0.0000 O   0  0  0  0  0  0  0  0  0  0  0  0
    1.1515   -8.4057    0.0000 O   0  0  0  0  0  0  0  0  0  0  0  0
   12.7940   -1.1515    0.0000 C   0  0  0  0  0  0  0  0  0  0  0  0
    0.0000   -7.7148    0.0000 C   0  0  0  0  0  0  0  0  0  0  0  0
    2.3157  -10.3759    0.0000 C   0  0  0  0  0  0  0  0  0  0  0  0
    5.7573   -7.0495    0.0000 H   0  0  0  0  0  0  0  0  0  0  0  0
    5.7573   -3.0450    0.0000 H   0  0  0  0  0  0  0  0  0  0  0  0
  1  4  2  0  0  0  0
  1  5  1  0  0  0  0
  1  7  1  0  0  0  0
  2  4  1  0  0  0  0
  2 22  2  0  0  0  0
  2  3  1  0  0  0  0
  3  8  1  0  0  0  0
  3  6  1  0  0  0  0
  3 30  1  6  0  0  0
  4 17  1  0  0  0  0
  5 11  2  0  0  0  0
  5 12  1  0  0  0  0
  6 14  1  0  0  0  0
  6  9  2  0  0  0  0
  7  8  1  0  0  0  0
  8 21  1  0  0  0  0
  8 31  1  6  0  0  0
  9 15  1  0  0  0  0
  9 16  1  0  0  0  0
 10 11  1  0  0  0  0
 10 13  1  0  0  0  0
 11 23  1  0  0  0  0
 12 13  1  0  0  0  0
 13 20  1  6  0  0  0
 14 18  2  0  0  0  0
 15 21  1  0  0  0  0
 16 19  2  0  0  0  0
 17 23  2  0  0  0  0
 18 25  1  0  0  0  0
 18 19  1  0  0  0  0
 19 26  1  0  0  0  0
 20 24  2  0  0  0  0
 20 27  1  0  0  0  0
 25 29  1  0  0  0  0
 26 28  1  0  0  0  0
M  END
> <ID>
1201

> <Formula>
C23H22O6

> <FW>
394.4172

> <DSSTox_CID>
1248

> <DSSTox_RID>
76038

> <DSSTox_GSID>
21248

> <DSSTox_FileID_Sort>
722

> <TS_ChemName>
Rotenone

> <TS_ChemName_Synonyms>
Rotenone ((1)Benzopyrano(3,4-b)furo(2,3-h)(1)benzopyran-6(6a H)-one, 1,2,12,12a-tetrahydro-8,9-dimethoxy-2-(1-m ethylethenyl)-, (2R-(2.alpha.,6a.alpha.,12a.alpha. ))-)

> <TS_CASRN>
83-79-4

> <CASRN_ChemName_Relationship>
primary

> <TS_Description>
single chemical compound

> <ChemNote>
stereochem

> <STRUCTURE_Shown>
tested chemical

> <STRUCTURE_Formula>
C23H22O6

> <STRUCTURE_MW>
394.4172

> <STRUCTURE_ChemType>
defined organic

> <STRUCTURE_DefinedOrganicForm>
parent

> <STRUCTURE_IUPAC>
(2R,6aS,12aS)-8,9-dimethoxy-2-(prop-1-en-2-yl)-1,2,12,12a-tetrahydrochromeno[3,4-b]furo[2,3-h]chromen-6(6aH)-one

> <STRUCTURE_SMILES>
C=C(C)[C@@H]2Oc3ccc1C(=O)[C@H]4c5cc(OC)c(OC)cc5OC[C@H]4Oc1c3C2

> <STRUCTURE_SMILES_Desalt>
C=C(C)[C@@H]2Oc3ccc1C(=O)[C@H]4c5cc(OC)c(OC)cc5OC[C@H]4Oc1c3C2

> <Substance_modify_yyyymmdd>
20080429

$$$$
