83-75-0
ChemmineR-0915142007XD

 30 33  0  0  1  0  0  0  0  0  1 V2000
    3.4436   -6.6287    0.0000 C   0  0  0  0  0  0  0  0  0  0  0  0
    3.4436   -7.9731    0.0000 C   0  0  0  0  0  0  0  0  0  0  0  0
    2.3061   -5.9565    0.0000 C   0  0  0  0  0  0  0  0  0  0  0  0
    2.3061   -8.6142    0.0000 C   0  0  0  0  0  0  0  0  0  0  0  0
    1.1479   -6.6287    0.0000 C   0  0  0  0  0  0  0  0  0  0  0  0
    1.1479   -7.9731    0.0000 C   0  0  0  0  0  0  0  0  0  0  0  0
    5.7497   -6.6287    0.0000 C   0  0  0  0  0  0  0  0  0  0  0  0
    5.7497   -7.9731    0.0000 C   0  0  0  0  0  0  0  0  0  0  0  0
    4.5915   -5.9565    0.0000 C   0  0  0  0  0  0  0  0  0  0  0  0
    4.5915   -8.6142    0.0000 N   0  0  0  0  0  0  0  0  0  0  0  0
    4.5915   -4.6432    0.0000 C   0  0  0  0  0  0  0  0  0  0  0  0
    5.7497   -3.9917    0.0000 C   0  0  0  0  0  0  0  0  0  0  0  0
    5.7497   -2.6577    0.0000 C   0  0  0  0  0  0  0  0  0  0  0  0
    6.8873   -4.6432    0.0000 N   0  0  0  0  0  0  0  0  0  0  0  0
    6.8873   -2.0062    0.0000 C   0  0  0  0  0  0  0  0  0  0  0  0
    8.0351   -3.9917    0.0000 C   0  0  0  0  0  0  0  0  0  0  0  0
    8.0351   -2.6577    0.0000 C   0  0  0  0  0  0  0  0  0  0  0  0
    9.1933   -2.0062    0.0000 C   0  0  0  0  0  0  0  0  0  0  0  0
   10.3412   -2.6577    0.0000 C   0  0  0  0  0  0  0  0  0  0  0  0
    6.2151   -3.0093    0.0000 C   0  0  0  0  0  0  0  0  0  0  0  0
    7.6008   -3.4126    0.0000 C   0  0  0  0  0  0  0  0  0  0  0  0
    3.4436   -3.9917    0.0000 O   0  0  0  0  0  0  0  0  0  0  0  0
    0.0000   -5.9565    0.0000 O   0  0  0  0  0  0  0  0  0  0  0  0
    0.0000   -4.6329    0.0000 C   0  0  0  0  0  0  0  0  0  0  0  0
    5.0879   -5.1603    0.0000 H   0  0  0  0  0  0  0  0  0  0  0  0
    3.4436   -2.6577    0.0000 C   0  0  0  0  0  0  0  0  0  0  0  0
    4.5915   -1.9855    0.0000 O   0  0  0  0  0  0  0  0  0  0  0  0
    2.2854   -2.0062    0.0000 O   0  0  0  0  0  0  0  0  0  0  0  0
    2.2854   -0.6722    0.0000 C   0  0  0  0  0  0  0  0  0  0  0  0
    3.4229    0.0000    0.0000 C   0  0  0  0  0  0  0  0  0  0  0  0
  1  3  2  0  0  0  0
  1  9  1  0  0  0  0
  1  2  1  0  0  0  0
  2  4  2  0  0  0  0
  2 10  1  0  0  0  0
  3  5  1  0  0  0  0
  4  6  1  0  0  0  0
  5  6  2  0  0  0  0
  5 23  1  0  0  0  0
  7  8  1  0  0  0  0
  7  9  2  0  0  0  0
  8 10  2  0  0  0  0
  9 11  1  0  0  0  0
 11 12  1  0  0  0  0
 11 22  1  1  0  0  0
 12 13  1  0  0  0  0
 12 14  1  0  0  0  0
 12 25  1  1  0  0  0
 13 15  1  0  0  0  0
 14 16  1  0  0  0  0
 14 21  1  6  0  0  0
 15 17  1  0  0  0  0
 15 20  1  6  0  0  0
 16 17  1  0  0  0  0
 17 18  1  1  0  0  0
 18 19  2  0  0  0  0
 20 21  1  0  0  0  0
 22 26  1  0  0  0  0
 23 24  1  0  0  0  0
 26 27  2  0  0  0  0
 26 28  1  0  0  0  0
 28 29  1  0  0  0  0
 29 30  1  0  0  0  0
M  END
> <ID>
11329

> <Formula>
C23H28N2O4

> <FW>
396.4794

> <DSSTox_CID>
25965

> <DSSTox_RID>
81261

> <DSSTox_GSID>
45965

> <DSSTox_FileID_Sort>
5942

> <TS_ChemName>
Quinine ethyl carbonate

> <TS_ChemName_Synonyms>


> <TS_CASRN>
83-75-0

> <CASRN_ChemName_Relationship>
primary

> <TS_Description>
single chemical compound

> <ChemNote>
stereochem

> <STRUCTURE_Shown>
tested chemical

> <STRUCTURE_Formula>
C23H28N2O4

> <STRUCTURE_MW>
396.4794

> <STRUCTURE_ChemType>
defined organic

> <STRUCTURE_DefinedOrganicForm>
parent

> <STRUCTURE_IUPAC>
ethyl (8alpha,9R)-6'-methoxycinchonan-9-yl carbonate

> <STRUCTURE_SMILES>
COc1cc2c(cc1)nccc2[C@@H](OC(=O)OCC)[C@@H]4C[C@@H]3CC[N@]4C[C@@H]3C=C

> <STRUCTURE_SMILES_Desalt>
COc1cc2c(cc1)nccc2[C@@H](OC(=O)OCC)[C@@H]4C[C@@H]3CC[N@]4C[C@@H]3C=C

> <Substance_modify_yyyymmdd>
20110930

$$$$
