83-88-5
ChemmineR-0915142007XD

 27 29  0  0  1  0  0  0  0  0  1 V2000
    5.7969   -6.5513    0.0000 C   0  0  0  0  0  0  0  0  0  0  0  0
    5.7969   -7.9112    0.0000 C   0  0  0  0  0  0  0  0  0  0  0  0
    4.6455   -5.8862    0.0000 N   0  0  0  0  0  0  0  0  0  0  0  0
    6.9682   -5.8862    0.0000 N   0  0  0  0  0  0  0  0  0  0  0  0
    4.6455   -8.5465    0.0000 N   0  0  0  0  0  0  0  0  0  0  0  0
    8.1296   -7.9112    0.0000 N   0  0  0  0  0  0  0  0  0  0  0  0
    6.9682   -8.5465    0.0000 C   0  0  0  0  0  0  0  0  0  0  0  0
    8.1296   -6.5513    0.0000 C   0  0  0  0  0  0  0  0  0  0  0  0
    3.4940   -6.5513    0.0000 C   0  0  0  0  0  0  0  0  0  0  0  0
    3.4940   -7.9112    0.0000 C   0  0  0  0  0  0  0  0  0  0  0  0
    2.3227   -5.8862    0.0000 C   0  0  0  0  0  0  0  0  0  0  0  0
    2.3227   -8.5465    0.0000 C   0  0  0  0  0  0  0  0  0  0  0  0
    1.1713   -6.5513    0.0000 C   0  0  0  0  0  0  0  0  0  0  0  0
    1.1713   -7.9112    0.0000 C   0  0  0  0  0  0  0  0  0  0  0  0
    6.9682   -9.9262    0.0000 O   0  0  0  0  0  0  0  0  0  0  0  0
    9.3009   -5.8862    0.0000 O   0  0  0  0  0  0  0  0  0  0  0  0
    0.0000   -5.8862    0.0000 C   0  0  0  0  0  0  0  0  0  0  0  0
    0.0000   -8.5862    0.0000 C   0  0  0  0  0  0  0  0  0  0  0  0
    6.9682   -0.5261    0.0000 C   0  0  0  0  0  0  0  0  0  0  0  0
    6.9682   -1.8661    0.0000 C   0  0  0  0  0  0  0  0  0  0  0  0
    5.7969   -2.5312    0.0000 C   0  0  0  0  0  0  0  0  0  0  0  0
    5.7969   -3.8712    0.0000 C   0  0  0  0  0  0  0  0  0  0  0  0
    4.6455   -4.5462    0.0000 C   0  0  0  0  0  0  0  0  0  0  0  0
    7.8715    0.0000    0.0000 O   0  0  0  0  0  0  0  0  0  0  0  0
    8.1097   -2.5312    0.0000 O   0  0  0  0  0  0  0  0  0  0  0  0
    4.6455   -1.8661    0.0000 O   0  0  0  0  0  0  0  0  0  0  0  0
    6.9682   -4.5462    0.0000 O   0  0  0  0  0  0  0  0  0  0  0  0
  1  2  1  0  0  0  0
  1  3  1  0  0  0  0
  1  4  2  0  0  0  0
  2  5  2  0  0  0  0
  2  7  1  0  0  0  0
  3  9  1  0  0  0  0
  3 23  1  0  0  0  0
  4  8  1  0  0  0  0
  5 10  1  0  0  0  0
  6  8  1  0  0  0  0
  6  7  1  0  0  0  0
  7 15  2  0  0  0  0
  8 16  2  0  0  0  0
  9 10  2  0  0  0  0
  9 11  1  0  0  0  0
 10 12  1  0  0  0  0
 11 13  2  0  0  0  0
 12 14  2  0  0  0  0
 13 14  1  0  0  0  0
 13 17  1  0  0  0  0
 14 18  1  0  0  0  0
 19 20  1  0  0  0  0
 19 24  1  0  0  0  0
 20 21  1  0  0  0  0
 20 25  1  1  0  0  0
 21 22  1  0  0  0  0
 21 26  1  6  0  0  0
 22 23  1  0  0  0  0
 22 27  1  1  0  0  0
M  END
> <ID>
1683

> <Formula>
C17H20N4O6

> <FW>
376.3639

> <DSSTox_CID>
1777

> <DSSTox_RID>
76321

> <DSSTox_GSID>
21777

> <DSSTox_FileID_Sort>
1005

> <TS_ChemName>
Riboflavin

> <TS_ChemName_Synonyms>


> <TS_CASRN>
83-88-5

> <CASRN_ChemName_Relationship>
primary

> <TS_Description>
single chemical compound

> <ChemNote>
stereochem

> <STRUCTURE_Shown>
tested chemical

> <STRUCTURE_Formula>
C17H20N4O6

> <STRUCTURE_MW>
376.3639

> <STRUCTURE_ChemType>
defined organic

> <STRUCTURE_DefinedOrganicForm>
parent

> <STRUCTURE_IUPAC>
1-deoxy-1-(7,8-dimethyl-2,4-dioxo-3,4-dihydrobenzo[g]pteridin-10(2H)-yl)-D-ribitol

> <STRUCTURE_SMILES>
OC[C@@H](O)[C@@H](O)[C@@H](O)CN2C3=NC(=O)NC(=O)C3=Nc1cc(C)c(C)cc12

> <STRUCTURE_SMILES_Desalt>
OC[C@@H](O)[C@@H](O)[C@@H](O)CN2C3=NC(=O)NC(=O)C3=Nc1cc(C)c(C)cc12

> <Substance_modify_yyyymmdd>
20080429

$$$$
