83016-70-0
ChemmineR-0915142007XD

 13 12  0  0  0  0  0  0  0  0  1 V2000
   10.3474   -0.7490    0.0000 C   0  0  0  0  0  0  0  0  0  0  0  0
    9.2181   -0.0807    0.0000 C   0  0  0  0  0  0  0  0  0  0  0  0
   11.5227   -0.0922    0.0000 O   0  0  0  0  0  0  0  0  0  0  0  0
    8.0659   -0.7375    0.0000 N   0  0  0  0  0  0  0  0  0  0  0  0
    6.9021   -0.0576    0.0000 C   0  0  0  0  0  0  0  0  0  0  0  0
    5.7498   -0.7144    0.0000 C   0  0  0  0  0  0  0  0  0  0  0  0
    4.5975   -0.0230    0.0000 O   0  0  0  0  0  0  0  0  0  0  0  0
    3.4453   -0.6798    0.0000 C   0  0  0  0  0  0  0  0  0  0  0  0
    2.3045   -0.0115    0.0000 C   0  0  0  0  0  0  0  0  0  0  0  0
    1.1407   -0.6683    0.0000 N   0  0  0  0  0  0  0  0  0  0  0  0
    0.0000    0.0000    0.0000 C   0  0  0  0  0  0  0  0  0  0  0  0
    1.1407   -1.9934    0.0000 C   0  0  0  0  0  0  0  0  0  0  0  0
    8.0428   -2.0626    0.0000 C   0  0  0  0  0  0  0  0  0  0  0  0
  1  2  1  0  0  0  0
  1  3  1  0  0  0  0
  2  4  1  0  0  0  0
  4  5  1  0  0  0  0
  4 13  1  0  0  0  0
  5  6  1  0  0  0  0
  6  7  1  0  0  0  0
  7  8  1  0  0  0  0
  8  9  1  0  0  0  0
  9 10  1  0  0  0  0
 10 11  1  0  0  0  0
 10 12  1  0  0  0  0
M  END
> <ID>
10386

> <Formula>
C9H22N2O2

> <FW>
190.2832

> <DSSTox_CID>
24734

> <DSSTox_RID>
80431

> <DSSTox_GSID>
44734

> <DSSTox_FileID_Sort>
5113

> <TS_ChemName>
2-[{2-[2-(Dimethylamino)ethoxy]ethyl}(methyl)amino]ethanol

> <TS_ChemName_Synonyms>
2-[{2-[2-(Dimethylamino)ethoxy]ethyl}(methyl)amino]ethanol (Ethanol, 2-[[2-[2-(dimethylamino)ethoxy]ethyl]methylamino]-)

> <TS_CASRN>
83016-70-0

> <CASRN_ChemName_Relationship>
primary

> <TS_Description>
single chemical compound

> <ChemNote>


> <STRUCTURE_Shown>
tested chemical

> <STRUCTURE_Formula>
C9H22N2O2

> <STRUCTURE_MW>
190.2832

> <STRUCTURE_ChemType>
defined organic

> <STRUCTURE_DefinedOrganicForm>
parent

> <STRUCTURE_IUPAC>
2-[{2-[2-(dimethylamino)ethoxy]ethyl}(methyl)amino]ethanol

> <STRUCTURE_SMILES>
CN(C)CCOCCN(C)CCO

> <STRUCTURE_SMILES_Desalt>
CN(C)CCOCCN(C)CCO

> <Substance_modify_yyyymmdd>
20091116

$$$$
