83055-99-6
ChemmineR-0915142007XD

 28 29  0  0  0  0  0  0  0  0  1 V2000
   10.4076   -4.6764    0.0000 C   0  0  0  0  0  0  0  0  0  0  0  0
    9.2385   -3.9902    0.0000 C   0  0  0  0  0  0  0  0  0  0  0  0
   10.4076   -5.9853    0.0000 C   0  0  0  0  0  0  0  0  0  0  0  0
   11.5513   -3.9902    0.0000 C   0  0  0  0  0  0  0  0  0  0  0  0
    9.2385   -2.6686    0.0000 C   0  0  0  0  0  0  0  0  0  0  0  0
    8.0821   -4.6764    0.0000 C   0  0  0  0  0  0  0  0  0  0  0  0
    9.2385   -6.6588    0.0000 C   0  0  0  0  0  0  0  0  0  0  0  0
   11.5513   -2.6686    0.0000 O   0  0  0  0  0  0  0  0  0  0  0  0
   12.7077   -4.6764    0.0000 O   0  0  0  0  0  0  0  0  0  0  0  0
    8.0821   -1.9824    0.0000 S   0  0  0  0  0  0  0  0  0  0  0  0
    8.0821   -5.9853    0.0000 C   0  0  0  0  0  0  0  0  0  0  0  0
   12.6314   -2.0332    0.0000 C   0  0  0  0  0  0  0  0  0  0  0  0
    6.9384   -1.3216    0.0000 N   0  0  0  0  0  0  0  0  0  0  0  0
    7.4213   -3.1515    0.0000 O   0  0  0  0  0  0  0  0  0  0  0  0
    8.7556   -0.8387    0.0000 O   0  0  0  0  0  0  0  0  0  0  0  0
    5.7693   -1.9824    0.0000 C   0  0  0  0  0  0  0  0  0  0  0  0
    4.6256   -1.3216    0.0000 N   0  0  0  0  0  0  0  0  0  0  0  0
    5.7693   -3.3167    0.0000 O   0  0  0  0  0  0  0  0  0  0  0  0
    3.4692   -1.9824    0.0000 C   0  0  0  0  0  0  0  0  0  0  0  0
    2.3001   -1.3216    0.0000 N   0  0  0  0  0  0  0  0  0  0  0  0
    3.4692   -3.3167    0.0000 N   0  0  0  0  0  0  0  0  0  0  0  0
    1.1564   -1.9824    0.0000 C   0  0  0  0  0  0  0  0  0  0  0  0
    2.3001   -3.9902    0.0000 C   0  0  0  0  0  0  0  0  0  0  0  0
    1.1564   -3.3167    0.0000 C   0  0  0  0  0  0  0  0  0  0  0  0
    0.0000   -1.3216    0.0000 O   0  0  0  0  0  0  0  0  0  0  0  0
    2.3001   -5.3372    0.0000 O   0  0  0  0  0  0  0  0  0  0  0  0
    0.0000    0.0000    0.0000 C   0  0  0  0  0  0  0  0  0  0  0  0
    1.1564   -5.9853    0.0000 C   0  0  0  0  0  0  0  0  0  0  0  0
  1  2  2  0  0  0  0
  1  3  1  0  0  0  0
  1  4  1  0  0  0  0
  2  5  1  0  0  0  0
  2  6  1  0  0  0  0
  3  7  2  0  0  0  0
  4  8  1  0  0  0  0
  4  9  2  0  0  0  0
  5 10  1  0  0  0  0
  6 11  2  0  0  0  0
  7 11  1  0  0  0  0
  8 12  1  0  0  0  0
 10 13  1  0  0  0  0
 10 14  2  0  0  0  0
 10 15  2  0  0  0  0
 13 16  1  0  0  0  0
 16 17  1  0  0  0  0
 16 18  2  0  0  0  0
 17 19  1  0  0  0  0
 19 20  1  0  0  0  0
 19 21  2  0  0  0  0
 20 22  2  0  0  0  0
 21 23  1  0  0  0  0
 22 24  1  0  0  0  0
 22 25  1  0  0  0  0
 23 26  1  0  0  0  0
 23 24  2  0  0  0  0
 25 27  1  0  0  0  0
 26 28  1  0  0  0  0
M  END
> <ID>
3539

> <Formula>
C16H18N4O7S

> <FW>
410.4017

> <DSSTox_CID>
4164

> <DSSTox_RID>
77312

> <DSSTox_GSID>
24164

> <DSSTox_FileID_Sort>
1995

> <TS_ChemName>
Bensulfuron-methyl

> <TS_ChemName_Synonyms>
Bensulfuron-methyl (Londax)

> <TS_CASRN>
83055-99-6

> <CASRN_ChemName_Relationship>
primary

> <TS_Description>
single chemical compound

> <ChemNote>


> <STRUCTURE_Shown>
tested chemical

> <STRUCTURE_Formula>
C16H18N4O7S

> <STRUCTURE_MW>
410.4017

> <STRUCTURE_ChemType>
defined organic

> <STRUCTURE_DefinedOrganicForm>
parent

> <STRUCTURE_IUPAC>
methyl 2-({[(4,6-dimethoxypyrimidin-2-yl)carbamoyl]sulfamoyl}methyl)benzoate

> <STRUCTURE_SMILES>
O=C(Nc1nc(cc(OC)n1)OC)NS(=O)(=O)Cc2ccccc2C(=O)OC

> <STRUCTURE_SMILES_Desalt>
O=C(Nc1nc(cc(OC)n1)OC)NS(=O)(=O)Cc2ccccc2C(=O)OC

> <Substance_modify_yyyymmdd>
20080429

$$$$
