831-59-4
ChemmineR-0915142007XD

 16 14  0  0  0  0  0  0  0  0  2 V2000
    4.6134   -2.4001    0.0000 C    0  0  0  0  0  0  0  0  0  0  0  0
    4.6134   -3.7280    0.0000 C    0  0  0  0  0  0  0  0  0  0  0  0
    3.4583   -4.3851    0.0000 C    0  0  0  0  0  0  0  0  0  0  0  0
    2.3032   -3.7280    0.0000 C    0  0  0  0  0  0  0  0  0  0  0  0
    2.3032   -2.4001    0.0000 C    0  0  0  0  0  0  0  0  0  0  0  0
    3.4583   -1.7291    0.0000 C    0  0  0  0  0  0  0  0  0  0  0  0
    5.7615   -1.7291    0.0000 S    0  0  0  0  0  0  0  0  0  0  0  0
    6.4186   -2.8773    0.0000 O    0  0  0  0  0  0  0  0  0  0  0  0
    5.0906   -0.5741    0.0000 O    0  5  0  0  0  0  0  0  0  0  0  0
    6.9166   -1.0721    0.0000 O    0  0  0  0  0  0  0  0  0  0  0  0
    1.1551   -1.7291    0.0000 S    0  0  0  0  0  0  0  0  0  0  0  0
    1.8260   -0.5741    0.0000 O    0  0  0  0  0  0  0  0  0  0  0  0
    0.4980   -2.8773    0.0000 O    0  5  0  0  0  0  0  0  0  0  0  0
    0.0000   -1.0721    0.0000 O    0  0  0  0  0  0  0  0  0  0  0  0
    6.6261   -0.0968    0.0000 Na   0  3  0  0  0  0  0  0  0  0  0  0
    0.9752    0.0000    0.0000 Na   0  3  0  0  0  0  0  0  0  0  0  0
  1  2  2  0  0  0  0
  1  6  1  0  0  0  0
  1  7  1  0  0  0  0
  2  3  1  0  0  0  0
  3  4  2  0  0  0  0
  4  5  1  0  0  0  0
  5  6  2  0  0  0  0
  5 11  1  0  0  0  0
  7  8  2  0  0  0  0
  7  9  1  0  0  0  0
  7 10  2  0  0  0  0
 11 12  2  0  0  0  0
 11 13  1  0  0  0  0
 11 14  2  0  0  0  0
M  END
> <ID>
10387

> <Formula>
C6H4Na2O6S2

> <FW>
282.2019 (236.2235+22.9892+22.9892)

> <DSSTox_CID>
24735

> <DSSTox_RID>
80432

> <DSSTox_GSID>
44735

> <DSSTox_FileID_Sort>
5114

> <TS_ChemName>
Disodium benzene-1,3-disulfonate

> <TS_ChemName_Synonyms>
Disodium benzene-1,3-disulfonate (1,3-Benzenedisulfonic acid, disodium salt)

> <TS_CASRN>
831-59-4

> <CASRN_ChemName_Relationship>
primary

> <TS_Description>
single chemical compound

> <ChemNote>
parent [98-48-6]

> <STRUCTURE_Shown>
tested chemical

> <STRUCTURE_Formula>
C6H4Na2O6S2

> <STRUCTURE_MW>
282.2019

> <STRUCTURE_ChemType>
defined organic

> <STRUCTURE_DefinedOrganicForm>
salt

> <STRUCTURE_IUPAC>
disodium benzene-1,3-disulfonate

> <STRUCTURE_SMILES>
[Na+].[Na+].O=S([O-])(=O)c1cccc(c1)S([O-])(=O)=O

> <STRUCTURE_SMILES_Desalt>
OS(=O)(=O)c1cccc(c1)S(=O)(=O)O

> <Substance_modify_yyyymmdd>
20091116

$$$$
