83105-70-8
ChemmineR-0915142007XD

 54 58  0  0  1  0  0  0  0  0  1 V2000
   10.5149   -3.9995    0.0000 N   0  0  0  0  0  0  0  0  0  0  0  0
   10.5149   -2.7094    0.0000 C   0  0  0  0  0  0  0  0  0  0  0  0
   11.7406   -4.4081    0.0000 C   0  0  0  0  0  0  0  0  0  0  0  0
    9.2462   -3.9995    0.0000 C   0  0  0  0  0  0  0  0  0  0  0  0
    9.2462   -2.7094    0.0000 C   0  0  0  0  0  0  0  0  0  0  0  0
   11.7406   -2.2363    0.0000 S   0  0  0  0  0  0  0  0  0  0  0  0
   12.5362   -3.3545    0.0000 C   0  0  0  0  0  0  0  0  0  0  0  0
   12.2136   -5.6553    0.0000 C   0  0  0  0  0  0  0  0  0  0  0  0
    8.2786   -4.9242    0.0000 O   0  0  0  0  0  0  0  0  0  0  0  0
    7.5475   -2.6449    0.0000 N   0  0  0  0  0  0  0  0  0  0  0  0
   13.6973   -2.7094    0.0000 C   0  0  0  0  0  0  0  0  0  0  0  0
   13.6973   -3.9995    0.0000 C   0  0  0  0  0  0  0  0  0  0  0  0
   13.5038   -5.9133    0.0000 O   0  0  0  0  0  0  0  0  0  0  0  0
   11.2890   -6.6444    0.0000 O   0  0  0  0  0  0  0  0  0  0  0  0
    6.4294   -1.9138    0.0000 C   0  0  0  0  0  0  0  0  0  0  0  0
   14.8370   -5.1392    0.0000 C   0  0  0  0  0  0  0  0  0  0  0  0
    5.3112   -2.5588    0.0000 C   0  0  0  0  0  0  0  0  0  0  0  0
    6.4294   -0.5591    0.0000 O   0  0  0  0  0  0  0  0  0  0  0  0
   16.3637   -5.9778    0.0000 O   0  0  0  0  0  0  0  0  0  0  0  0
    4.1716   -1.9138    0.0000 C   0  0  0  0  0  0  0  0  0  0  0  0
    5.3112   -3.8490    0.0000 N   0  0  0  0  0  0  0  0  0  0  0  0
   17.6324   -5.6553    0.0000 C   0  0  0  0  0  0  0  0  0  0  0  0
    3.0319   -2.5588    0.0000 C   0  0  0  0  0  0  0  0  0  0  0  0
    4.1716   -0.5591    0.0000 C   0  0  0  0  0  0  0  0  0  0  0  0
   18.0194   -4.4081    0.0000 C   0  0  0  0  0  0  0  0  0  0  0  0
   18.4925   -6.6444    0.0000 O   0  0  0  0  0  0  0  0  0  0  0  0
    1.9138   -1.9138    0.0000 C   0  0  0  0  0  0  0  0  0  0  0  0
    3.0319    0.0000    0.0000 C   0  0  0  0  0  0  0  0  0  0  0  0
   19.2666   -4.0210    0.0000 N   0  0  0  0  0  0  0  0  0  0  0  0
   17.2238   -3.3760    0.0000 C   0  0  0  0  0  0  0  0  0  0  0  0
    1.9138   -0.5591    0.0000 C   0  0  0  0  0  0  0  0  0  0  0  0
   19.2666   -2.7094    0.0000 C   0  0  0  0  0  0  0  0  0  0  0  0
   20.5783   -4.0210    0.0000 C   0  0  0  0  0  0  0  0  0  0  0  0
   18.0194   -2.3223    0.0000 S   0  0  0  0  0  0  0  0  0  0  0  0
   16.1487   -2.7094    0.0000 C   0  0  0  0  0  0  0  0  0  0  0  0
   16.1487   -4.0210    0.0000 C   0  0  0  0  0  0  0  0  0  0  0  0
   20.5783   -2.7094    0.0000 C   0  0  0  0  0  0  0  0  0  0  0  0
   21.5029   -4.9672    0.0000 O   0  0  0  0  0  0  0  0  0  0  0  0
   18.1269   -0.9461    0.0000 O   0  0  0  0  0  0  0  0  0  0  0  0
   16.9443   -1.5267    0.0000 O   0  0  0  0  0  0  0  0  0  0  0  0
   10.5149   -1.3762    0.0000 H   0  0  0  0  0  0  0  0  0  0  0  0
    9.2462   -1.3762    0.0000 H   0  0  0  0  0  0  0  0  0  0  0  0
   19.2666   -1.3762    0.0000 H   0  0  0  0  0  0  0  0  0  0  0  0
    2.6449   -6.3218    0.0000 C   0  0  0  0  0  0  0  0  0  0  0  0
    3.2899   -7.4400    0.0000 C   0  0  0  0  0  0  0  0  0  0  0  0
    4.5801   -7.4400    0.0000 C   0  0  0  0  0  0  0  0  0  0  0  0
    5.2467   -6.3218    0.0000 C   0  0  0  0  0  0  0  0  0  0  0  0
    4.5801   -5.1822    0.0000 C   0  0  0  0  0  0  0  0  0  0  0  0
    3.2899   -5.2037    0.0000 C   0  0  0  0  0  0  0  0  0  0  0  0
    6.5584   -6.3218    0.0000 C   0  0  0  0  0  0  0  0  0  0  0  0
    1.3117   -6.3218    0.0000 S   0  0  0  0  0  0  0  0  0  0  0  0
    0.0000   -6.3003    0.0000 O   0  0  0  0  0  0  0  0  0  0  0  0
    1.3117   -7.6335    0.0000 O   0  0  0  0  0  0  0  0  0  0  0  0
    1.3332   -5.0102    0.0000 O   0  0  0  0  0  0  0  0  0  0  0  0
  1  2  1  0  0  0  0
  1  3  1  0  0  0  0
  1  4  1  0  0  0  0
  2  5  1  0  0  0  0
  2  6  1  0  0  0  0
  2 41  1  6  0  0  0
  3  7  1  0  0  0  0
  3  8  1  6  0  0  0
  4  9  2  0  0  0  0
  4  5  1  0  0  0  0
  5 10  1  1  0  0  0
  5 42  1  6  0  0  0
  6  7  1  0  0  0  0
  7 11  1  0  0  0  0
  7 12  1  0  0  0  0
  8 13  1  0  0  0  0
  8 14  2  0  0  0  0
 10 15  1  0  0  0  0
 13 16  1  0  0  0  0
 15 17  1  0  0  0  0
 15 18  2  0  0  0  0
 16 19  1  0  0  0  0
 17 20  1  0  0  0  0
 17 21  1  6  0  0  0
 19 22  1  0  0  0  0
 20 23  2  0  0  0  0
 20 24  1  0  0  0  0
 22 26  2  0  0  0  0
 25 22  1  1  0  0  0
 23 27  1  0  0  0  0
 24 28  2  0  0  0  0
 25 29  1  0  0  0  0
 25 30  1  0  0  0  0
 27 31  2  0  0  0  0
 28 31  1  0  0  0  0
 29 32  1  0  0  0  0
 29 33  1  0  0  0  0
 30 34  1  0  0  0  0
 30 35  1  0  0  0  0
 30 36  1  0  0  0  0
 32 37  1  0  0  0  0
 32 34  1  0  0  0  0
 32 43  1  1  0  0  0
 33 38  2  0  0  0  0
 33 37  1  0  0  0  0
 34 39  2  0  0  0  0
 34 40  2  0  0  0  0
 44 49  2  0  0  0  0
 44 45  1  0  0  0  0
 44 51  1  0  0  0  0
 45 46  2  0  0  0  0
 46 47  1  0  0  0  0
 47 50  1  0  0  0  0
 47 48  2  0  0  0  0
 48 49  1  0  0  0  0
 51 52  1  0  0  0  0
 51 53  2  0  0  0  0
 51 54  2  0  0  0  0
M  END
> <ID>
13638

> <Formula>
C32H38N4O12S3

> <FW>
766.8587 (594.6571+172.2016)

> <DSSTox_CID>
28567

> <DSSTox_RID>
82839

> <DSSTox_GSID>
48641

> <DSSTox_FileID_Sort>
7516

> <TS_ChemName>
Sultamicillin tosylate

> <TS_ChemName_Synonyms>


> <TS_CASRN>
83105-70-8

> <CASRN_ChemName_Relationship>
primary

> <TS_Description>
single chemical compound

> <ChemNote>
stereochem; parent [76497-13-7]

> <STRUCTURE_Shown>
tested chemical

> <STRUCTURE_Formula>
C32H38N4O12S3

> <STRUCTURE_MW>
766.8587

> <STRUCTURE_ChemType>
defined organic

> <STRUCTURE_DefinedOrganicForm>
complex

> <STRUCTURE_IUPAC>
({[(2S,5R,6R)-6-{[(2R)-2-amino-2-phenylacetyl]amino}-3,3-dimethyl-7-oxo-4-thia-1-azabicyclo[3.2.0]hept-2-yl]carbonyl}oxy)methyl (2S,5R)-3,3-dimethyl-7-oxo-4-thia-1-azabicyclo[3.2.0]heptane-2-carboxylate 4,4-dioxide 4-methylbenzenesulfonate (1:1)

> <STRUCTURE_SMILES>
O=S(=O)(O)c1ccc(C)cc1.O=C1C[C@@H]5N1[C@@H](C(=O)OCOC(=O)[C@@H]3N4C(=O)[C@@H](NC(=O)[C@H](N)c2ccccc2)[C@H]4SC3(C)C)C(C)(C)S5(=O)=O

> <STRUCTURE_SMILES_Desalt>
O=C1C[C@@H]5N1[C@@H](C(=O)OCOC(=O)[C@@H]3N4C(=O)[C@@H](NC(=O)[C@H](N)c2ccccc2)[C@H]4SC3(C)C)C(C)(C)S5(=O)=O

> <Substance_modify_yyyymmdd>
20111015

$$$$
