83121-18-0
ChemmineR-0915142007XD

 24 25  0  0  0  0  0  0  0  0  1 V2000
    3.3702   -1.5562    0.0000 C    0  0  0  0  0  0  0  0  0  0  0  0
    3.3702    0.0000    0.0000 O    0  0  0  0  0  0  0  0  0  0  0  0
    2.2376   -2.2100    0.0000 C    0  0  0  0  0  0  0  0  0  0  0  0
    1.1418   -1.5562    0.0000 C    0  0  0  0  0  0  0  0  0  0  0  0
    2.2376   -3.5083    0.0000 C    0  0  0  0  0  0  0  0  0  0  0  0
    0.0000   -2.2100    0.0000 C    0  0  0  0  0  0  0  0  0  0  0  0
    1.1418   -4.1437    0.0000 C    0  0  0  0  0  0  0  0  0  0  0  0
    0.0000   -3.5083    0.0000 C    0  0  0  0  0  0  0  0  0  0  0  0
    4.5581   -2.2560    0.0000 N    0  0  0  0  0  0  0  0  0  0  0  0
    5.7275   -1.5930    0.0000 C    0  0  0  0  0  0  0  0  0  0  0  0
    5.7275   -0.2762    0.0000 O    0  0  0  0  0  0  0  0  0  0  0  0
    6.8417   -2.2376    0.0000 N    0  0  0  0  0  0  0  0  0  0  0  0
    6.8417   -3.5452    0.0000 C    0  0  0  0  0  0  0  0  0  0  0  0
    5.7183   -4.2542    0.0000 C    0  0  0  0  0  0  0  0  0  0  0  0
    8.0203   -4.1897    0.0000 C    0  0  0  0  0  0  0  0  0  0  0  0
    5.7183   -5.5894    0.0000 C    0  0  0  0  0  0  0  0  0  0  0  0
    8.0203   -5.5157    0.0000 C    0  0  0  0  0  0  0  0  0  0  0  0
    6.9246   -6.2432    0.0000 C    0  0  0  0  0  0  0  0  0  0  0  0
    4.5857   -6.2892    0.0000 Cl   0  0  0  0  0  0  0  0  0  0  0  0
    9.2082   -6.1603    0.0000 Cl   0  0  0  0  0  0  0  0  0  0  0  0
    4.5581   -3.6372    0.0000 F    0  0  0  0  0  0  0  0  0  0  0  0
    6.9246   -7.5599    0.0000 F    0  0  0  0  0  0  0  0  0  0  0  0
    1.1418   -0.2394    0.0000 F    0  0  0  0  0  0  0  0  0  0  0  0
    3.4162   -4.1437    0.0000 F    0  0  0  0  0  0  0  0  0  0  0  0
  1  2  2  0  0  0  0
  1  3  1  0  0  0  0
  1  9  1  0  0  0  0
  3  4  2  0  0  0  0
  3  5  1  0  0  0  0
  4  6  1  0  0  0  0
  4 23  1  0  0  0  0
  5  7  2  0  0  0  0
  5 24  1  0  0  0  0
  6  8  2  0  0  0  0
  7  8  1  0  0  0  0
  9 10  1  0  0  0  0
 10 11  2  0  0  0  0
 10 12  1  0  0  0  0
 12 13  1  0  0  0  0
 13 14  2  0  0  0  0
 13 15  1  0  0  0  0
 14 16  1  0  0  0  0
 14 21  1  0  0  0  0
 15 17  2  0  0  0  0
 16 18  2  0  0  0  0
 16 19  1  0  0  0  0
 17 18  1  0  0  0  0
 17 20  1  0  0  0  0
 18 22  1  0  0  0  0
M  END
> <ID>
9352

> <Formula>
C14H6Cl2F4N2O2

> <FW>
381.1093

> <DSSTox_CID>
22440

> <DSSTox_RID>
80025

> <DSSTox_GSID>
42440

> <DSSTox_FileID_Sort>
4707

> <TS_ChemName>
Teflubenzuron

> <TS_ChemName_Synonyms>


> <TS_CASRN>
83121-18-0

> <CASRN_ChemName_Relationship>
primary

> <TS_Description>
single chemical compound

> <ChemNote>


> <STRUCTURE_Shown>
tested chemical

> <STRUCTURE_Formula>
C14H6Cl2F4N2O2

> <STRUCTURE_MW>
381.1093

> <STRUCTURE_ChemType>
defined organic

> <STRUCTURE_DefinedOrganicForm>
parent

> <STRUCTURE_IUPAC>
N-[(3,5-dichloro-2,4-difluorophenyl)carbamoyl]-2,6-difluorobenzamide

> <STRUCTURE_SMILES>
Clc2cc(NC(=O)NC(=O)c1c(F)cccc1F)c(F)c(Cl)c2F

> <STRUCTURE_SMILES_Desalt>
Clc2cc(NC(=O)NC(=O)c1c(F)cccc1F)c(F)c(Cl)c2F

> <Substance_modify_yyyymmdd>
20080825

$$$$
