83150-76-9
ChemmineR-0915142007XD

 71 75  0  0  1  0  0  0  0  0  1 V2000
   12.6304   -4.0998    0.0000 C   0  0  0  0  0  0  0  0  0  0  0  0
   12.6304   -5.4235    0.0000 C   0  0  0  0  0  0  0  0  0  0  0  0
   13.8071   -3.4196    0.0000 O   0  0  0  0  0  0  0  0  0  0  0  0
   13.8071   -6.0670    0.0000 N   0  0  0  0  0  0  0  0  0  0  0  0
   10.3507   -5.4235    0.0000 S   0  0  0  0  0  0  0  0  0  0  0  0
   11.4906   -6.0670    0.0000 C   0  0  0  0  0  0  0  0  0  0  0  0
   11.4906   -3.4196    0.0000 N   0  0  0  0  0  0  0  0  0  0  0  0
   16.0868   -6.0670    0.0000 C   0  0  0  0  0  0  0  0  0  0  0  0
   14.9469   -5.4235    0.0000 C   0  0  0  0  0  0  0  0  0  0  0  0
   14.9469   -4.0998    0.0000 O   0  0  0  0  0  0  0  0  0  0  0  0
   17.2450   -5.4235    0.0000 C   0  0  0  0  0  0  0  0  0  0  0  0
   16.0868   -7.3907    0.0000 N   0  0  0  0  0  0  0  0  0  0  0  0
   18.3849   -6.0670    0.0000 O   0  0  0  0  0  0  0  0  0  0  0  0
   17.2450   -4.0998    0.0000 C   0  0  0  0  0  0  0  0  0  0  0  0
   14.9469   -8.0894    0.0000 C   0  0  0  0  0  0  0  0  0  0  0  0
   13.8071   -7.3907    0.0000 O   0  0  0  0  0  0  0  0  0  0  0  0
   14.9469   -9.4131    0.0000 C   0  0  0  0  0  0  0  0  0  0  0  0
   13.8071  -10.0382    0.0000 N   0  0  0  0  0  0  0  0  0  0  0  0
   18.3849  -14.0461    0.0000 N   0  0  0  0  0  0  0  0  0  0  0  0
   17.2450  -13.4026    0.0000 C   0  0  0  0  0  0  0  0  0  0  0  0
   16.0868  -10.0382    0.0000 C   0  0  0  0  0  0  0  0  0  0  0  0
   17.2450  -12.0605    0.0000 C   0  0  0  0  0  0  0  0  0  0  0  0
   16.0868  -11.3986    0.0000 C   0  0  0  0  0  0  0  0  0  0  0  0
   12.6304  -12.0605    0.0000 C   0  0  0  0  0  0  0  0  0  0  0  0
   14.7447  -12.5201    0.0000 N   0  0  0  0  0  0  0  0  0  0  0  0
   13.8622  -11.5273    0.0000 C   0  0  0  0  0  0  0  0  0  0  0  0
   12.7775  -13.3842    0.0000 C   0  0  0  0  0  0  0  0  0  0  0  0
   12.6304   -9.4131    0.0000 C   0  0  0  0  0  0  0  0  0  0  0  0
   11.4906  -11.3986    0.0000 C   0  0  0  0  0  0  0  0  0  0  0  0
   14.0828  -13.6600    0.0000 C   0  0  0  0  0  0  0  0  0  0  0  0
   11.4906  -10.0382    0.0000 C   0  0  0  0  0  0  0  0  0  0  0  0
   12.6304   -8.0894    0.0000 O   0  0  0  0  0  0  0  0  0  0  0  0
   10.3507   -9.4131    0.0000 N   0  0  0  0  0  0  0  0  0  0  0  0
   11.8950  -14.3770    0.0000 C   0  0  0  0  0  0  0  0  0  0  0  0
   14.5057  -14.9102    0.0000 C   0  0  0  0  0  0  0  0  0  0  0  0
   12.2995  -15.6272    0.0000 C   0  0  0  0  0  0  0  0  0  0  0  0
   13.6048  -15.9029    0.0000 C   0  0  0  0  0  0  0  0  0  0  0  0
    9.1925  -10.0382    0.0000 C   0  0  0  0  0  0  0  0  0  0  0  0
    8.0526   -9.4131    0.0000 C   0  0  0  0  0  0  0  0  0  0  0  0
    9.1925  -11.3986    0.0000 O   0  0  0  0  0  0  0  0  0  0  0  0
    6.8943  -10.0382    0.0000 C   0  0  0  0  0  0  0  0  0  0  0  0
    8.0526   -8.0894    0.0000 N   0  0  0  0  0  0  0  0  0  0  0  0
    6.8943  -11.3986    0.0000 C   0  0  0  0  0  0  0  0  0  0  0  0
    8.0526  -12.0605    0.0000 C   0  0  0  0  0  0  0  0  0  0  0  0
    5.7361  -12.0605    0.0000 C   0  0  0  0  0  0  0  0  0  0  0  0
    5.7361  -13.4026    0.0000 C   0  0  0  0  0  0  0  0  0  0  0  0
    8.0526  -13.4026    0.0000 C   0  0  0  0  0  0  0  0  0  0  0  0
    6.8943  -14.0461    0.0000 C   0  0  0  0  0  0  0  0  0  0  0  0
    6.8943   -7.3907    0.0000 C   0  0  0  0  0  0  0  0  0  0  0  0
    6.8943   -6.0670    0.0000 C   0  0  0  0  0  0  0  0  0  0  0  0
    5.7361   -8.0894    0.0000 O   0  0  0  0  0  0  0  0  0  0  0  0
    5.7361   -5.4235    0.0000 N   0  0  0  0  0  0  0  0  0  0  0  0
    9.1925   -6.0670    0.0000 S   0  0  0  0  0  0  0  0  0  0  0  0
    8.0526   -5.4235    0.0000 C   0  0  0  0  0  0  0  0  0  0  0  0
    4.5962   -6.0670    0.0000 C   0  0  0  0  0  0  0  0  0  0  0  0
    3.4564   -5.4235    0.0000 C   0  0  0  0  0  0  0  0  0  0  0  0
    4.5962   -7.3907    0.0000 O   0  0  0  0  0  0  0  0  0  0  0  0
    3.4564   -4.0998    0.0000 C   0  0  0  0  0  0  0  0  0  0  0  0
    2.3165   -6.0670    0.0000 N   0  0  0  0  0  0  0  0  0  0  0  0
    2.3165   -3.4196    0.0000 C   0  0  0  0  0  0  0  0  0  0  0  0
    1.1399   -4.0998    0.0000 C   0  0  0  0  0  0  0  0  0  0  0  0
    2.3165   -2.0775    0.0000 C   0  0  0  0  0  0  0  0  0  0  0  0
    1.1399   -1.4524    0.0000 C   0  0  0  0  0  0  0  0  0  0  0  0
    0.0000   -3.4196    0.0000 C   0  0  0  0  0  0  0  0  0  0  0  0
    0.0000   -2.0775    0.0000 C   0  0  0  0  0  0  0  0  0  0  0  0
   11.4906   -2.0591    0.0000 C   0  0  0  0  0  0  0  0  0  0  0  0
   12.6672   -1.3789    0.0000 C   0  0  0  0  0  0  0  0  0  0  0  0
   13.8622   -2.0591    0.0000 O   0  0  0  0  0  0  0  0  0  0  0  0
   10.3139   -1.3789    0.0000 C   0  0  0  0  0  0  0  0  0  0  0  0
   10.3139    0.0000    0.0000 O   0  0  0  0  0  0  0  0  0  0  0  0
    9.1373   -2.0591    0.0000 C   0  0  0  0  0  0  0  0  0  0  0  0
  1  2  1  0  0  0  0
  1  3  2  0  0  0  0
  1  7  1  0  0  0  0
  2  4  1  1  0  0  0
  2  6  1  0  0  0  0
  4  9  1  0  0  0  0
  5  6  1  0  0  0  0
  5 53  1  0  0  0  0
 66  7  1  1  0  0  0
  8  9  1  0  0  0  0
  8 11  1  0  0  0  0
  8 12  1  6  0  0  0
  9 10  2  0  0  0  0
 11 13  1  0  0  0  0
 11 14  1  0  0  0  0
 12 15  1  0  0  0  0
 15 16  2  0  0  0  0
 15 17  1  0  0  0  0
 17 18  1  6  0  0  0
 17 21  1  0  0  0  0
 18 28  1  0  0  0  0
 19 20  1  0  0  0  0
 20 22  1  0  0  0  0
 21 23  1  0  0  0  0
 22 23  1  0  0  0  0
 24 26  2  0  0  0  0
 24 27  1  0  0  0  0
 24 29  1  0  0  0  0
 25 26  1  0  0  0  0
 25 30  1  0  0  0  0
 27 30  2  0  0  0  0
 27 34  1  0  0  0  0
 28 31  1  0  0  0  0
 28 32  2  0  0  0  0
 29 31  1  0  0  0  0
 30 35  1  0  0  0  0
 31 33  1  1  0  0  0
 33 38  1  0  0  0  0
 34 36  2  0  0  0  0
 35 37  2  0  0  0  0
 36 37  1  0  0  0  0
 38 39  1  0  0  0  0
 38 40  2  0  0  0  0
 39 41  1  0  0  0  0
 39 42  1  6  0  0  0
 41 43  1  0  0  0  0
 42 49  1  0  0  0  0
 43 44  1  0  0  0  0
 43 45  2  0  0  0  0
 44 47  2  0  0  0  0
 45 46  1  0  0  0  0
 46 48  2  0  0  0  0
 47 48  1  0  0  0  0
 49 50  1  0  0  0  0
 49 51  2  0  0  0  0
 50 52  1  1  0  0  0
 50 54  1  0  0  0  0
 52 55  1  0  0  0  0
 53 54  1  0  0  0  0
 55 56  1  0  0  0  0
 55 57  2  0  0  0  0
 56 58  1  0  0  0  0
 56 59  1  6  0  0  0
 58 60  1  0  0  0  0
 60 61  1  0  0  0  0
 60 62  2  0  0  0  0
 61 64  2  0  0  0  0
 62 63  1  0  0  0  0
 63 65  2  0  0  0  0
 64 65  1  0  0  0  0
 66 67  1  0  0  0  0
 66 69  1  0  0  0  0
 67 68  1  0  0  0  0
 69 70  1  1  0  0  0
 69 71  1  0  0  0  0
M  END
> <ID>
13676

> <Formula>
C49H66N10O10S2

> <FW>
1019.2393

> <DSSTox_CID>
28608

> <DSSTox_RID>
82878

> <DSSTox_GSID>
48682

> <DSSTox_FileID_Sort>
7555

> <TS_ChemName>
Octreotide

> <TS_ChemName_Synonyms>


> <TS_CASRN>
83150-76-9

> <CASRN_ChemName_Relationship>
primary

> <TS_Description>
single chemical compound

> <ChemNote>


> <STRUCTURE_Shown>
tested chemical

> <STRUCTURE_Formula>
C49H66N10O10S2

> <STRUCTURE_MW>
1019.2393

> <STRUCTURE_ChemType>
defined organic

> <STRUCTURE_DefinedOrganicForm>
parent

> <STRUCTURE_IUPAC>
(4R,7S,10S,13R,16S,19R)-10-(4-aminobutyl)-16-benzyl-N-[(2R,3R)-1,3-dihydroxybutan-2-yl]-7-(1-hydroxyethyl)-13-(1H-indol-3-ylmethyl)-6,9,12,15,18-pentaoxo-19-(D-phenylalanylamino)-1,2-dithia-5,8,11,14,17-pentaazacycloicosane-4-carboxamide

> <STRUCTURE_SMILES>
C[C@@H](O)[C@@H](CO)NC(=O)[C@@H]5CSSC[C@H](NC(=O)[C@H](N)Cc1ccccc1)C(=O)N[C@@H](Cc2ccccc2)C(=O)N[C@H](Cc4cnc3ccccc34)C(=O)N[C@@H](CCCCN)C(=O)N[C@@H](C(C)O)C(=O)N5

> <STRUCTURE_SMILES_Desalt>
C[C@@H](O)[C@@H](CO)NC(=O)[C@@H]5CSSC[C@H](NC(=O)[C@H](N)Cc1ccccc1)C(=O)N[C@@H](Cc2ccccc2)C(=O)N[C@H](Cc4cnc3ccccc34)C(=O)N[C@@H](CCCCN)C(=O)N[C@@H](C(C)O)C(=O)N5

> <Substance_modify_yyyymmdd>
20111204

$$$$
