83164-33-4
ChemmineR-0915142007XD

 28 30  0  0  0  0  0  0  0  0  1 V2000
    6.9094   -9.3007    0.0000 N   0  0  0  0  0  0  0  0  0  0  0  0
    8.0706   -9.9790    0.0000 C   0  0  0  0  0  0  0  0  0  0  0  0
    6.8979   -7.9786    0.0000 C   0  0  0  0  0  0  0  0  0  0  0  0
    8.0476   -7.3003    0.0000 C   0  0  0  0  0  0  0  0  0  0  0  0
    9.2087   -9.3007    0.0000 C   0  0  0  0  0  0  0  0  0  0  0  0
    9.2087   -7.9786    0.0000 C   0  0  0  0  0  0  0  0  0  0  0  0
    8.0476   -5.9897    0.0000 C   0  0  0  0  0  0  0  0  0  0  0  0
    6.8979   -5.3114    0.0000 O   0  0  0  0  0  0  0  0  0  0  0  0
    9.1857   -5.3344    0.0000 N   0  0  0  0  0  0  0  0  0  0  0  0
   10.3469   -1.9889    0.0000 C   0  0  0  0  0  0  0  0  0  0  0  0
    9.1857   -1.3221    0.0000 C   0  0  0  0  0  0  0  0  0  0  0  0
    8.0476   -1.9889    0.0000 C   0  0  0  0  0  0  0  0  0  0  0  0
    8.0361   -3.3225    0.0000 C   0  0  0  0  0  0  0  0  0  0  0  0
    9.1857   -3.9778    0.0000 C   0  0  0  0  0  0  0  0  0  0  0  0
   10.3469   -3.3225    0.0000 C   0  0  0  0  0  0  0  0  0  0  0  0
   11.4965   -3.9778    0.0000 F   0  0  0  0  0  0  0  0  0  0  0  0
    9.2087    0.0000    0.0000 F   0  0  0  0  0  0  0  0  0  0  0  0
    5.7368   -7.3003    0.0000 O   0  0  0  0  0  0  0  0  0  0  0  0
    4.5986   -7.9786    0.0000 C   0  0  0  0  0  0  0  0  0  0  0  0
    3.4490   -7.3118    0.0000 C   0  0  0  0  0  0  0  0  0  0  0  0
    4.5986   -9.3007    0.0000 C   0  0  0  0  0  0  0  0  0  0  0  0
    2.3108   -7.9901    0.0000 C   0  0  0  0  0  0  0  0  0  0  0  0
    3.4490   -9.9790    0.0000 C   0  0  0  0  0  0  0  0  0  0  0  0
    2.3108   -9.3237    0.0000 C   0  0  0  0  0  0  0  0  0  0  0  0
    1.1497   -7.3118    0.0000 C   0  0  0  0  0  0  0  0  0  0  0  0
    1.8165   -6.1621    0.0000 F   0  0  0  0  0  0  0  0  0  0  0  0
    0.4829   -8.4729    0.0000 F   0  0  0  0  0  0  0  0  0  0  0  0
    0.0000   -6.6565    0.0000 F   0  0  0  0  0  0  0  0  0  0  0  0
  1  2  2  0  0  0  0
  1  3  1  0  0  0  0
  2  5  1  0  0  0  0
  3  4  2  0  0  0  0
  3 18  1  0  0  0  0
  4  6  1  0  0  0  0
  4  7  1  0  0  0  0
  5  6  2  0  0  0  0
  7  8  2  0  0  0  0
  7  9  1  0  0  0  0
  9 14  1  0  0  0  0
 10 15  2  0  0  0  0
 10 11  1  0  0  0  0
 11 12  2  0  0  0  0
 11 17  1  0  0  0  0
 12 13  1  0  0  0  0
 13 14  2  0  0  0  0
 14 15  1  0  0  0  0
 15 16  1  0  0  0  0
 18 19  1  0  0  0  0
 19 20  2  0  0  0  0
 19 21  1  0  0  0  0
 20 22  1  0  0  0  0
 21 23  2  0  0  0  0
 22 24  2  0  0  0  0
 22 25  1  0  0  0  0
 23 24  1  0  0  0  0
 25 26  1  0  0  0  0
 25 27  1  0  0  0  0
 25 28  1  0  0  0  0
M  END
> <ID>
8460

> <Formula>
C19H11F5N2O2

> <FW>
394.2949

> <DSSTox_CID>
21494

> <DSSTox_RID>
79752

> <DSSTox_GSID>
41494

> <DSSTox_FileID_Sort>
4434

> <TS_ChemName>
Diflufenican

> <TS_ChemName_Synonyms>
Diflufenican (3-Pyridinecarboxamide, N-(2,4-difluorophenyl)-2-[3-(trifluoromethyl)phenoxy]-)

> <TS_CASRN>
83164-33-4

> <CASRN_ChemName_Relationship>
primary

> <TS_Description>
single chemical compound

> <ChemNote>


> <STRUCTURE_Shown>
tested chemical

> <STRUCTURE_Formula>
C19H11F5N2O2

> <STRUCTURE_MW>
394.2949

> <STRUCTURE_ChemType>
defined organic

> <STRUCTURE_DefinedOrganicForm>
parent

> <STRUCTURE_IUPAC>
N-(2,4-difluorophenyl)-2-[3-(trifluoromethyl)phenoxy]pyridine-3-carboxamide

> <STRUCTURE_SMILES>
Fc3ccc(NC(=O)c2cccnc2Oc1cccc(c1)C(F)(F)F)c(F)c3

> <STRUCTURE_SMILES_Desalt>
Fc3ccc(NC(=O)c2cccnc2Oc1cccc(c1)C(F)(F)F)c(F)c3

> <Substance_modify_yyyymmdd>
20080825

$$$$
