832-92-8
ChemmineR-0915142007XD

 16 15  0  0  0  0  0  0  0  0  1 V2000
    3.4659   -4.6190    0.0000 C    0  0  0  0  0  0  0  0  0  0  0  0
    2.3129   -3.9631    0.0000 C    0  0  0  0  0  0  0  0  0  0  0  0
    4.6259   -3.9631    0.0000 C    0  0  0  0  0  0  0  0  0  0  0  0
    4.6259   -2.6443    0.0000 C    0  0  0  0  0  0  0  0  0  0  0  0
    2.3129   -2.6443    0.0000 C    0  0  0  0  0  0  0  0  0  0  0  0
    3.4659   -1.9884    0.0000 C    0  0  0  0  0  0  0  0  0  0  0  0
    3.4659   -5.9515    0.0000 O    0  0  0  0  0  0  0  0  0  0  0  0
    1.1530   -4.6190    0.0000 O    0  0  0  0  0  0  0  0  0  0  0  0
    5.7513   -4.6535    0.0000 O    0  0  0  0  0  0  0  0  0  0  0  0
    5.7513   -0.6904    0.0000 N    0  0  0  0  0  0  0  0  0  0  0  0
    3.4659   -0.6559    0.0000 C    0  0  0  0  0  0  0  0  0  0  0  0
    4.6259    0.0000    0.0000 C    0  0  0  0  0  0  0  0  0  0  0  0
    4.6259   -6.6143    0.0000 C    0  0  0  0  0  0  0  0  0  0  0  0
    6.9043   -3.9631    0.0000 C    0  0  0  0  0  0  0  0  0  0  0  0
    0.0000   -3.9285    0.0000 C    0  0  0  0  0  0  0  0  0  0  0  0
    1.8296   -6.7248    0.0000 Cl   0  0  0  0  0  0  0  0  0  0  0  0
  1  2  2  0  0  0  0
  1  3  1  0  0  0  0
  1  7  1  0  0  0  0
  2  5  1  0  0  0  0
  2  8  1  0  0  0  0
  3  4  2  0  0  0  0
  3  9  1  0  0  0  0
  4  6  1  0  0  0  0
  5  6  2  0  0  0  0
  6 11  1  0  0  0  0
  7 13  1  0  0  0  0
  8 15  1  0  0  0  0
  9 14  1  0  0  0  0
 10 12  1  0  0  0  0
 11 12  1  0  0  0  0
M  END
> <ID>
13868

> <Formula>
C11H18ClNO3

> <FW>
247.7185 (211.2576+36.4609)

> <DSSTox_CID>
28805

> <DSSTox_RID>
83074

> <DSSTox_GSID>
48879

> <DSSTox_FileID_Sort>
7751

> <TS_ChemName>
Mescaline hydrochloride

> <TS_ChemName_Synonyms>


> <TS_CASRN>
832-92-8

> <CASRN_ChemName_Relationship>
primary

> <TS_Description>
single chemical compound

> <ChemNote>


> <STRUCTURE_Shown>
tested chemical

> <STRUCTURE_Formula>
C11H18ClNO3

> <STRUCTURE_MW>
247.7185

> <STRUCTURE_ChemType>
defined organic

> <STRUCTURE_DefinedOrganicForm>
complex

> <STRUCTURE_IUPAC>
2-(3,4,5-trimethoxyphenyl)ethanamine hydrochloride (1:1)

> <STRUCTURE_SMILES>
Cl.COc1c(cc(cc1OC)CCN)OC

> <STRUCTURE_SMILES_Desalt>
COc1c(cc(cc1OC)CCN)OC

> <Substance_modify_yyyymmdd>
20111204

$$$$
