83275-56-3
ChemmineR-0915142007XD

 27 29  0  0  0  0  0  0  0  0  1 V2000
    3.7430   -4.2615    0.0000 C   0  0  0  0  0  0  0  0  0  0  0  0
    2.5670   -4.9443    0.0000 O   0  0  0  0  0  0  0  0  0  0  0  0
    4.8937   -4.9443    0.0000 C   0  0  0  0  0  0  0  0  0  0  0  0
    4.8937   -6.2468    0.0000 N   0  0  0  0  0  0  0  0  0  0  0  0
    6.0192   -6.9170    0.0000 C   0  0  0  0  0  0  0  0  0  0  0  0
    3.7430   -6.9170    0.0000 C   0  0  0  0  0  0  0  0  0  0  0  0
    5.2225   -1.0622    0.0000 C   0  0  0  0  0  0  0  0  0  0  0  0
    4.9317   -2.3647    0.0000 C   0  0  0  0  0  0  0  0  0  0  0  0
    5.9054   -3.2498    0.0000 C   0  0  0  0  0  0  0  0  0  0  0  0
    7.2205   -2.8705    0.0000 C   0  0  0  0  0  0  0  0  0  0  0  0
    7.4734   -1.5680    0.0000 C   0  0  0  0  0  0  0  0  0  0  0  0
    6.4997   -0.6702    0.0000 C   0  0  0  0  0  0  0  0  0  0  0  0
    0.0000   -1.5680    0.0000 C   0  0  0  0  0  0  0  0  0  0  0  0
    0.2908   -2.8705    0.0000 C   0  0  0  0  0  0  0  0  0  0  0  0
    1.5554   -3.2498    0.0000 C   0  0  0  0  0  0  0  0  0  0  0  0
    2.5291   -2.3647    0.0000 C   0  0  0  0  0  0  0  0  0  0  0  0
    2.2256   -1.0622    0.0000 C   0  0  0  0  0  0  0  0  0  0  0  0
    0.9610   -0.6702    0.0000 C   0  0  0  0  0  0  0  0  0  0  0  0
    3.0728    0.0000    0.0000 C   0  0  0  0  0  0  0  0  0  0  0  0
    3.7430   -2.9211    0.0000 N   0  0  0  0  0  0  0  0  0  0  0  0
    4.3753    0.0000    0.0000 C   0  0  0  0  0  0  0  0  0  0  0  0
    8.1815   -3.7683    0.0000 N   0  0  0  0  0  0  0  0  0  0  0  0
    9.4460   -3.3763    0.0000 C   0  0  0  0  0  0  0  0  0  0  0  0
    9.7495   -2.0738    0.0000 O   0  0  0  0  0  0  0  0  0  0  0  0
   10.4197   -4.2615    0.0000 O   0  0  0  0  0  0  0  0  0  0  0  0
   11.6843   -3.8695    0.0000 C   0  0  0  0  0  0  0  0  0  0  0  0
   12.6453   -4.8179    0.0000 C   0  0  0  0  0  0  0  0  0  0  0  0
  1  3  1  0  0  0  0
  1  2  2  0  0  0  0
  1 20  1  0  0  0  0
  3  4  1  0  0  0  0
  4  5  1  0  0  0  0
  4  6  1  0  0  0  0
  7  8  2  0  0  0  0
  7 21  1  0  0  0  0
  7 12  1  0  0  0  0
  8 20  1  0  0  0  0
  8  9  1  0  0  0  0
  9 10  2  0  0  0  0
 10 11  1  0  0  0  0
 10 22  1  0  0  0  0
 11 12  2  0  0  0  0
 13 14  2  0  0  0  0
 13 18  1  0  0  0  0
 14 15  1  0  0  0  0
 15 16  2  0  0  0  0
 16 20  1  0  0  0  0
 16 17  1  0  0  0  0
 17 18  2  0  0  0  0
 17 19  1  0  0  0  0
 19 21  1  0  0  0  0
 22 23  1  0  0  0  0
 23 24  2  0  0  0  0
 23 25  1  0  0  0  0
 25 26  1  0  0  0  0
 26 27  1  0  0  0  0
M  END
> <ID>
13706

> <Formula>
C21H25N3O3

> <FW>
367.4415

> <DSSTox_CID>
28640

> <DSSTox_RID>
82910

> <DSSTox_GSID>
48714

> <DSSTox_FileID_Sort>
7587

> <TS_ChemName>
Tiracizine

> <TS_ChemName_Synonyms>


> <TS_CASRN>
83275-56-3

> <CASRN_ChemName_Relationship>
primary

> <TS_Description>
single chemical compound

> <ChemNote>


> <STRUCTURE_Shown>
tested chemical

> <STRUCTURE_Formula>
C21H25N3O3

> <STRUCTURE_MW>
367.4415

> <STRUCTURE_ChemType>
defined organic

> <STRUCTURE_DefinedOrganicForm>
parent

> <STRUCTURE_IUPAC>
ethyl [5-(N,N-dimethylglycyl)-10,11-dihydro-5H-dibenzo[b,f]azepin-3-yl]carbamate

> <STRUCTURE_SMILES>
CN(C)CC(=O)N2c3ccccc3CCc1ccc(NC(=O)OCC)cc12

> <STRUCTURE_SMILES_Desalt>
CN(C)CC(=O)N2c3ccccc3CCc1ccc(NC(=O)OCC)cc12

> <Substance_modify_yyyymmdd>
20111204

$$$$
