83314-01-6
ChemmineR-0915142007XD

 69 72  0  0  1  0  0  0  0  0  1 V2000
    3.3830   -2.6048    0.0000 C   0  0  0  0  0  0  0  0  0  0  0  0
    3.3830   -3.9072    0.0000 O   0  0  0  0  0  0  0  0  0  0  0  0
    2.2554   -1.9377    0.0000 O   0  0  0  0  0  0  0  0  0  0  0  0
    1.1277   -2.6048    0.0000 C   0  0  0  0  0  0  0  0  0  0  0  0
    4.5266   -1.9377    0.0000 C   0  0  0  0  0  0  0  0  0  0  0  0
    5.6384   -2.6048    0.0000 C   0  0  0  0  0  0  0  0  0  0  0  0
    5.6384   -3.9072    0.0000 C   0  0  0  0  0  0  0  0  0  0  0  0
    6.7978   -1.9377    0.0000 C   0  0  0  0  0  0  0  0  0  0  0  0
    7.9255   -2.6048    0.0000 C   0  0  0  0  0  0  0  0  0  0  0  0
    6.7978   -4.5742    0.0000 C   0  0  0  0  0  0  0  0  0  0  0  0
    7.9255   -3.9072    0.0000 O   0  0  0  0  0  0  0  0  0  0  0  0
    9.0691   -1.9377    0.0000 C   0  0  0  0  0  0  0  0  0  0  0  0
   10.1968   -2.6048    0.0000 C   0  0  0  0  0  0  0  0  0  0  0  0
   10.1968   -3.9072    0.0000 O   0  0  0  0  0  0  0  0  0  0  0  0
   11.3403   -1.9377    0.0000 C   0  0  0  0  0  0  0  0  0  0  0  0
   12.4680   -2.6048    0.0000 C   0  0  0  0  0  0  0  0  0  0  0  0
   11.3403   -4.5742    0.0000 C   0  0  0  0  0  0  0  0  0  0  0  0
   12.4680   -3.9072    0.0000 C   0  0  0  0  0  0  0  0  0  0  0  0
   13.5957   -1.9377    0.0000 O   0  0  0  0  0  0  0  0  0  0  0  0
   14.7392   -2.6048    0.0000 C   0  0  0  0  0  0  0  0  0  0  0  0
   14.7392   -3.9072    0.0000 O   0  0  0  0  0  0  0  0  0  0  0  0
   15.8828   -1.9377    0.0000 C   0  0  0  0  0  0  0  0  0  0  0  0
   11.9915   -0.8100    0.0000 C   0  0  0  0  0  0  0  0  0  0  0  0
   10.6891   -0.8100    0.0000 C   0  0  0  0  0  0  0  0  0  0  0  0
   10.1968    0.0000    0.0000 O   0  0  0  0  0  0  0  0  0  0  0  0
    7.9255   -1.3024    0.0000 H   0  0  0  0  0  0  0  0  0  0  0  0
    7.9255   -6.5278    0.0000 C   0  0  0  0  0  0  0  0  0  0  0  0
    6.7978   -5.8608    0.0000 C   0  0  0  0  0  0  0  0  0  0  0  0
   10.1968   -7.8620    0.0000 O   0  0  0  0  0  0  0  0  0  0  0  0
    9.0691   -8.5132    0.0000 C   0  0  0  0  0  0  0  0  0  0  0  0
    7.9255   -7.8620    0.0000 C   0  0  0  0  0  0  0  0  0  0  0  0
   12.4680   -7.8620    0.0000 C   0  0  0  0  0  0  0  0  0  0  0  0
   11.3403   -8.5132    0.0000 C   0  0  0  0  0  0  0  0  0  0  0  0
   13.5957   -5.8608    0.0000 C   0  0  0  0  0  0  0  0  0  0  0  0
   14.7392   -6.5278    0.0000 C   0  0  0  0  0  0  0  0  0  0  0  0
   13.5957   -8.5132    0.0000 C   0  0  0  0  0  0  0  0  0  0  0  0
   14.7392   -7.8620    0.0000 O   0  0  0  0  0  0  0  0  0  0  0  0
    6.8455   -3.2560    0.0000 H   0  0  0  0  0  0  0  0  0  0  0  0
    6.5914   -7.8620    0.0000 C   0  0  0  0  0  0  0  0  0  0  0  0
    7.2743   -8.9897    0.0000 C   0  0  0  0  0  0  0  0  0  0  0  0
   12.4680   -6.5278    0.0000 C   0  0  0  0  0  0  0  0  0  0  0  0
   11.3403   -5.8608    0.0000 C   0  0  0  0  0  0  0  0  0  0  0  0
   11.2609   -3.2560    0.0000 H   0  0  0  0  0  0  0  0  0  0  0  0
   11.8009   -7.6714    0.0000 O   0  0  0  0  0  0  0  0  0  0  0  0
   15.8828   -5.8608    0.0000 O   0  0  0  0  0  0  0  0  0  0  0  0
    9.0691   -7.1949    0.0000 O   0  0  0  0  0  0  0  0  0  0  0  0
   11.3403   -9.7997    0.0000 C   0  0  0  0  0  0  0  0  0  0  0  0
   10.1968  -10.4668    0.0000 C   0  0  0  0  0  0  0  0  0  0  0  0
    9.0691   -9.7997    0.0000 C   0  0  0  0  0  0  0  0  0  0  0  0
   12.2615   -9.4185    0.0000 H   0  0  0  0  0  0  0  0  0  0  0  0
    7.9414  -10.4668    0.0000 O   0  0  0  0  0  0  0  0  0  0  0  0
    7.9414  -11.7850    0.0000 C   0  0  0  0  0  0  0  0  0  0  0  0
    6.8137  -12.4362    0.0000 C   0  0  0  0  0  0  0  0  0  0  0  0
    9.0691  -12.4521    0.0000 O   0  0  0  0  0  0  0  0  0  0  0  0
    5.6543  -11.7850    0.0000 C   0  0  0  0  0  0  0  0  0  0  0  0
    4.5425  -12.4362    0.0000 C   0  0  0  0  0  0  0  0  0  0  0  0
    3.3989  -11.7850    0.0000 C   0  0  0  0  0  0  0  0  0  0  0  0
    2.2712  -12.4362    0.0000 C   0  0  0  0  0  0  0  0  0  0  0  0
    1.1277  -11.7850    0.0000 C   0  0  0  0  0  0  0  0  0  0  0  0
    0.0000  -12.4362    0.0000 C   0  0  0  0  0  0  0  0  0  0  0  0
   10.1968  -11.7850    0.0000 C   0  0  0  0  0  0  0  0  0  0  0  0
   11.3403  -12.4362    0.0000 C   0  0  0  0  0  0  0  0  0  0  0  0
   11.3403  -13.7545    0.0000 O   0  0  0  0  0  0  0  0  0  0  0  0
   12.4839  -11.7374    0.0000 O   0  0  0  0  0  0  0  0  0  0  0  0
   13.6116  -12.4203    0.0000 C   0  0  0  0  0  0  0  0  0  0  0  0
   13.5957   -9.7997    0.0000 C   0  0  0  0  0  0  0  0  0  0  0  0
   14.7392  -10.4668    0.0000 O   0  0  0  0  0  0  0  0  0  0  0  0
   12.4680  -10.4668    0.0000 C   0  0  0  0  0  0  0  0  0  0  0  0
   13.5639   -7.1949    0.0000 H   0  0  0  0  0  0  0  0  0  0  0  0
  1  3  1  0  0  0  0
  1  5  1  0  0  0  0
  1  2  2  0  0  0  0
  3  4  1  0  0  0  0
  5  6  2  0  0  0  0
  6  8  1  0  0  0  0
  6  7  1  0  0  0  0
  7 10  1  0  0  0  0
  8  9  1  0  0  0  0
  9 12  1  0  0  0  0
  9 11  1  0  0  0  0
  9 26  1  6  0  0  0
 10 11  1  0  0  0  0
 10 28  1  0  0  0  0
 10 38  1  6  0  0  0
 12 13  1  0  0  0  0
 13 15  1  0  0  0  0
 13 14  1  0  0  0  0
 13 25  1  6  0  0  0
 14 17  1  0  0  0  0
 15 16  1  0  0  0  0
 15 23  1  0  0  0  0
 15 24  1  0  0  0  0
 16 19  1  1  0  0  0
 16 18  1  0  0  0  0
 17 42  1  0  0  0  0
 17 18  1  0  0  0  0
 17 43  1  6  0  0  0
 19 20  1  0  0  0  0
 20 22  1  0  0  0  0
 20 21  2  0  0  0  0
 27 28  2  0  0  0  0
 27 31  1  0  0  0  0
 29 33  1  0  0  0  0
 29 30  1  0  0  0  0
 30 31  1  0  0  0  0
 30 46  1  1  0  0  0
 30 49  1  0  0  0  0
 31 39  1  0  0  0  0
 31 40  1  0  0  0  0
 32 33  1  0  0  0  0
 32 36  1  0  0  0  0
 33 47  1  0  0  0  0
 33 50  1  1  0  0  0
 34 35  1  0  0  0  0
 34 41  1  0  0  0  0
 35 37  1  0  0  0  0
 35 45  2  0  0  0  0
 36 37  1  0  0  0  0
 36 66  1  0  0  0  0
 36 69  1  6  0  0  0
 41 42  1  0  0  0  0
 41 44  1  6  0  0  0
 47 48  1  0  0  0  0
 48 49  1  0  0  0  0
 48 61  2  0  0  0  0
 49 51  1  6  0  0  0
 51 52  1  0  0  0  0
 52 53  1  0  0  0  0
 52 54  2  0  0  0  0
 53 55  2  0  0  0  0
 55 56  1  0  0  0  0
 56 57  2  0  0  0  0
 57 58  1  0  0  0  0
 58 59  1  0  0  0  0
 59 60  1  0  0  0  0
 61 62  1  0  0  0  0
 62 63  2  0  0  0  0
 62 64  1  0  0  0  0
 64 65  1  0  0  0  0
 66 67  1  6  0  0  0
 66 68  1  0  0  0  0
M  END
> <ID>
12044

> <Formula>
C47H68O17

> <FW>
905.0326

> <DSSTox_CID>
26876

> <DSSTox_RID>
81981

> <DSSTox_GSID>
46876

> <DSSTox_FileID_Sort>
6662

> <TS_ChemName>
Bryostatin 1

> <TS_ChemName_Synonyms>


> <TS_CASRN>
83314-01-6

> <CASRN_ChemName_Relationship>
primary

> <TS_Description>
single chemical compound

> <ChemNote>
stereochem

> <STRUCTURE_Shown>
tested chemical

> <STRUCTURE_Formula>
C47H68O17

> <STRUCTURE_MW>
905.0326

> <STRUCTURE_ChemType>
defined organic

> <STRUCTURE_DefinedOrganicForm>
parent

> <STRUCTURE_IUPAC>
(1S,3S,5Z,7R,8E,11S,12S,13E,15S,17R,21R,23R,25S)-25-(acetyloxy)-1,11,21-trihydroxy-17-[(1R)-1-hydroxyethyl]-5,13-bis(2-methoxy-2-oxoethylidene)-10,10,26,26-tetramethyl-19-oxo-18,27,28,29-tetraoxatetracyclo[21.3.1.1~3,7~.1~11,15~]nonacos-8-en-12-yl (2E,4E)

> <STRUCTURE_SMILES>
O=C(OC)\C=C3\C[C@H]4C[C@]1(O)O[C@@H](C[C@H](OC(C)=O)C1(C)C)C[C@@H](O)CC(=O)O[C@H](C[C@@H]2C\C(=C/C(=O)OC)[C@H](OC(=O)\C=C\C=C\CCC)[C@@](O)(O2)C(C)(C)C=C[C@@H](C3)O4)[C@@H](C)O

> <STRUCTURE_SMILES_Desalt>
O=C(OC)\C=C3\C[C@H]4C[C@]1(O)O[C@@H](C[C@H](OC(C)=O)C1(C)C)C[C@@H](O)CC(=O)O[C@H](C[C@@H]2C\C(=C/C(=O)OC)[C@H](OC(=O)\C=C\C=C\CCC)[C@@](O)(O2)C(C)(C)C=C[C@@H](C3)O4)[C@@H](C)O

> <Substance_modify_yyyymmdd>
20110727

$$$$
