834-12-8
ChemmineR-0915142007XD

 15 15  0  0  0  0  0  0  0  0  1 V2000
    0.0000   -4.6386    0.0000 C   0  0  0  0  0  0  0  0  0  0  0  0
    1.1527   -2.6375    0.0000 C   0  0  0  0  0  0  0  0  0  0  0  0
    9.2219   -4.6386    0.0000 C   0  0  0  0  0  0  0  0  0  0  0  0
    3.4582    0.0000    0.0000 C   0  0  0  0  0  0  0  0  0  0  0  0
    1.1527   -3.9839    0.0000 C   0  0  0  0  0  0  0  0  0  0  0  0
    8.0692   -3.9839    0.0000 C   0  0  0  0  0  0  0  0  0  0  0  0
    4.6109   -0.6548    0.0000 S   0  0  0  0  0  0  0  0  0  0  0  0
    6.9164   -4.6386    0.0000 N   0  0  0  0  0  0  0  0  0  0  0  0
    2.3239   -4.6386    0.0000 N   0  0  0  0  0  0  0  0  0  0  0  0
    5.7637   -2.6375    0.0000 N   0  0  0  0  0  0  0  0  0  0  0  0
    5.7637   -3.9839    0.0000 C   0  0  0  0  0  0  0  0  0  0  0  0
    4.6109   -1.9827    0.0000 C   0  0  0  0  0  0  0  0  0  0  0  0
    4.6109   -4.6386    0.0000 N   0  0  0  0  0  0  0  0  0  0  0  0
    3.4582   -2.6375    0.0000 N   0  0  0  0  0  0  0  0  0  0  0  0
    3.4582   -3.9839    0.0000 C   0  0  0  0  0  0  0  0  0  0  0  0
  1  5  1  0  0  0  0
  2  5  1  0  0  0  0
  3  6  1  0  0  0  0
  4  7  1  0  0  0  0
  5  9  1  0  0  0  0
  6  8  1  0  0  0  0
  7 12  1  0  0  0  0
  8 11  1  0  0  0  0
  9 15  1  0  0  0  0
 10 11  2  0  0  0  0
 10 12  1  0  0  0  0
 11 13  1  0  0  0  0
 12 14  2  0  0  0  0
 13 15  2  0  0  0  0
 14 15  1  0  0  0  0
M  END
> <ID>
3395

> <Formula>
C9H17N5S

> <FW>
227.3298

> <DSSTox_CID>
3869

> <DSSTox_RID>
77211

> <DSSTox_GSID>
23869

> <DSSTox_FileID_Sort>
1894

> <TS_ChemName>
Ametryn

> <TS_ChemName_Synonyms>
Ametryn  ((2-Ethylamino)-4-(isopropylamino)-6-(methylthio)-s-triazine)

> <TS_CASRN>
834-12-8

> <CASRN_ChemName_Relationship>
primary

> <TS_Description>
single chemical compound

> <ChemNote>


> <STRUCTURE_Shown>
tested chemical

> <STRUCTURE_Formula>
C9H17N5S

> <STRUCTURE_MW>
227.3298

> <STRUCTURE_ChemType>
defined organic

> <STRUCTURE_DefinedOrganicForm>
parent

> <STRUCTURE_IUPAC>
N-ethyl-6-(methylsulfanyl)-N'-(propan-2-yl)-1,3,5-triazine-2,4-diamine

> <STRUCTURE_SMILES>
CSc1nc(NCC)nc(NC(C)C)n1

> <STRUCTURE_SMILES_Desalt>
CSc1nc(NCC)nc(NC(C)C)n1

> <Substance_modify_yyyymmdd>
20080429

$$$$
