83435-67-0
ChemmineR-0915142007XD

 34 35  0  0  1  0  0  0  0  0  1 V2000
    3.4644   -4.6827    0.0000 C    0  0  0  0  0  0  0  0  0  0  0  0
    4.5558   -3.8832    0.0000 C    0  0  0  0  0  0  0  0  0  0  0  0
    4.1116   -2.6142    0.0000 C    0  0  0  0  0  0  0  0  0  0  0  0
    2.7918   -2.6142    0.0000 C    0  0  0  0  0  0  0  0  0  0  0  0
    2.3858   -3.8832    0.0000 C    0  0  0  0  0  0  0  0  0  0  0  0
    4.7969   -1.4594    0.0000 C    0  0  0  0  0  0  0  0  0  0  0  0
    4.1116   -0.3046    0.0000 C    0  0  0  0  0  0  0  0  0  0  0  0
    2.7918   -0.3046    0.0000 C    0  0  0  0  0  0  0  0  0  0  0  0
    2.1320   -1.4594    0.0000 C    0  0  0  0  0  0  0  0  0  0  0  0
    3.4644   -5.9898    0.0000 N    0  0  0  0  0  0  0  0  0  0  0  0
    4.6192   -6.6497    0.0000 C    0  0  0  0  0  0  0  0  0  0  0  0
    4.6192   -7.9821    0.0000 O    0  0  0  0  0  0  0  0  0  0  0  0
    2.3096   -6.6497    0.0000 C    0  0  0  0  0  0  0  0  0  0  0  0
    1.1548   -5.9898    0.0000 C    0  0  0  0  0  0  0  0  0  0  0  0
    1.1548   -4.6827    0.0000 O    0  0  0  0  0  0  0  0  0  0  0  0
    5.7740   -5.9898    0.0000 C    0  0  0  0  0  0  0  0  0  0  0  0
    5.7740   -4.6827    0.0000 C    0  0  0  0  0  0  0  0  0  0  0  0
    0.0000   -6.6497    0.0000 O    0  0  0  0  0  0  0  0  0  0  0  0
    6.9162   -6.6497    0.0000 N    0  0  0  0  0  0  0  0  0  0  0  0
    8.0710   -5.9898    0.0000 C    0  0  0  0  0  0  0  0  0  0  0  0
    9.2258   -6.6497    0.0000 C    0  0  0  0  0  0  0  0  0  0  0  0
    9.2258   -7.9821    0.0000 O    0  0  0  0  0  0  0  0  0  0  0  0
    8.0710   -4.6827    0.0000 C    0  0  0  0  0  0  0  0  0  0  0  0
    9.2258   -4.0101    0.0000 C    0  0  0  0  0  0  0  0  0  0  0  0
    9.2258   -2.6649    0.0000 C    0  0  0  0  0  0  0  0  0  0  0  0
    8.0710   -2.0051    0.0000 C    0  0  0  0  0  0  0  0  0  0  0  0
    8.0710   -0.6726    0.0000 C    0  0  0  0  0  0  0  0  0  0  0  0
    9.2258    0.0000    0.0000 C    0  0  0  0  0  0  0  0  0  0  0  0
   10.3806   -0.6726    0.0000 C    0  0  0  0  0  0  0  0  0  0  0  0
   10.3806   -2.0051    0.0000 C    0  0  0  0  0  0  0  0  0  0  0  0
   10.3806   -5.9898    0.0000 O    0  0  0  0  0  0  0  0  0  0  0  0
   11.5354   -6.6497    0.0000 C    0  0  0  0  0  0  0  0  0  0  0  0
   12.6902   -5.9898    0.0000 C    0  0  0  0  0  0  0  0  0  0  0  0
   12.6775   -2.9695    0.0000 Cl   0  0  0  0  0  0  0  0  0  0  0  0
  1  2  1  0  0  0  0
  1  5  1  0  0  0  0
  1 10  1  0  0  0  0
  2  3  1  0  0  0  0
  3  6  2  0  0  0  0
  3  4  1  0  0  0  0
  4  9  2  0  0  0  0
  4  5  1  0  0  0  0
  6  7  1  0  0  0  0
  7  8  2  0  0  0  0
  8  9  1  0  0  0  0
 10 13  1  0  0  0  0
 10 11  1  0  0  0  0
 11 12  2  0  0  0  0
 11 16  1  0  0  0  0
 13 14  1  0  0  0  0
 14 15  2  0  0  0  0
 14 18  1  0  0  0  0
 16 17  1  6  0  0  0
 16 19  1  0  0  0  0
 19 20  1  0  0  0  0
 20 21  1  0  0  0  0
 20 23  1  1  0  0  0
 21 22  2  0  0  0  0
 21 31  1  0  0  0  0
 23 24  1  0  0  0  0
 24 25  1  0  0  0  0
 25 30  1  0  0  0  0
 25 26  2  0  0  0  0
 26 27  1  0  0  0  0
 27 28  2  0  0  0  0
 28 29  1  0  0  0  0
 29 30  2  0  0  0  0
 31 32  1  0  0  0  0
 32 33  1  0  0  0  0
M  END
> <ID>
13595

> <Formula>
C26H33ClN2O5

> <FW>
489.0036 (452.5427+36.4609)

> <DSSTox_CID>
28523

> <DSSTox_RID>
82795

> <DSSTox_GSID>
48597

> <DSSTox_FileID_Sort>
7472

> <TS_ChemName>
Delapril hydrochloride

> <TS_ChemName_Synonyms>


> <TS_CASRN>
83435-67-0

> <CASRN_ChemName_Relationship>
primary

> <TS_Description>
single chemical compound

> <ChemNote>
parent [83435-66-9]

> <STRUCTURE_Shown>
tested chemical

> <STRUCTURE_Formula>
C26H33ClN2O5

> <STRUCTURE_MW>
489.0036

> <STRUCTURE_ChemType>
defined organic

> <STRUCTURE_DefinedOrganicForm>
complex

> <STRUCTURE_IUPAC>
N-[(2S)-1-ethoxy-1-oxo-4-phenylbutan-2-yl]-L-alanyl-N-(2,3-dihydro-1H-inden-2-yl)glycine hydrochloride (1:1)

> <STRUCTURE_SMILES>
Cl.O=C(OCC)[C@H](CCc1ccccc1)N[C@@H](C)C(=O)N(CC(=O)O)C2Cc3ccccc3C2

> <STRUCTURE_SMILES_Desalt>
O=C(OCC)[C@H](CCc1ccccc1)N[C@@H](C)C(=O)N(CC(=O)O)C2Cc3ccccc3C2

> <Substance_modify_yyyymmdd>
20111014

$$$$
