83471-41-4
ChemmineR-0915142007XD

 19 20  0  0  0  0  0  0  0  0  1 V2000
    2.8492   -6.2132    0.0000 C   0  0  0  0  0  0  0  0  0  0  0  0
    4.0030   -6.8877    0.0000 C   0  0  0  0  0  0  0  0  0  0  0  0
    5.1569   -6.2132    0.0000 C   0  0  0  0  0  0  0  0  0  0  0  0
    6.3108   -6.8877    0.0000 C   0  0  0  0  0  0  0  0  0  0  0  0
    6.3108   -8.2191    0.0000 C   0  0  0  0  0  0  0  0  0  0  0  0
    5.1569   -8.8759    0.0000 C   0  0  0  0  0  0  0  0  0  0  0  0
    4.0030   -8.2191    0.0000 C   0  0  0  0  0  0  0  0  0  0  0  0
    7.4469   -6.2132    0.0000 C   0  0  0  0  0  0  0  0  0  0  0  0
    5.1569   -4.8906    0.0000 N   0  0  0  0  0  0  0  0  0  0  0  0
    4.0030   -4.2338    0.0000 C   0  0  0  0  0  0  0  0  0  0  0  0
    2.8492   -4.8906    0.0000 O   0  0  0  0  0  0  0  0  0  0  0  0
    4.0030   -2.9024    0.0000 C   0  0  0  0  0  0  0  0  0  0  0  0
    2.8492   -2.2279    0.0000 N   0  0  0  0  0  0  0  0  0  0  0  0
    1.7486   -2.9823    0.0000 C   0  0  0  0  0  0  0  0  0  0  0  0
    0.4793   -2.5829    0.0000 C   0  0  0  0  0  0  0  0  0  0  0  0
    2.9468   -0.8965    0.0000 C   0  0  0  0  0  0  0  0  0  0  0  0
    0.0000   -1.3491    0.0000 C   0  0  0  0  0  0  0  0  0  0  0  0
    1.9705    0.0000    0.0000 C   0  0  0  0  0  0  0  0  0  0  0  0
    0.6568   -0.1953    0.0000 C   0  0  0  0  0  0  0  0  0  0  0  0
  1  2  1  0  0  0  0
  2  3  2  0  0  0  0
  2  7  1  0  0  0  0
  3  4  1  0  0  0  0
  3  9  1  0  0  0  0
  4  5  2  0  0  0  0
  4  8  1  0  0  0  0
  5  6  1  0  0  0  0
  6  7  2  0  0  0  0
  9 10  1  0  0  0  0
 10 11  2  0  0  0  0
 10 12  1  0  0  0  0
 12 13  1  0  0  0  0
 13 14  1  0  0  0  0
 13 16  1  0  0  0  0
 14 15  1  0  0  0  0
 15 17  1  0  0  0  0
 16 18  1  0  0  0  0
 17 19  1  0  0  0  0
 18 19  1  0  0  0  0
M  END
> <ID>
11442

> <Formula>
C16H24N2O

> <FW>
260.3746

> <DSSTox_CID>
26142

> <DSSTox_RID>
81374

> <DSSTox_GSID>
46142

> <DSSTox_FileID_Sort>
6055

> <TS_ChemName>
Pincainide

> <TS_ChemName_Synonyms>


> <TS_CASRN>
83471-41-4

> <CASRN_ChemName_Relationship>
primary

> <TS_Description>
single chemical compound

> <ChemNote>


> <STRUCTURE_Shown>
tested chemical

> <STRUCTURE_Formula>
C16H24N2O

> <STRUCTURE_MW>
260.3746

> <STRUCTURE_ChemType>
defined organic

> <STRUCTURE_DefinedOrganicForm>
parent

> <STRUCTURE_IUPAC>
2-(azepan-1-yl)-N-(2,6-dimethylphenyl)acetamide

> <STRUCTURE_SMILES>
Cc2cccc(C)c2NC(=O)CN1CCCCCC1

> <STRUCTURE_SMILES_Desalt>
Cc2cccc(C)c2NC(=O)CN1CCCCCC1

> <Substance_modify_yyyymmdd>
20110818

$$$$
