83480-29-9
ChemmineR-0915142007XD

 18 18  0  0  1  0  0  0  0  0  1 V2000
    3.4662   -3.1430    0.0000 C   0  0  0  0  0  0  0  0  0  0  0  0
    2.3108   -3.7975    0.0000 C   0  0  0  0  0  0  0  0  0  0  0  0
    1.1554   -3.1430    0.0000 C   0  0  0  0  0  0  0  0  0  0  0  0
    1.1554   -1.8099    0.0000 C   0  0  0  0  0  0  0  0  0  0  0  0
    2.3108   -1.1393    0.0000 C   0  0  0  0  0  0  0  0  0  0  0  0
    3.4662   -1.8099    0.0000 C   0  0  0  0  0  0  0  0  0  0  0  0
    2.3108   -5.1307    0.0000 O   0  0  0  0  0  0  0  0  0  0  0  0
    0.0000   -3.7975    0.0000 O   0  0  0  0  0  0  0  0  0  0  0  0
    0.0000   -1.1393    0.0000 O   0  0  0  0  0  0  0  0  0  0  0  0
    1.6321    0.0000    0.0000 O   0  0  0  0  0  0  0  0  0  0  0  0
    2.9653    0.0000    0.0000 C   0  0  0  0  0  0  0  0  0  0  0  0
    4.3146    0.0000    0.0000 O   0  0  0  0  0  0  0  0  0  0  0  0
    4.6136   -3.7975    0.0000 N   0  0  0  0  0  0  0  0  0  0  0  0
    5.7690   -3.1430    0.0000 C   0  0  0  0  0  0  0  0  0  0  0  0
    5.7690   -1.8099    0.0000 C   0  0  0  0  0  0  0  0  0  0  0  0
    6.9082   -1.1393    0.0000 O   0  0  0  0  0  0  0  0  0  0  0  0
    6.9082   -3.7975    0.0000 C   0  0  0  0  0  0  0  0  0  0  0  0
    8.0798   -3.1430    0.0000 O   0  0  0  0  0  0  0  0  0  0  0  0
  1 13  1  6  0  0  0
  1  2  1  0  0  0  0
  1  6  1  0  0  0  0
  2  3  1  0  0  0  0
  2  7  1  6  0  0  0
  3  4  1  0  0  0  0
  3  8  1  1  0  0  0
  4  5  1  0  0  0  0
  4  9  1  6  0  0  0
  5 10  1  6  0  0  0
  5 11  1  1  0  0  0
  5  6  1  0  0  0  0
 11 12  1  0  0  0  0
 13 14  1  0  0  0  0
 14 15  1  0  0  0  0
 14 17  1  0  0  0  0
 15 16  1  0  0  0  0
 17 18  1  0  0  0  0
M  END
> <ID>
1385

> <Formula>
C10H21NO7

> <FW>
267.2762

> <DSSTox_CID>
1442

> <DSSTox_RID>
76161

> <DSSTox_GSID>
21442

> <DSSTox_FileID_Sort>
845

> <TS_ChemName>
Voglibose

> <TS_ChemName_Synonyms>


> <TS_CASRN>
83480-29-9

> <CASRN_ChemName_Relationship>
primary

> <TS_Description>
single chemical compound

> <ChemNote>
stereochem

> <STRUCTURE_Shown>
tested chemical

> <STRUCTURE_Formula>
C10H21NO7

> <STRUCTURE_MW>
267.2762

> <STRUCTURE_ChemType>
defined organic

> <STRUCTURE_DefinedOrganicForm>
parent

> <STRUCTURE_IUPAC>
(1S,2S,3R,4S,5S)-5-[(1,3-dihydroxypropan-2-yl)amino]-1-(hydroxymethyl)cyclohexane-1,2,3,4-tetrol

> <STRUCTURE_SMILES>
O[C@H]1[C@@H](NC(CO)CO)C[C@](O)(CO)[C@@H](O)[C@@H]1O

> <STRUCTURE_SMILES_Desalt>
O[C@H]1[C@@H](NC(CO)CO)C[C@](O)(CO)[C@@H](O)[C@@H]1O

> <Substance_modify_yyyymmdd>
20080429

$$$$
