83519-04-4
ChemmineR-0915142007XD

 34 33  0  0  0  0  0  0  0  0  2 V2000
    2.4793   -2.6646    0.0000 C   0  0  0  0  0  0  0  0  0  0  0  0
    2.4793   -3.9853    0.0000 C   0  0  0  0  0  0  0  0  0  0  0  0
    3.6378   -1.9927    0.0000 C   0  0  0  0  0  0  0  0  0  0  0  0
    1.3207   -1.9927    0.0000 C   0  0  0  0  0  0  0  0  0  0  0  0
    1.3207   -4.6341    0.0000 O   0  0  0  0  0  0  0  0  0  0  0  0
    4.7731   -2.6646    0.0000 S   0  0  0  0  0  0  0  0  0  0  0  0
    1.3207   -0.6488    0.0000 O   0  0  0  0  0  0  0  0  0  0  0  0
    1.3207   -5.9548    0.0000 P   0  0  0  0  0  0  0  0  0  0  0  0
    5.9085   -1.9927    0.0000 C   0  0  0  0  0  0  0  0  0  0  0  0
    0.1854    0.0000    0.0000 C   0  0  0  0  0  0  0  0  0  0  0  0
    1.3207   -7.2987    0.0000 O   0  0  0  0  0  0  0  0  0  0  0  0
    2.6646   -5.9548    0.0000 O   0  0  0  0  0  0  0  0  0  0  0  0
    0.0000   -5.9548    0.0000 O   0  5  0  0  0  0  0  0  0  0  0  0
    7.0670   -2.6646    0.0000 C   0  0  0  0  0  0  0  0  0  0  0  0
    2.4793   -7.9707    0.0000 C   0  0  0  0  0  0  0  0  0  0  0  0
    8.2256   -1.9927    0.0000 C   0  0  0  0  0  0  0  0  0  0  0  0
    2.4793   -9.2914    0.0000 C   0  0  0  0  0  0  0  0  0  0  0  0
    9.3609   -2.6646    0.0000 C   0  0  0  0  0  0  0  0  0  0  0  0
    3.6378   -9.9402    0.0000 N   0  3  0  0  0  0  0  0  0  0  0  0
   10.5194   -1.9927    0.0000 C   0  0  0  0  0  0  0  0  0  0  0  0
    2.9658  -11.0987    0.0000 C   0  0  0  0  0  0  0  0  0  0  0  0
    4.2866   -8.8048    0.0000 C   0  0  0  0  0  0  0  0  0  0  0  0
    4.7731  -10.6121    0.0000 C   0  0  0  0  0  0  0  0  0  0  0  0
   11.6780   -2.6646    0.0000 C   0  0  0  0  0  0  0  0  0  0  0  0
   12.8133   -1.9927    0.0000 C   0  0  0  0  0  0  0  0  0  0  0  0
   13.9719   -2.6646    0.0000 C   0  0  0  0  0  0  0  0  0  0  0  0
   15.1072   -1.9927    0.0000 C   0  0  0  0  0  0  0  0  0  0  0  0
   16.2658   -2.6646    0.0000 C   0  0  0  0  0  0  0  0  0  0  0  0
   17.4243   -1.9927    0.0000 C   0  0  0  0  0  0  0  0  0  0  0  0
   18.5596   -2.6646    0.0000 C   0  0  0  0  0  0  0  0  0  0  0  0
   19.7182   -1.9927    0.0000 C   0  0  0  0  0  0  0  0  0  0  0  0
   20.8767   -2.6646    0.0000 C   0  0  0  0  0  0  0  0  0  0  0  0
   22.0121   -1.9927    0.0000 C   0  0  0  0  0  0  0  0  0  0  0  0
   23.1706   -2.6646    0.0000 C   0  0  0  0  0  0  0  0  0  0  0  0
  1  2  1  0  0  0  0
  1  3  1  0  0  0  0
  1  4  1  0  0  0  0
  2  5  1  0  0  0  0
  3  6  1  0  0  0  0
  4  7  1  0  0  0  0
  5  8  1  0  0  0  0
  6  9  1  0  0  0  0
  7 10  1  0  0  0  0
  8 11  1  0  0  0  0
  8 12  2  0  0  0  0
  8 13  1  0  0  0  0
  9 14  1  0  0  0  0
 11 15  1  0  0  0  0
 14 16  1  0  0  0  0
 15 17  1  0  0  0  0
 16 18  1  0  0  0  0
 17 19  1  0  0  0  0
 18 20  1  0  0  0  0
 19 21  1  0  0  0  0
 19 22  1  0  0  0  0
 19 23  1  0  0  0  0
 20 24  1  0  0  0  0
 24 25  1  0  0  0  0
 25 26  1  0  0  0  0
 26 27  1  0  0  0  0
 27 28  1  0  0  0  0
 28 29  1  0  0  0  0
 29 30  1  0  0  0  0
 30 31  1  0  0  0  0
 31 32  1  0  0  0  0
 32 33  1  0  0  0  0
 33 34  1  0  0  0  0
M  END
> <ID>
13993

> <Formula>
C26H56NO5PS

> <FW>
525.7653

> <DSSTox_CID>
28934

> <DSSTox_RID>
83200

> <DSSTox_GSID>
49008

> <DSSTox_FileID_Sort>
7876

> <TS_ChemName>
Ilmofosine

> <TS_ChemName_Synonyms>


> <TS_CASRN>
83519-04-4

> <CASRN_ChemName_Relationship>
primary

> <TS_Description>
single chemical compound

> <ChemNote>
ammonium

> <STRUCTURE_Shown>
tested chemical

> <STRUCTURE_Formula>
C26H56NO5PS

> <STRUCTURE_MW>
525.7653

> <STRUCTURE_ChemType>
defined organic

> <STRUCTURE_DefinedOrganicForm>
parent

> <STRUCTURE_IUPAC>
3-(hexadecylsulfanyl)-2-(methoxymethyl)propyl 2-(trimethylammonio)ethyl phosphate

> <STRUCTURE_SMILES>
C[N+](C)(C)CCOP([O-])(=O)OCC(COC)CSCCCCCCCCCCCCCCCC

> <STRUCTURE_SMILES_Desalt>
OP(=O)(OCC(COC)CSCCCCCCCCCCCCCCCC)OCC[N+](C)(C)C

> <Substance_modify_yyyymmdd>
20111204

$$$$
