836-30-6
ChemmineR-0915142007XD

 16 17  0  0  0  0  0  0  0  0  2 V2000
    4.6159   -0.6726    0.0000 C   0  0  0  0  0  0  0  0  0  0  0  0
    4.6159   -1.9993    0.0000 C   0  0  0  0  0  0  0  0  0  0  0  0
    3.4642   -2.6626    0.0000 C   0  0  0  0  0  0  0  0  0  0  0  0
    2.3033   -1.9993    0.0000 C   0  0  0  0  0  0  0  0  0  0  0  0
    2.3033   -0.6726    0.0000 C   0  0  0  0  0  0  0  0  0  0  0  0
    3.4642    0.0000    0.0000 C   0  0  0  0  0  0  0  0  0  0  0  0
    5.7675    0.0000    0.0000 N   0  0  0  0  0  0  0  0  0  0  0  0
    1.1517   -2.6626    0.0000 N   0  3  0  0  0  0  0  0  0  0  0  0
    1.1517   -3.9894    0.0000 O   0  5  0  0  0  0  0  0  0  0  0  0
    0.0000   -1.9993    0.0000 O   0  0  0  0  0  0  0  0  0  0  0  0
    6.9192   -0.6726    0.0000 C   0  0  0  0  0  0  0  0  0  0  0  0
    8.0801    0.0000    0.0000 C   0  0  0  0  0  0  0  0  0  0  0  0
    6.9192   -1.9993    0.0000 C   0  0  0  0  0  0  0  0  0  0  0  0
    9.2133   -0.6726    0.0000 C   0  0  0  0  0  0  0  0  0  0  0  0
    8.0801   -2.6626    0.0000 C   0  0  0  0  0  0  0  0  0  0  0  0
    9.2133   -1.9993    0.0000 C   0  0  0  0  0  0  0  0  0  0  0  0
  1  2  2  0  0  0  0
  1  6  1  0  0  0  0
  1  7  1  0  0  0  0
  2  3  1  0  0  0  0
  3  4  2  0  0  0  0
  4  5  1  0  0  0  0
  4  8  1  0  0  0  0
  5  6  2  0  0  0  0
  7 11  1  0  0  0  0
  8  9  1  0  0  0  0
  8 10  2  0  0  0  0
 11 12  2  0  0  0  0
 11 13  1  0  0  0  0
 12 14  1  0  0  0  0
 13 15  2  0  0  0  0
 14 16  2  0  0  0  0
 15 16  1  0  0  0  0
M  END
> <ID>
5078

> <Formula>
C12H10N2O2

> <FW>
214.22

> <DSSTox_CID>
7323

> <DSSTox_RID>
78408

> <DSSTox_GSID>
27323

> <DSSTox_FileID_Sort>
3091

> <TS_ChemName>
4-Nitro-N-phenylaniline

> <TS_ChemName_Synonyms>
Benzenamine, 4-nitro-N-phenyl-

> <TS_CASRN>
836-30-6

> <CASRN_ChemName_Relationship>
primary

> <TS_Description>
single chemical compound

> <ChemNote>


> <STRUCTURE_Shown>
tested chemical

> <STRUCTURE_Formula>
C12H10N2O2

> <STRUCTURE_MW>
214.22

> <STRUCTURE_ChemType>
defined organic

> <STRUCTURE_DefinedOrganicForm>
parent

> <STRUCTURE_IUPAC>
4-nitro-N-phenylaniline

> <STRUCTURE_SMILES>
[O-][N+](=O)c2ccc(Nc1ccccc1)cc2

> <STRUCTURE_SMILES_Desalt>
[O-][N+](=O)c2ccc(Nc1ccccc1)cc2

> <Substance_modify_yyyymmdd>
20080429

$$$$
