83657-24-3
ChemmineR-0915142007XD

 21 22  0  0  0  0  0  0  0  0  1 V2000
    2.0305   -3.4809    0.0000 N    0  0  0  0  0  0  0  0  0  0  0  0
    1.2632   -4.5570    0.0000 N    0  0  0  0  0  0  0  0  0  0  0  0
    0.0000   -4.1359    0.0000 C    0  0  0  0  0  0  0  0  0  0  0  0
    0.0000   -2.8072    0.0000 N    0  0  0  0  0  0  0  0  0  0  0  0
    1.2632   -2.3861    0.0000 C    0  0  0  0  0  0  0  0  0  0  0  0
    4.0423   -2.3300    0.0000 C    0  0  0  0  0  0  0  0  0  0  0  0
    3.3686   -3.4809    0.0000 C    0  0  0  0  0  0  0  0  0  0  0  0
    5.3711   -2.3300    0.0000 O    0  0  0  0  0  0  0  0  0  0  0  0
    4.0423   -4.6131    0.0000 C    0  0  0  0  0  0  0  0  0  0  0  0
    5.3711   -4.6131    0.0000 C    0  0  0  0  0  0  0  0  0  0  0  0
    6.0261   -5.7734    0.0000 C    0  0  0  0  0  0  0  0  0  0  0  0
    6.0261   -3.4809    0.0000 C    0  0  0  0  0  0  0  0  0  0  0  0
    7.3548   -5.7734    0.0000 C    0  0  0  0  0  0  0  0  0  0  0  0
    7.3548   -3.4809    0.0000 C    0  0  0  0  0  0  0  0  0  0  0  0
    8.0285   -4.6131    0.0000 C    0  0  0  0  0  0  0  0  0  0  0  0
    5.3711   -6.9244    0.0000 Cl   0  0  0  0  0  0  0  0  0  0  0  0
    9.3572   -4.6131    0.0000 Cl   0  0  0  0  0  0  0  0  0  0  0  0
    3.3686   -1.1603    0.0000 C    0  0  0  0  0  0  0  0  0  0  0  0
    2.2083   -1.8247    0.0000 C    0  0  0  0  0  0  0  0  0  0  0  0
    4.5195   -0.4959    0.0000 C    0  0  0  0  0  0  0  0  0  0  0  0
    2.7042    0.0000    0.0000 C    0  0  0  0  0  0  0  0  0  0  0  0
  1  2  1  0  0  0  0
  1  5  1  0  0  0  0
  1  7  1  0  0  0  0
  2  3  2  0  0  0  0
  3  4  1  0  0  0  0
  4  5  2  0  0  0  0
  6  7  1  0  0  0  0
  6  8  1  0  0  0  0
  6 18  1  0  0  0  0
  7  9  2  0  0  0  0
  9 10  1  0  0  0  0
 10 11  2  0  0  0  0
 10 12  1  0  0  0  0
 11 13  1  0  0  0  0
 11 16  1  0  0  0  0
 12 14  2  0  0  0  0
 13 15  2  0  0  0  0
 14 15  1  0  0  0  0
 15 17  1  0  0  0  0
 18 19  1  0  0  0  0
 18 20  1  0  0  0  0
 18 21  1  0  0  0  0
M  END
> <ID>
7719

> <Formula>
C15H17Cl2N3O

> <FW>
326.221

> <DSSTox_CID>
20363

> <DSSTox_RID>
79486

> <DSSTox_GSID>
40363

> <DSSTox_FileID_Sort>
4168

> <TS_ChemName>
Diniconazole

> <TS_ChemName_Synonyms>


> <TS_CASRN>
83657-24-3

> <CASRN_ChemName_Relationship>
primary

> <TS_Description>
single chemical compound

> <ChemNote>


> <STRUCTURE_Shown>
tested chemical

> <STRUCTURE_Formula>
C15H17Cl2N3O

> <STRUCTURE_MW>
326.221

> <STRUCTURE_ChemType>
defined organic

> <STRUCTURE_DefinedOrganicForm>
parent

> <STRUCTURE_IUPAC>
(1E)-1-(2,4-dichlorophenyl)-4,4-dimethyl-2-(1H-1,2,4-triazol-1-yl)pent-1-en-3-ol

> <STRUCTURE_SMILES>
OC(\C(=C/c1ccc(Cl)cc1Cl)n2cncn2)C(C)(C)C

> <STRUCTURE_SMILES_Desalt>
OC(\C(=C/c1ccc(Cl)cc1Cl)n2cncn2)C(C)(C)C

> <Substance_modify_yyyymmdd>
20080429

$$$$
