838-85-7
ChemmineR-0915142007XD

 17 18  0  0  0  0  0  0  0  0  1 V2000
    4.7631   -1.1669    0.0000 P   0  0  0  0  0  0  0  0  0  0  0  0
    5.7387   -0.2487    0.0000 O   0  0  0  0  0  0  0  0  0  0  0  0
    5.6813   -2.1424    0.0000 O   0  0  0  0  0  0  0  0  0  0  0  0
    3.8067   -2.0755    0.0000 O   0  0  0  0  0  0  0  0  0  0  0  0
    3.8736   -0.1913    0.0000 O   0  0  0  0  0  0  0  0  0  0  0  0
    8.6558   -0.2678    0.0000 C   0  0  0  0  0  0  0  0  0  0  0  0
    9.5645   -1.2243    0.0000 C   0  0  0  0  0  0  0  0  0  0  0  0
    9.1628   -2.5059    0.0000 C   0  0  0  0  0  0  0  0  0  0  0  0
    7.8811   -2.8120    0.0000 C   0  0  0  0  0  0  0  0  0  0  0  0
    6.9725   -1.8364    0.0000 C   0  0  0  0  0  0  0  0  0  0  0  0
    7.3551   -0.5547    0.0000 C   0  0  0  0  0  0  0  0  0  0  0  0
    0.2869   -2.1998    0.0000 C   0  0  0  0  0  0  0  0  0  0  0  0
    0.0000   -0.9086    0.0000 C   0  0  0  0  0  0  0  0  0  0  0  0
    0.9564    0.0000    0.0000 C   0  0  0  0  0  0  0  0  0  0  0  0
    2.2381   -0.3826    0.0000 C   0  0  0  0  0  0  0  0  0  0  0  0
    2.5250   -1.6738    0.0000 C   0  0  0  0  0  0  0  0  0  0  0  0
    1.5686   -2.5920    0.0000 C   0  0  0  0  0  0  0  0  0  0  0  0
  1  2  2  0  0  0  0
  1  3  1  0  0  0  0
  1  4  1  0  0  0  0
  1  5  1  0  0  0  0
  3 10  1  0  0  0  0
  4 16  1  0  0  0  0
  6 11  2  0  0  0  0
  6  7  1  0  0  0  0
  7  8  2  0  0  0  0
  8  9  1  0  0  0  0
  9 10  2  0  0  0  0
 10 11  1  0  0  0  0
 12 17  2  0  0  0  0
 12 13  1  0  0  0  0
 13 14  2  0  0  0  0
 14 15  1  0  0  0  0
 15 16  2  0  0  0  0
 16 17  1  0  0  0  0
M  END
> <ID>
13269

> <Formula>
C12H11O4P

> <FW>
250.1871

> <DSSTox_CID>
28182

> <DSSTox_RID>
82741

> <DSSTox_GSID>
48207

> <DSSTox_FileID_Sort>
7418

> <TS_ChemName>
Diphenyl phosphate

> <TS_ChemName_Synonyms>


> <TS_CASRN>
838-85-7

> <CASRN_ChemName_Relationship>
primary

> <TS_Description>
single chemical compound

> <ChemNote>


> <STRUCTURE_Shown>
tested chemical

> <STRUCTURE_Formula>
C12H11O4P

> <STRUCTURE_MW>
250.1871

> <STRUCTURE_ChemType>
defined organic

> <STRUCTURE_DefinedOrganicForm>
parent

> <STRUCTURE_IUPAC>
diphenyl hydrogen phosphate

> <STRUCTURE_SMILES>
OP(=O)(Oc1ccccc1)Oc2ccccc2

> <STRUCTURE_SMILES_Desalt>
OP(=O)(Oc1ccccc1)Oc2ccccc2

> <Substance_modify_yyyymmdd>
20110901

$$$$
