83834-59-7
ChemmineR-0915142007XD

 21 21  0  0  0  0  0  0  0  0  1 V2000
    8.0546   -1.3101    0.0000 C   0  0  0  0  0  0  0  0  0  0  0  0
    6.9063   -1.9894    0.0000 C   0  0  0  0  0  0  0  0  0  0  0  0
    5.7418   -1.3101    0.0000 C   0  0  0  0  0  0  0  0  0  0  0  0
    8.0546    0.0000    0.0000 O   0  0  0  0  0  0  0  0  0  0  0  0
    9.2192   -1.9894    0.0000 O   0  0  0  0  0  0  0  0  0  0  0  0
    4.5934   -1.9894    0.0000 C   0  0  0  0  0  0  0  0  0  0  0  0
    3.4612   -1.3101    0.0000 C   0  0  0  0  0  0  0  0  0  0  0  0
    4.5934   -3.2995    0.0000 C   0  0  0  0  0  0  0  0  0  0  0  0
    2.3290   -1.9894    0.0000 C   0  0  0  0  0  0  0  0  0  0  0  0
    3.4612   -3.9626    0.0000 C   0  0  0  0  0  0  0  0  0  0  0  0
    2.3290   -3.2995    0.0000 C   0  0  0  0  0  0  0  0  0  0  0  0
   10.3675   -1.3101    0.0000 C   0  0  0  0  0  0  0  0  0  0  0  0
    1.1645   -3.9626    0.0000 O   0  0  0  0  0  0  0  0  0  0  0  0
    0.0000   -3.2995    0.0000 C   0  0  0  0  0  0  0  0  0  0  0  0
   11.5320   -1.9570    0.0000 C   0  0  0  0  0  0  0  0  0  0  0  0
   12.6804   -1.2777    0.0000 C   0  0  0  0  0  0  0  0  0  0  0  0
   13.8449   -1.9409    0.0000 C   0  0  0  0  0  0  0  0  0  0  0  0
   14.9933   -1.2616    0.0000 C   0  0  0  0  0  0  0  0  0  0  0  0
   16.1740   -1.9085    0.0000 C   0  0  0  0  0  0  0  0  0  0  0  0
   11.5482   -3.2995    0.0000 C   0  0  0  0  0  0  0  0  0  0  0  0
   12.6966   -3.9626    0.0000 C   0  0  0  0  0  0  0  0  0  0  0  0
  1  2  1  0  0  0  0
  1  4  2  0  0  0  0
  1  5  1  0  0  0  0
  2  3  2  0  0  0  0
  3  6  1  0  0  0  0
  5 12  1  0  0  0  0
  6  7  2  0  0  0  0
  6  8  1  0  0  0  0
  7  9  1  0  0  0  0
  8 10  2  0  0  0  0
  9 11  2  0  0  0  0
 10 11  1  0  0  0  0
 11 13  1  0  0  0  0
 12 15  1  0  0  0  0
 13 14  1  0  0  0  0
 15 16  1  0  0  0  0
 15 20  1  0  0  0  0
 16 17  1  0  0  0  0
 17 18  1  0  0  0  0
 18 19  1  0  0  0  0
 20 21  1  0  0  0  0
M  END
> <ID>
13207

> <Formula>
C18H26O3

> <FW>
290.3972

> <DSSTox_CID>
28119

> <DSSTox_RID>
82199

> <DSSTox_GSID>
47205

> <DSSTox_FileID_Sort>
6880

> <TS_ChemName>
2-Ethylhexyl trans-4-methoxycinnamate

> <TS_ChemName_Synonyms>


> <TS_CASRN>
83834-59-7

> <CASRN_ChemName_Relationship>
primary

> <TS_Description>
single chemical compound

> <ChemNote>
stereochem

> <STRUCTURE_Shown>
tested chemical

> <STRUCTURE_Formula>
C18H26O3

> <STRUCTURE_MW>
290.3972

> <STRUCTURE_ChemType>
defined organic

> <STRUCTURE_DefinedOrganicForm>
parent

> <STRUCTURE_IUPAC>
2-ethylhexyl (2E)-3-(4-methoxyphenyl)prop-2-enoate

> <STRUCTURE_SMILES>
COc1ccc(/C=C/C(=O)OCC(CC)CCCC)cc1

> <STRUCTURE_SMILES_Desalt>
COc1ccc(/C=C/C(=O)OCC(CC)CCCC)cc1

> <Substance_modify_yyyymmdd>
20100428

$$$$
