83881-52-1
ChemmineR-0915142007XD

 29 29  0  0  0  0  0  0  0  0  1 V2000
    4.6010   -4.6528    0.0000 N    0  0  0  0  0  0  0  0  0  0  0  0
    4.6010   -5.9792    0.0000 C    0  0  0  0  0  0  0  0  0  0  0  0
    4.6010   -1.9896    0.0000 N    0  0  0  0  0  0  0  0  0  0  0  0
    9.2123   -0.6632    0.0000 C    0  0  0  0  0  0  0  0  0  0  0  0
    3.4507   -6.6528    0.0000 C    0  0  0  0  0  0  0  0  0  0  0  0
    3.4507   -3.9896    0.0000 C    0  0  0  0  0  0  0  0  0  0  0  0
    5.7616   -3.9896    0.0000 C    0  0  0  0  0  0  0  0  0  0  0  0
    9.2123   -1.9896    0.0000 O    0  0  0  0  0  0  0  0  0  0  0  0
    5.7616   -6.6528    0.0000 C    0  0  0  0  0  0  0  0  0  0  0  0
    3.4507   -7.9792    0.0000 C    0  0  0  0  0  0  0  0  0  0  0  0
    2.3005   -5.9792    0.0000 C    0  0  0  0  0  0  0  0  0  0  0  0
    5.7616   -2.6632    0.0000 C    0  0  0  0  0  0  0  0  0  0  0  0
    3.4507   -2.6632    0.0000 C    0  0  0  0  0  0  0  0  0  0  0  0
    1.1502   -7.9792    0.0000 C    0  0  0  0  0  0  0  0  0  0  0  0
   10.3625    0.0000    0.0000 O    0  0  0  0  0  0  0  0  0  0  0  0
    2.3005   -8.6424    0.0000 C    0  0  0  0  0  0  0  0  0  0  0  0
    1.1502   -6.6528    0.0000 C    0  0  0  0  0  0  0  0  0  0  0  0
    0.0000   -8.6424    0.0000 Cl   0  0  0  0  0  0  0  0  0  0  0  0
    4.6010   -0.6632    0.0000 C    0  0  0  0  0  0  0  0  0  0  0  0
    8.0621    0.0000    0.0000 C    0  0  0  0  0  0  0  0  0  0  0  0
    6.9118   -0.6632    0.0000 O    0  0  0  0  0  0  0  0  0  0  0  0
    6.9118   -5.9792    0.0000 C    0  0  0  0  0  0  0  0  0  0  0  0
    5.7616   -7.9792    0.0000 C    0  0  0  0  0  0  0  0  0  0  0  0
    5.7616    0.0000    0.0000 C    0  0  0  0  0  0  0  0  0  0  0  0
    8.0621   -6.6528    0.0000 C    0  0  0  0  0  0  0  0  0  0  0  0
    6.9118   -8.6424    0.0000 C    0  0  0  0  0  0  0  0  0  0  0  0
    8.0621   -7.9792    0.0000 C    0  0  0  0  0  0  0  0  0  0  0  0
    0.5596   -3.0570    0.0000 Cl   0  0  0  0  0  0  0  0  0  0  0  0
    0.5596   -4.5077    0.0000 Cl   0  0  0  0  0  0  0  0  0  0  0  0
  1  2  1  0  0  0  0
  1  6  1  0  0  0  0
  1  7  1  0  0  0  0
  2  5  1  0  0  0  0
  2  9  1  0  0  0  0
  3 12  1  0  0  0  0
  3 19  1  0  0  0  0
  3 13  1  0  0  0  0
  4 20  1  0  0  0  0
  4  8  2  0  0  0  0
  4 15  1  0  0  0  0
  5 10  2  0  0  0  0
  5 11  1  0  0  0  0
  6 13  1  0  0  0  0
  7 12  1  0  0  0  0
  9 22  1  0  0  0  0
  9 23  2  0  0  0  0
 10 16  1  0  0  0  0
 11 17  2  0  0  0  0
 14 17  1  0  0  0  0
 14 18  1  0  0  0  0
 14 16  2  0  0  0  0
 19 24  1  0  0  0  0
 20 21  1  0  0  0  0
 21 24  1  0  0  0  0
 22 25  2  0  0  0  0
 23 26  1  0  0  0  0
 25 27  1  0  0  0  0
 26 27  2  0  0  0  0
M  END
> <ID>
9949

> <Formula>
C21H27Cl3N2O3

> <FW>
461.8097 (388.8878+36.4609+36.4609)

> <DSSTox_CID>
24268

> <DSSTox_RID>
80138

> <DSSTox_GSID>
44268

> <DSSTox_FileID_Sort>
4820

> <TS_ChemName>
Cetirizine dihydrochloride

> <TS_ChemName_Synonyms>
Cetirizine hydrochloride

> <TS_CASRN>
83881-52-1

> <CASRN_ChemName_Relationship>
primary

> <TS_Description>
single chemical compound

> <ChemNote>
parent [83881-51-0]

> <STRUCTURE_Shown>
tested chemical

> <STRUCTURE_Formula>
C21H27Cl3N2O3

> <STRUCTURE_MW>
461.8097

> <STRUCTURE_ChemType>
defined organic

> <STRUCTURE_DefinedOrganicForm>
complex

> <STRUCTURE_IUPAC>
(2-{4-[(4-chlorophenyl)(phenyl)methyl]piperazin-1-yl}ethoxy)acetic acid dihydrochloride

> <STRUCTURE_SMILES>
Cl.Cl.O=C(O)COCCN1CCN(CC1)C(c2ccc(Cl)cc2)c3ccccc3

> <STRUCTURE_SMILES_Desalt>
O=C(O)COCCN1CCN(CC1)C(c2ccc(Cl)cc2)c3ccccc3

> <Substance_modify_yyyymmdd>
20090302

$$$$
