839-90-7
ChemmineR-0915142007XD

 18 18  0  0  0  0  0  0  0  0  1 V2000
    3.4527   -7.3196    0.0000 O   0  0  0  0  0  0  0  0  0  0  0  0
    9.2071   -1.3442    0.0000 O   0  0  0  0  0  0  0  0  0  0  0  0
    0.0000   -1.3442    0.0000 O   0  0  0  0  0  0  0  0  0  0  0  0
    4.6127   -5.3309    0.0000 C   0  0  0  0  0  0  0  0  0  0  0  0
    2.3018   -4.0051    0.0000 O   0  0  0  0  0  0  0  0  0  0  0  0
    6.9053   -4.0051    0.0000 O   0  0  0  0  0  0  0  0  0  0  0  0
    5.7544   -2.0071    0.0000 N   0  0  0  0  0  0  0  0  0  0  0  0
    5.7544   -3.3330    0.0000 C   0  0  0  0  0  0  0  0  0  0  0  0
    4.6127   -1.3442    0.0000 C   0  0  0  0  0  0  0  0  0  0  0  0
    4.6127   -4.0051    0.0000 N   0  0  0  0  0  0  0  0  0  0  0  0
    3.4527   -2.0071    0.0000 N   0  0  0  0  0  0  0  0  0  0  0  0
    3.4527   -3.3330    0.0000 C   0  0  0  0  0  0  0  0  0  0  0  0
    3.4527   -5.9938    0.0000 C   0  0  0  0  0  0  0  0  0  0  0  0
    6.9053   -1.3442    0.0000 C   0  0  0  0  0  0  0  0  0  0  0  0
    8.0654   -2.0071    0.0000 C   0  0  0  0  0  0  0  0  0  0  0  0
    2.3018   -1.3442    0.0000 C   0  0  0  0  0  0  0  0  0  0  0  0
    1.1417   -2.0071    0.0000 C   0  0  0  0  0  0  0  0  0  0  0  0
    4.6127    0.0000    0.0000 O   0  0  0  0  0  0  0  0  0  0  0  0
  1 13  1  0  0  0  0
  2 15  1  0  0  0  0
  3 17  1  0  0  0  0
  4 10  1  0  0  0  0
  4 13  1  0  0  0  0
  5 12  2  0  0  0  0
  6  8  2  0  0  0  0
  7  8  1  0  0  0  0
  7  9  1  0  0  0  0
  7 14  1  0  0  0  0
  8 10  1  0  0  0  0
  9 11  1  0  0  0  0
  9 18  2  0  0  0  0
 10 12  1  0  0  0  0
 11 12  1  0  0  0  0
 11 16  1  0  0  0  0
 14 15  1  0  0  0  0
 16 17  1  0  0  0  0
M  END
> <ID>
4627

> <Formula>
C9H15N3O6

> <FW>
261.2319

> <DSSTox_CID>
6266

> <DSSTox_RID>
78081

> <DSSTox_GSID>
26266

> <DSSTox_FileID_Sort>
2764

> <TS_ChemName>
Tris(2-hydroxyethyl) isocyanurate

> <TS_ChemName_Synonyms>
Tris(2-hydroxyethyl) isocyanurate (1,3,5-Tris(2-hydroxyethyl)triazine-2,4,6-trione)

> <TS_CASRN>
839-90-7

> <CASRN_ChemName_Relationship>
primary

> <TS_Description>
single chemical compound

> <ChemNote>


> <STRUCTURE_Shown>
tested chemical

> <STRUCTURE_Formula>
C9H15N3O6

> <STRUCTURE_MW>
261.2319

> <STRUCTURE_ChemType>
defined organic

> <STRUCTURE_DefinedOrganicForm>
parent

> <STRUCTURE_IUPAC>
1,3,5-tris(2-hydroxyethyl)-1,3,5-triazinane-2,4,6-trione

> <STRUCTURE_SMILES>
OCCN1C(=O)N(CCO)C(=O)N(CCO)C1=O

> <STRUCTURE_SMILES_Desalt>
OCCN1C(=O)N(CCO)C(=O)N(CCO)C1=O

> <Substance_modify_yyyymmdd>
20080429

$$$$
