83905-01-5
ChemmineR-0915142007XD

 54 56  0  0  1  0  0  0  0  0  1 V2000
    5.6340   -5.3232    0.0000 C   0  0  0  0  0  0  0  0  0  0  0  0
    4.4813   -5.9578    0.0000 C   0  0  0  0  0  0  0  0  0  0  0  0
    8.5482   -5.7765    0.0000 O   0  0  0  0  0  0  0  0  0  0  0  0
    5.6340   -4.0539    0.0000 C   0  0  0  0  0  0  0  0  0  0  0  0
    4.4813   -7.2400    0.0000 C   0  0  0  0  0  0  0  0  0  0  0  0
    3.3934   -5.3232    0.0000 C   0  0  0  0  0  0  0  0  0  0  0  0
    4.4813   -3.4193    0.0000 C   0  0  0  0  0  0  0  0  0  0  0  0
    6.8256   -3.7301    0.0000 C   0  0  0  0  0  0  0  0  0  0  0  0
    5.6340   -2.7458    0.0000 O   0  0  0  0  0  0  0  0  0  0  0  0
    7.0717   -7.5638    0.0000 O   0  0  0  0  0  0  0  0  0  0  0  0
    3.3934   -7.9135    0.0000 C   0  0  0  0  0  0  0  0  0  0  0  0
    4.8051   -2.1370    0.0000 C   0  0  0  0  0  0  0  0  0  0  0  0
    2.2666   -7.2400    0.0000 C   0  0  0  0  0  0  0  0  0  0  0  0
    3.3934   -9.1828    0.0000 C   0  0  0  0  0  0  0  0  0  0  0  0
    4.0280   -1.1657    0.0000 C   0  0  0  0  0  0  0  0  0  0  0  0
    5.9708   -1.4895    0.0000 C   0  0  0  0  0  0  0  0  0  0  0  0
    2.2666   -5.9578    0.0000 O   0  0  0  0  0  0  0  0  0  0  0  0
    1.1398   -7.9135    0.0000 O   0  0  0  0  0  0  0  0  0  0  0  0
    2.7328   -1.1657    0.0000 N   0  0  0  0  0  0  0  0  0  0  0  0
    1.1398   -5.3232    0.0000 C   0  0  0  0  0  0  0  0  0  0  0  0
    1.9687   -2.1370    0.0000 C   0  0  0  0  0  0  0  0  0  0  0  0
    2.1759    0.0000    0.0000 C   0  0  0  0  0  0  0  0  0  0  0  0
    1.1398   -4.0539    0.0000 C   0  0  0  0  0  0  0  0  0  0  0  0
    0.0777   -5.9578    0.0000 C   0  0  0  0  0  0  0  0  0  0  0  0
    2.2666   -3.4193    0.0000 C   0  0  0  0  0  0  0  0  0  0  0  0
    0.9325   -1.4895    0.0000 C   0  0  0  0  0  0  0  0  0  0  0  0
    0.0000   -3.7301    0.0000 C   0  0  0  0  0  0  0  0  0  0  0  0
    1.1398   -2.7458    0.0000 O   0  0  0  0  0  0  0  0  0  0  0  0
    0.0777   -7.2400    0.0000 C   0  0  0  0  0  0  0  0  0  0  0  0
    3.3934   -4.0539    0.0000 O   0  0  0  0  0  0  0  0  0  0  0  0
   11.8509   -3.8726    0.0000 C   0  0  0  0  0  0  0  0  0  0  0  0
   11.8509   -5.1418    0.0000 C   0  0  0  0  0  0  0  0  0  0  0  0
   10.7370   -3.2250    0.0000 C   0  0  0  0  0  0  0  0  0  0  0  0
   10.7370   -5.7765    0.0000 O   0  0  0  0  0  0  0  0  0  0  0  0
    9.6491   -3.8726    0.0000 C   0  0  0  0  0  0  0  0  0  0  0  0
    9.6491   -5.1418    0.0000 C   0  0  0  0  0  0  0  0  0  0  0  0
    8.5482   -3.2250    0.0000 O   0  0  0  0  0  0  0  0  0  0  0  0
   12.9518   -5.7765    0.0000 C   0  0  0  0  0  0  0  0  0  0  0  0
   10.7370   -1.9557    0.0000 N   0  0  0  0  0  0  0  0  0  0  0  0
   11.8509   -1.3211    0.0000 C   0  0  0  0  0  0  0  0  0  0  0  0
    9.6491   -1.3211    0.0000 C   0  0  0  0  0  0  0  0  0  0  0  0
    6.5277   -6.2298    0.0000 H   0  0  0  0  0  0  0  0  0  0  0  0
    5.1159   -8.3280    0.0000 H   0  0  0  0  0  0  0  0  0  0  0  0
   10.3873   -8.1985    0.0000 C   0  0  0  0  0  0  0  0  0  0  0  0
   10.3873   -9.4677    0.0000 C   0  0  0  0  0  0  0  0  0  0  0  0
    9.2605   -7.5638    0.0000 C   0  0  0  0  0  0  0  0  0  0  0  0
    9.2605  -10.1024    0.0000 C   0  0  0  0  0  0  0  0  0  0  0  0
    8.1596   -8.1985    0.0000 C   0  0  0  0  0  0  0  0  0  0  0  0
    8.1596   -9.4677    0.0000 O   0  0  0  0  0  0  0  0  0  0  0  0
   11.4753  -10.1024    0.0000 O   0  0  0  0  0  0  0  0  0  0  0  0
    9.2605  -11.3716    0.0000 C   0  0  0  0  0  0  0  0  0  0  0  0
   11.0219   -7.0976    0.0000 C   0  0  0  0  0  0  0  0  0  0  0  0
   11.6566   -8.1985    0.0000 O   0  0  0  0  0  0  0  0  0  0  0  0
   12.2783   -9.2994    0.0000 C   0  0  0  0  0  0  0  0  0  0  0  0
  1  2  1  0  0  0  0
  1  3  1  0  0  0  0
  1  4  1  0  0  0  0
  1 42  1  1  0  0  0
  2  5  1  0  0  0  0
  2  6  1  6  0  0  0
 36  3  1  1  0  0  0
  4  7  1  0  0  0  0
  4  8  1  6  0  0  0
  4  9  1  1  0  0  0
  5 10  1  0  0  0  0
  5 11  1  0  0  0  0
  5 43  1  1  0  0  0
  7 12  1  0  0  0  0
 48 10  1  1  0  0  0
 11 13  1  0  0  0  0
 11 14  1  1  0  0  0
 12 15  1  0  0  0  0
 12 16  1  6  0  0  0
 13 17  1  0  0  0  0
 13 18  2  0  0  0  0
 15 19  1  0  0  0  0
 17 20  1  0  0  0  0
 19 21  1  0  0  0  0
 19 22  1  0  0  0  0
 20 23  1  0  0  0  0
 20 24  1  6  0  0  0
 21 25  1  0  0  0  0
 21 26  1  1  0  0  0
 23 27  1  6  0  0  0
 23 28  1  1  0  0  0
 23 25  1  0  0  0  0
 24 29  1  0  0  0  0
 25 30  1  1  0  0  0
 31 32  1  0  0  0  0
 31 33  1  0  0  0  0
 32 34  1  0  0  0  0
 32 38  1  1  0  0  0
 33 35  1  0  0  0  0
 33 39  1  1  0  0  0
 34 36  1  0  0  0  0
 35 36  1  0  0  0  0
 35 37  1  6  0  0  0
 39 40  1  0  0  0  0
 39 41  1  0  0  0  0
 44 45  1  0  0  0  0
 44 46  1  0  0  0  0
 44 52  1  0  0  0  0
 44 53  1  1  0  0  0
 45 47  1  0  0  0  0
 45 50  1  1  0  0  0
 46 48  1  0  0  0  0
 47 49  1  0  0  0  0
 47 51  1  6  0  0  0
 48 49  1  0  0  0  0
 53 54  1  0  0  0  0
M  END
> <ID>
6288

> <Formula>
C38H72N2O12

> <FW>
748.9845

> <DSSTox_CID>
10760

> <DSSTox_RID>
78858

> <DSSTox_GSID>
30760

> <DSSTox_FileID_Sort>
3540

> <TS_ChemName>
Azithromycin

> <TS_ChemName_Synonyms>
Azithromycin (AZM)

> <TS_CASRN>
83905-01-5

> <CASRN_ChemName_Relationship>
primary

> <TS_Description>
single chemical compound

> <ChemNote>
stereochem

> <STRUCTURE_Shown>
tested chemical

> <STRUCTURE_Formula>
C38H72N2O12

> <STRUCTURE_MW>
748.9845

> <STRUCTURE_ChemType>
defined organic

> <STRUCTURE_DefinedOrganicForm>
parent

> <STRUCTURE_IUPAC>
(2R,3S,4R,5R,8R,10R,11R,12S,13S,14R)-2-ethyl-3,4,10-trihydroxy-3,5,6,8,10,12,14-heptamethyl-15-oxo-11-{[3,4,6-trideoxy-3-(dimethylamino)-beta-D-xylo-hexopyranosyl]oxy}-1-oxa-6-azacyclopentadecan-13-yl 2,6-dideoxy-3-C-methyl-3-O-methyl-alpha-L-ribo-hexopyr

> <STRUCTURE_SMILES>
CN(C)[C@H]3C[C@@H](C)O[C@@H](O[C@@H]2[C@@H](C)[C@H](O[C@H]1C[C@@](C)(OC)[C@@H](O)[C@H](C)O1)[C@@H](C)C(=O)O[C@H](CC)[C@@](C)(O)[C@H](O)[C@@H](C)N(C)C[C@H](C)C[C@@]2(C)O)[C@@H]3O

> <STRUCTURE_SMILES_Desalt>
CN(C)[C@H]3C[C@@H](C)O[C@@H](O[C@@H]2[C@@H](C)[C@H](O[C@H]1C[C@@](C)(OC)[C@@H](O)[C@H](C)O1)[C@@H](C)C(=O)O[C@H](CC)[C@@](C)(O)[C@H](O)[C@@H](C)N(C)C[C@H](C)C[C@@]2(C)O)[C@@H]3O

> <Substance_modify_yyyymmdd>
20080429

$$$$
