83915-83-7
ChemmineR-0915142007XD

 31 30  0  0  1  0  0  0  0  0  1 V2000
    7.2133   -6.1918    0.0000 O   0  0  0  0  0  0  0  0  0  0  0  0
    4.6785   -6.2044    0.0000 O   0  0  0  0  0  0  0  0  0  0  0  0
   10.4290   -3.8841    0.0000 N   0  0  0  0  0  0  0  0  0  0  0  0
    9.2940   -4.5903    0.0000 C   0  0  0  0  0  0  0  0  0  0  0  0
   11.4631   -4.6533    0.0000 C   0  0  0  0  0  0  0  0  0  0  0  0
    6.9611   -4.7038    0.0000 N   0  0  0  0  0  0  0  0  0  0  0  0
    8.0834   -3.9976    0.0000 C   0  0  0  0  0  0  0  0  0  0  0  0
   11.4631   -5.9901    0.0000 C   0  0  0  0  0  0  0  0  0  0  0  0
    5.7631   -2.7870    0.0000 C   0  0  0  0  0  0  0  0  0  0  0  0
    5.7631   -4.1111    0.0000 C   0  0  0  0  0  0  0  0  0  0  0  0
    9.2940   -5.9144    0.0000 O   0  0  0  0  0  0  0  0  0  0  0  0
   10.3281   -6.6584    0.0000 O   0  0  0  0  0  0  0  0  0  0  0  0
    6.9232   -2.1312    0.0000 O   0  0  0  0  0  0  0  0  0  0  0  0
    4.6029   -4.7794    0.0000 C   0  0  0  0  0  0  0  0  0  0  0  0
   10.8073   -2.5978    0.0000 C   0  0  0  0  0  0  0  0  0  0  0  0
   12.6106   -6.6206    0.0000 O   0  0  0  0  0  0  0  0  0  0  0  0
    4.6029   -2.1312    0.0000 O   0  0  0  0  0  0  0  0  0  0  0  0
    3.4553   -4.1111    0.0000 C   0  0  0  0  0  0  0  0  0  0  0  0
    6.9232   -0.6684    0.0000 N   0  0  0  0  0  0  0  0  0  0  0  0
   12.5602   -3.8715    0.0000 C   0  0  0  0  0  0  0  0  0  0  0  0
    2.3077   -4.7794    0.0000 C   0  0  0  0  0  0  0  0  0  0  0  0
   12.1188   -2.5978    0.0000 C   0  0  0  0  0  0  0  0  0  0  0  0
    8.0834   -2.6735    0.0000 C   0  0  0  0  0  0  0  0  0  0  0  0
    8.0834    0.0000    0.0000 C   0  0  0  0  0  0  0  0  0  0  0  0
    1.1476   -4.1111    0.0000 C   0  0  0  0  0  0  0  0  0  0  0  0
    2.3077   -6.0909    0.0000 C   0  0  0  0  0  0  0  0  0  0  0  0
    9.2310   -2.0177    0.0000 C   0  0  0  0  0  0  0  0  0  0  0  0
    9.2310   -0.6684    0.0000 C   0  0  0  0  0  0  0  0  0  0  0  0
    0.0000   -4.7794    0.0000 C   0  0  0  0  0  0  0  0  0  0  0  0
    1.1476   -6.7845    0.0000 C   0  0  0  0  0  0  0  0  0  0  0  0
    0.0000   -6.0909    0.0000 C   0  0  0  0  0  0  0  0  0  0  0  0
  3  4  1  0  0  0  0
  3  5  1  0  0  0  0
  3 15  1  0  0  0  0
  4  7  1  0  0  0  0
  4 11  2  0  0  0  0
  5  8  1  1  0  0  0
  5 20  1  0  0  0  0
  6  7  1  0  0  0  0
  6 10  1  0  0  0  0
  7 23  1  1  0  0  0
  8 12  2  0  0  0  0
  8 16  1  0  0  0  0
 10  9  1  1  0  0  0
  9 13  2  0  0  0  0
  9 17  1  0  0  0  0
 10 14  1  0  0  0  0
 14 18  1  0  0  0  0
 15 22  1  0  0  0  0
 18 21  1  0  0  0  0
 19 24  1  0  0  0  0
 20 22  1  0  0  0  0
 21 25  2  0  0  0  0
 21 26  1  0  0  0  0
 23 27  1  0  0  0  0
 24 28  1  0  0  0  0
 25 29  1  0  0  0  0
 26 30  2  0  0  0  0
 27 28  1  0  0  0  0
 29 31  2  0  0  0  0
 30 31  1  0  0  0  0
M  END
> <ID>
11061

> <Formula>
C21H35N3O7

> <FW>
441.5185 (18.0153+18.0153+405.4879)

> <DSSTox_CID>
25600

> <DSSTox_RID>
80993

> <DSSTox_GSID>
45600

> <DSSTox_FileID_Sort>
5674

> <TS_ChemName>
Lisinopril dihydrate

> <TS_ChemName_Synonyms>


> <TS_CASRN>
83915-83-7

> <CASRN_ChemName_Relationship>
primary

> <TS_Description>
single chemical compound

> <ChemNote>
stereochem; parent [76547-98-3]

> <STRUCTURE_Shown>
tested chemical

> <STRUCTURE_Formula>
C21H35N3O7

> <STRUCTURE_MW>
441.5185

> <STRUCTURE_ChemType>
defined organic

> <STRUCTURE_DefinedOrganicForm>
complex

> <STRUCTURE_IUPAC>
N~2~-[(1S)-1-carboxy-3-phenylpropyl]-L-lysyl-L-proline dihydrate

> <STRUCTURE_SMILES>
O.O.OC(=O)[C@@H]2CCCN2C(=O)[C@H](CCCCN)N[C@@H](CCc1ccccc1)C(=O)O

> <STRUCTURE_SMILES_Desalt>
OC(=O)[C@@H]2CCCN2C(=O)[C@H](CCCCN)N[C@@H](CCc1ccccc1)C(=O)O

> <Substance_modify_yyyymmdd>
20100107

$$$$
