83991-25-7
ChemmineR-0915142007XD

 25 28  0  0  0  0  0  0  0  0  1 V2000
    2.9538  -11.0631    0.0000 N   0  0  0  0  0  0  0  0  0  0  0  0
    3.7393  -10.0453    0.0000 C   0  0  0  0  0  0  0  0  0  0  0  0
    5.0116  -10.2112    0.0000 C   0  0  0  0  0  0  0  0  0  0  0  0
    5.7970   -9.1934    0.0000 C   0  0  0  0  0  0  0  0  0  0  0  0
    5.2992   -8.0097    0.0000 C   0  0  0  0  0  0  0  0  0  0  0  0
    4.0270   -7.8437    0.0000 C   0  0  0  0  0  0  0  0  0  0  0  0
    3.2525   -8.8615    0.0000 C   0  0  0  0  0  0  0  0  0  0  0  0
    6.0847   -6.9919    0.0000 C   0  0  0  0  0  0  0  0  0  0  0  0
    7.3569   -7.1578    0.0000 O   0  0  0  0  0  0  0  0  0  0  0  0
    5.5868   -5.8081    0.0000 N   0  0  0  0  0  0  0  0  0  0  0  0
    6.4940   -4.9009    0.0000 C   0  0  0  0  0  0  0  0  0  0  0  0
    6.4940   -3.6176    0.0000 C   0  0  0  0  0  0  0  0  0  0  0  0
    4.5801   -3.3632    0.0000 C   0  0  0  0  0  0  0  0  0  0  0  0
    3.3964   -4.9009    0.0000 C   0  0  0  0  0  0  0  0  0  0  0  0
    3.3964   -3.6176    0.0000 C   0  0  0  0  0  0  0  0  0  0  0  0
    4.3035   -2.7105    0.0000 N   0  0  0  0  0  0  0  0  0  0  0  0
    5.5868   -2.7105    0.0000 C   0  0  0  0  0  0  0  0  0  0  0  0
    3.8168   -1.5156    0.0000 C   0  0  0  0  0  0  0  0  0  0  0  0
    2.5445   -1.3497    0.0000 C   0  0  0  0  0  0  0  0  0  0  0  0
    2.0577   -0.1659    0.0000 C   0  0  0  0  0  0  0  0  0  0  0  0
    0.7855    0.0000    0.0000 C   0  0  0  0  0  0  0  0  0  0  0  0
    0.0000   -1.0178    0.0000 C   0  0  0  0  0  0  0  0  0  0  0  0
    0.4868   -2.2016    0.0000 C   0  0  0  0  0  0  0  0  0  0  0  0
    1.7590   -2.3675    0.0000 C   0  0  0  0  0  0  0  0  0  0  0  0
    4.3035   -5.8081    0.0000 C   0  0  0  0  0  0  0  0  0  0  0  0
  1  2  1  0  0  0  0
  2  3  2  0  0  0  0
  2  7  1  0  0  0  0
  3  4  1  0  0  0  0
  4  5  2  0  0  0  0
  5  6  1  0  0  0  0
  5  8  1  0  0  0  0
  6  7  2  0  0  0  0
  8  9  2  0  0  0  0
  8 10  1  0  0  0  0
 10 11  1  0  0  0  0
 10 25  1  0  0  0  0
 11 12  1  0  0  0  0
 12 13  1  0  0  0  0
 12 17  1  0  0  0  0
 13 14  1  0  0  0  0
 14 15  1  0  0  0  0
 14 25  1  0  0  0  0
 15 16  1  0  0  0  0
 16 17  1  0  0  0  0
 16 18  1  0  0  0  0
 18 19  1  0  0  0  0
 19 20  2  0  0  0  0
 19 24  1  0  0  0  0
 20 21  1  0  0  0  0
 21 22  2  0  0  0  0
 22 23  1  0  0  0  0
 23 24  2  0  0  0  0
M  END
> <ID>
16237

> <Formula>
C21H25N3O

> <FW>
335.4427

> <DSSTox_CID>
31628

> <DSSTox_RID>
97512

> <DSSTox_GSID>
57839

> <DSSTox_FileID_Sort>
8579

> <TS_ChemName>
Ambasilide

> <TS_ChemName_Synonyms>


> <TS_CASRN>
83991-25-7

> <CASRN_ChemName_Relationship>
primary

> <TS_Description>
single chemical compound

> <ChemNote>


> <STRUCTURE_Shown>
tested chemical

> <STRUCTURE_Formula>
C21H25N3O

> <STRUCTURE_MW>
335.4427

> <STRUCTURE_ChemType>
defined organic

> <STRUCTURE_DefinedOrganicForm>
parent

> <STRUCTURE_IUPAC>
(4-aminophenyl)(7-benzyl-3,7-diazabicyclo[3.3.1]non-3-yl)methanone

> <STRUCTURE_SMILES>
Nc1ccc(cc1)C(=O)N2CC3CC(C2)CN(C3)Cc4ccccc4

> <STRUCTURE_SMILES_Desalt>
Nc1ccc(cc1)C(=O)N2CC3CC(C2)CN(C3)Cc4ccccc4

> <Substance_modify_yyyymmdd>
20131121

$$$$
