84-02-6
ChemmineR-0915142007XD

 41 42  0  0  0  0  0  0  0  0  1 V2000
    3.4289   -3.9791    0.0000 N    0  0  0  0  0  0  0  0  0  0  0  0
    4.5676   -4.6700    0.0000 C    0  0  0  0  0  0  0  0  0  0  0  0
    3.4289   -6.6532    0.0000 S    0  0  0  0  0  0  0  0  0  0  0  0
    2.2774   -4.6700    0.0000 C    0  0  0  0  0  0  0  0  0  0  0  0
    4.5676   -6.0134    0.0000 C    0  0  0  0  0  0  0  0  0  0  0  0
    2.2774   -6.0134    0.0000 C    0  0  0  0  0  0  0  0  0  0  0  0
    5.7447   -3.9791    0.0000 C    0  0  0  0  0  0  0  0  0  0  0  0
    6.8962   -1.9832    0.0000 N    0  0  0  0  0  0  0  0  0  0  0  0
    9.1865   -0.6525    0.0000 N    0  0  0  0  0  0  0  0  0  0  0  0
    5.7447   -6.6532    0.0000 C    0  0  0  0  0  0  0  0  0  0  0  0
    3.4289   -2.6868    0.0000 C    0  0  0  0  0  0  0  0  0  0  0  0
    6.8962   -4.6700    0.0000 C    0  0  0  0  0  0  0  0  0  0  0  0
    8.0478    0.0000    0.0000 C    0  0  0  0  0  0  0  0  0  0  0  0
    9.1865   -1.9832    0.0000 C    0  0  0  0  0  0  0  0  0  0  0  0
    6.8962   -0.6525    0.0000 C    0  0  0  0  0  0  0  0  0  0  0  0
    8.0478   -2.6868    0.0000 C    0  0  0  0  0  0  0  0  0  0  0  0
    4.5676   -1.9832    0.0000 C    0  0  0  0  0  0  0  0  0  0  0  0
    6.8962   -6.0134    0.0000 C    0  0  0  0  0  0  0  0  0  0  0  0
    8.0478   -3.9791    0.0000 Cl   0  0  0  0  0  0  0  0  0  0  0  0
    5.7447   -2.6868    0.0000 C    0  0  0  0  0  0  0  0  0  0  0  0
    1.0875   -3.9791    0.0000 C    0  0  0  0  0  0  0  0  0  0  0  0
    1.0875   -6.6532    0.0000 C    0  0  0  0  0  0  0  0  0  0  0  0
   10.3764    0.0000    0.0000 C    0  0  0  0  0  0  0  0  0  0  0  0
    0.0000   -4.6700    0.0000 C    0  0  0  0  0  0  0  0  0  0  0  0
    0.0000   -6.0134    0.0000 C    0  0  0  0  0  0  0  0  0  0  0  0
    2.5205  -11.3999    0.0000 C    0  0  0  0  0  0  0  0  0  0  0  0
    2.5205   -8.7770    0.0000 C    0  0  0  0  0  0  0  0  0  0  0  0
    1.3946   -9.4168    0.0000 C    0  0  0  0  0  0  0  0  0  0  0  0
    1.3946  -10.7602    0.0000 C    0  0  0  0  0  0  0  0  0  0  0  0
    3.6720  -10.7602    0.0000 O    0  0  0  0  0  0  0  0  0  0  0  0
    3.6720   -9.4168    0.0000 O    0  0  0  0  0  0  0  0  0  0  0  0
    2.5205  -12.7433    0.0000 O    0  0  0  0  0  0  0  0  0  0  0  0
    2.5205   -7.4336    0.0000 O    0  0  0  0  0  0  0  0  0  0  0  0
    7.1138  -11.4511    0.0000 C    0  0  0  0  0  0  0  0  0  0  0  0
    7.1138   -8.8154    0.0000 C    0  0  0  0  0  0  0  0  0  0  0  0
    5.9750   -9.4679    0.0000 C    0  0  0  0  0  0  0  0  0  0  0  0
    5.9750  -10.8114    0.0000 C    0  0  0  0  0  0  0  0  0  0  0  0
    8.2525  -10.8114    0.0000 O    0  0  0  0  0  0  0  0  0  0  0  0
    8.2525   -9.4679    0.0000 O    0  0  0  0  0  0  0  0  0  0  0  0
    7.1138  -12.7945    0.0000 O    0  0  0  0  0  0  0  0  0  0  0  0
    7.1138   -7.4848    0.0000 O    0  0  0  0  0  0  0  0  0  0  0  0
  1  2  1  0  0  0  0
  1  4  1  0  0  0  0
  1 11  1  0  0  0  0
  2  5  2  0  0  0  0
  2  7  1  0  0  0  0
  3  6  1  0  0  0  0
  3  5  1  0  0  0  0
  4  6  2  0  0  0  0
  4 21  1  0  0  0  0
  5 10  1  0  0  0  0
  6 22  1  0  0  0  0
  7 12  2  0  0  0  0
  8 20  1  0  0  0  0
  8 15  1  0  0  0  0
  8 16  1  0  0  0  0
  9 14  1  0  0  0  0
  9 23  1  0  0  0  0
  9 13  1  0  0  0  0
 10 18  2  0  0  0  0
 11 17  1  0  0  0  0
 12 18  1  0  0  0  0
 12 19  1  0  0  0  0
 13 15  1  0  0  0  0
 14 16  1  0  0  0  0
 17 20  1  0  0  0  0
 21 24  2  0  0  0  0
 22 25  2  0  0  0  0
 24 25  1  0  0  0  0
 26 29  1  0  0  0  0
 26 30  2  0  0  0  0
 26 32  1  0  0  0  0
 27 28  1  0  0  0  0
 27 31  2  0  0  0  0
 27 33  1  0  0  0  0
 28 29  2  0  0  0  0
 34 37  1  0  0  0  0
 34 38  2  0  0  0  0
 34 40  1  0  0  0  0
 35 36  1  0  0  0  0
 35 39  2  0  0  0  0
 35 41  1  0  0  0  0
 36 37  2  0  0  0  0
M  END
> <ID>
13999

> <Formula>
C28H32ClN3O8S

> <FW>
606.0870 (373.9427+116.0722+116.0722)

> <DSSTox_CID>
28941

> <DSSTox_RID>
83206

> <DSSTox_GSID>
49015

> <DSSTox_FileID_Sort>
7882

> <TS_ChemName>
Prochlorperazine dimaleate

> <TS_ChemName_Synonyms>


> <TS_CASRN>
84-02-6

> <CASRN_ChemName_Relationship>
primary

> <TS_Description>
single chemical compound

> <ChemNote>


> <STRUCTURE_Shown>
tested chemical

> <STRUCTURE_Formula>
C28H32ClN3O8S

> <STRUCTURE_MW>
606.087

> <STRUCTURE_ChemType>
defined organic

> <STRUCTURE_DefinedOrganicForm>
complex

> <STRUCTURE_IUPAC>
2-chloro-10-[3-(4-methylpiperazin-1-yl)propyl]-10H-phenothiazine (2Z)-but-2-enedioate (1:2)

> <STRUCTURE_SMILES>
O=C(O)/C=C\C(=O)O.O=C(O)/C=C\C(=O)O.CN1CCN(CC1)CCCN2c4ccccc4Sc3ccc(Cl)cc23

> <STRUCTURE_SMILES_Desalt>
CN1CCN(CC1)CCCN2c4ccccc4Sc3ccc(Cl)cc23

> <Substance_modify_yyyymmdd>
20111204

$$$$
