84-08-2
ChemmineR-0915142007XD

 21 24  0  0  0  0  0  0  0  0  1 V2000
    3.9455    0.0000    0.0000 C   0  0  0  0  0  0  0  0  0  0  0  0
    5.2714    0.0000    0.0000 C   0  0  0  0  0  0  0  0  0  0  0  0
    5.6893   -1.2616    0.0000 C   0  0  0  0  0  0  0  0  0  0  0  0
    4.6125   -2.0491    0.0000 N   0  0  0  0  0  0  0  0  0  0  0  0
    3.5357   -1.2616    0.0000 C   0  0  0  0  0  0  0  0  0  0  0  0
    4.6125   -3.3750    0.0000 C   0  0  0  0  0  0  0  0  0  0  0  0
    3.4554   -4.0420    0.0000 C   0  0  0  0  0  0  0  0  0  0  0  0
    3.4554   -5.3759    0.0000 N   0  0  0  0  0  0  0  0  0  0  0  0
    4.6125   -6.0429    0.0000 C   0  0  0  0  0  0  0  0  0  0  0  0
    5.7616   -5.3759    0.0000 C   0  0  0  0  0  0  0  0  0  0  0  0
    6.9107   -6.0429    0.0000 C   0  0  0  0  0  0  0  0  0  0  0  0
    6.9107   -7.3688    0.0000 C   0  0  0  0  0  0  0  0  0  0  0  0
    5.7616   -8.0357    0.0000 C   0  0  0  0  0  0  0  0  0  0  0  0
    4.6125   -7.3688    0.0000 C   0  0  0  0  0  0  0  0  0  0  0  0
    3.4554   -8.0357    0.0000 S   0  0  0  0  0  0  0  0  0  0  0  0
    2.3063   -7.3688    0.0000 C   0  0  0  0  0  0  0  0  0  0  0  0
    1.1491   -8.0357    0.0000 C   0  0  0  0  0  0  0  0  0  0  0  0
    0.0000   -7.3688    0.0000 C   0  0  0  0  0  0  0  0  0  0  0  0
    0.0000   -6.0429    0.0000 C   0  0  0  0  0  0  0  0  0  0  0  0
    1.1491   -5.3759    0.0000 C   0  0  0  0  0  0  0  0  0  0  0  0
    2.3063   -6.0429    0.0000 C   0  0  0  0  0  0  0  0  0  0  0  0
  1  2  1  0  0  0  0
  1  5  1  0  0  0  0
  2  3  1  0  0  0  0
  3  4  1  0  0  0  0
  4  5  1  0  0  0  0
  4  6  1  0  0  0  0
  6  7  1  0  0  0  0
  7  8  1  0  0  0  0
  8  9  1  0  0  0  0
  8 21  1  0  0  0  0
  9 10  2  0  0  0  0
  9 14  1  0  0  0  0
 10 11  1  0  0  0  0
 11 12  2  0  0  0  0
 12 13  1  0  0  0  0
 13 14  2  0  0  0  0
 14 15  1  0  0  0  0
 15 16  1  0  0  0  0
 16 17  2  0  0  0  0
 16 21  1  0  0  0  0
 17 18  1  0  0  0  0
 18 19  2  0  0  0  0
 19 20  1  0  0  0  0
 20 21  2  0  0  0  0
M  END
> <ID>
11546

> <Formula>
C18H20N2S

> <FW>
296.4298

> <DSSTox_CID>
26252

> <DSSTox_RID>
81479

> <DSSTox_GSID>
46252

> <DSSTox_FileID_Sort>
6160

> <TS_ChemName>
Pyrathiazine

> <TS_ChemName_Synonyms>


> <TS_CASRN>
84-08-2

> <CASRN_ChemName_Relationship>
primary

> <TS_Description>
single chemical compound

> <ChemNote>


> <STRUCTURE_Shown>
tested chemical

> <STRUCTURE_Formula>
C18H20N2S

> <STRUCTURE_MW>
296.4298

> <STRUCTURE_ChemType>
defined organic

> <STRUCTURE_DefinedOrganicForm>
parent

> <STRUCTURE_IUPAC>
10-[2-(pyrrolidin-1-yl)ethyl]-10H-phenothiazine

> <STRUCTURE_SMILES>
c2ccc3Sc4ccccc4N(CCN1CCCC1)c3c2

> <STRUCTURE_SMILES_Desalt>
c2ccc3Sc4ccccc4N(CCN1CCCC1)c3c2

> <Substance_modify_yyyymmdd>
20110817

$$$$
