84-19-5
ChemmineR-0915142007XD

 26 27  0  0  0  0  0  0  0  0  1 V2000
    7.9845   -5.7513    0.0000 C   0  0  0  0  0  0  0  0  0  0  0  0
    7.3115   -4.6041    0.0000 C   0  0  0  0  0  0  0  0  0  0  0  0
    7.9845   -3.4416    0.0000 C   0  0  0  0  0  0  0  0  0  0  0  0
    9.3153   -3.4416    0.0000 C   0  0  0  0  0  0  0  0  0  0  0  0
    9.9730   -4.6041    0.0000 C   0  0  0  0  0  0  0  0  0  0  0  0
   11.3038   -4.6041    0.0000 C   0  0  0  0  0  0  0  0  0  0  0  0
   11.9768   -3.4569    0.0000 C   0  0  0  0  0  0  0  0  0  0  0  0
   13.3075   -3.4569    0.0000 O   0  0  0  0  0  0  0  0  0  0  0  0
   13.9653   -2.2944    0.0000 C   0  0  0  0  0  0  0  0  0  0  0  0
   15.2960   -2.2944    0.0000 C   0  0  0  0  0  0  0  0  0  0  0  0
   13.3075   -1.1472    0.0000 O   0  0  0  0  0  0  0  0  0  0  0  0
   11.3038   -2.2944    0.0000 C   0  0  0  0  0  0  0  0  0  0  0  0
    9.9730   -2.2944    0.0000 C   0  0  0  0  0  0  0  0  0  0  0  0
    7.3115   -2.2944    0.0000 C   0  0  0  0  0  0  0  0  0  0  0  0
    7.9845   -1.1472    0.0000 C   0  0  0  0  0  0  0  0  0  0  0  0
    7.3115    0.0000    0.0000 C   0  0  0  0  0  0  0  0  0  0  0  0
    5.9807   -2.2944    0.0000 C   0  0  0  0  0  0  0  0  0  0  0  0
    5.3230   -1.1472    0.0000 C   0  0  0  0  0  0  0  0  0  0  0  0
    3.9923   -1.1472    0.0000 C   0  0  0  0  0  0  0  0  0  0  0  0
    3.3192   -2.2944    0.0000 C   0  0  0  0  0  0  0  0  0  0  0  0
    1.9885   -2.2944    0.0000 O   0  0  0  0  0  0  0  0  0  0  0  0
    1.3308   -3.4416    0.0000 C   0  0  0  0  0  0  0  0  0  0  0  0
    0.0000   -3.4416    0.0000 C   0  0  0  0  0  0  0  0  0  0  0  0
    1.9885   -4.5888    0.0000 O   0  0  0  0  0  0  0  0  0  0  0  0
    3.9923   -3.4416    0.0000 C   0  0  0  0  0  0  0  0  0  0  0  0
    5.3230   -3.4416    0.0000 C   0  0  0  0  0  0  0  0  0  0  0  0
  1  2  1  0  0  0  0
  2  3  2  0  0  0  0
  3  4  1  0  0  0  0
  3 14  1  0  0  0  0
  4  5  2  0  0  0  0
  4 13  1  0  0  0  0
  5  6  1  0  0  0  0
  6  7  2  0  0  0  0
  7  8  1  0  0  0  0
  7 12  1  0  0  0  0
  8  9  1  0  0  0  0
  9 10  1  0  0  0  0
  9 11  2  0  0  0  0
 12 13  2  0  0  0  0
 14 15  2  0  0  0  0
 14 17  1  0  0  0  0
 15 16  1  0  0  0  0
 17 18  2  0  0  0  0
 17 26  1  0  0  0  0
 18 19  1  0  0  0  0
 19 20  2  0  0  0  0
 20 21  1  0  0  0  0
 20 25  1  0  0  0  0
 21 22  1  0  0  0  0
 22 23  1  0  0  0  0
 22 24  2  0  0  0  0
 25 26  2  0  0  0  0
M  END
> <ID>
16238

> <Formula>
C22H22O4

> <FW>
350.4077

> <DSSTox_CID>
31629

> <DSSTox_RID>
97513

> <DSSTox_GSID>
57840

> <DSSTox_FileID_Sort>
8580

> <TS_ChemName>
Dienestrol diacetate

> <TS_ChemName_Synonyms>


> <TS_CASRN>
84-19-5

> <CASRN_ChemName_Relationship>
primary

> <TS_Description>
single chemical compound

> <ChemNote>


> <STRUCTURE_Shown>
tested chemical

> <STRUCTURE_Formula>
C22H22O4

> <STRUCTURE_MW>
350.4077

> <STRUCTURE_ChemType>
defined organic

> <STRUCTURE_DefinedOrganicForm>
parent

> <STRUCTURE_IUPAC>
(2E,4E)-hexa-2,4-diene-3,4-diyldi-4,1-phenylene diacetate

> <STRUCTURE_SMILES>
O=C(C)Oc1ccc(cc1)/C(=C\C)C(=C\C)\c2ccc(OC(C)=O)cc2

> <STRUCTURE_SMILES_Desalt>
O=C(C)Oc1ccc(cc1)/C(=C\C)C(=C\C)\c2ccc(OC(C)=O)cc2

> <Substance_modify_yyyymmdd>
20131018

$$$$
