84-36-6
ChemmineR-0915142007XD

 51 56  0  0  1  0  0  0  0  0  1 V2000
    6.8123   -3.2604    0.0000 C   0  0  0  0  0  0  0  0  0  0  0  0
    5.6830   -3.9526    0.0000 N   0  0  0  0  0  0  0  0  0  0  0  0
    6.8123   -1.9490    0.0000 C   0  0  0  0  0  0  0  0  0  0  0  0
    9.0709   -7.1766    0.0000 C   0  0  0  0  0  0  0  0  0  0  0  0
    9.0709   -5.8833    0.0000 C   0  0  0  0  0  0  0  0  0  0  0  0
    7.9780   -3.9526    0.0000 C   0  0  0  0  0  0  0  0  0  0  0  0
    9.0527   -3.2604    0.0000 N   0  0  0  0  0  0  0  0  0  0  0  0
    4.5355   -3.2604    0.0000 C   0  0  0  0  0  0  0  0  0  0  0  0
    4.5355   -1.9490    0.0000 C   0  0  0  0  0  0  0  0  0  0  0  0
   10.1274   -5.2640    0.0000 C   0  0  0  0  0  0  0  0  0  0  0  0
   13.5699   -3.2969    0.0000 C   0  0  0  0  0  0  0  0  0  0  0  0
   11.2931   -7.1766    0.0000 C   0  0  0  0  0  0  0  0  0  0  0  0
   13.5699   -7.1766    0.0000 C   0  0  0  0  0  0  0  0  0  0  0  0
    7.9780   -5.2640    0.0000 C   0  0  0  0  0  0  0  0  0  0  0  0
   10.2002   -7.8323    0.0000 C   0  0  0  0  0  0  0  0  0  0  0  0
   13.5699   -5.9198    0.0000 C   0  0  0  0  0  0  0  0  0  0  0  0
    7.9780   -7.9052    0.0000 C   0  0  0  0  0  0  0  0  0  0  0  0
   12.4406   -7.8687    0.0000 O   0  0  0  0  0  0  0  0  0  0  0  0
   14.7357   -3.9708    0.0000 C   0  0  0  0  0  0  0  0  0  0  0  0
   12.4771   -3.9708    0.0000 C   0  0  0  0  0  0  0  0  0  0  0  0
   10.1274   -3.9526    0.0000 C   0  0  0  0  0  0  0  0  0  0  0  0
   14.7539   -1.3297    0.0000 C   0  0  0  0  0  0  0  0  0  0  0  0
   11.2931   -5.8833    0.0000 C   0  0  0  0  0  0  0  0  0  0  0  0
   13.5699   -2.0036    0.0000 O   0  0  0  0  0  0  0  0  0  0  0  0
    7.9052   -1.3115    0.0000 C   0  0  0  0  0  0  0  0  0  0  0  0
   14.7357   -5.2640    0.0000 C   0  0  0  0  0  0  0  0  0  0  0  0
   12.4771   -5.2640    0.0000 C   0  0  0  0  0  0  0  0  0  0  0  0
    3.4061   -3.9526    0.0000 C   0  0  0  0  0  0  0  0  0  0  0  0
    3.4061   -1.3115    0.0000 C   0  0  0  0  0  0  0  0  0  0  0  0
    9.0527   -1.9490    0.0000 C   0  0  0  0  0  0  0  0  0  0  0  0
   14.7357   -7.8687    0.0000 O   0  0  0  0  0  0  0  0  0  0  0  0
   14.7539    0.0000    0.0000 O   0  0  0  0  0  0  0  0  0  0  0  0
    6.8487   -7.2130    0.0000 O   0  0  0  0  0  0  0  0  0  0  0  0
    2.2768   -3.2604    0.0000 C   0  0  0  0  0  0  0  0  0  0  0  0
    2.2768   -1.9490    0.0000 C   0  0  0  0  0  0  0  0  0  0  0  0
   10.2002   -9.1620    0.0000 O   0  0  0  0  0  0  0  0  0  0  0  0
   15.9014   -1.9490    0.0000 O   0  0  0  0  0  0  0  0  0  0  0  0
    7.9780   -9.1984    0.0000 O   0  0  0  0  0  0  0  0  0  0  0  0
   11.3478   -3.2422    0.0000 O   0  0  0  0  0  0  0  0  0  0  0  0
   15.9014   -3.2604    0.0000 O   0  0  0  0  0  0  0  0  0  0  0  0
    1.1475   -3.8797    0.0000 O   0  0  0  0  0  0  0  0  0  0  0  0
   17.0307   -1.2568    0.0000 C   0  0  0  0  0  0  0  0  0  0  0  0
   11.3295   -9.7995    0.0000 C   0  0  0  0  0  0  0  0  0  0  0  0
    6.8123   -9.7995    0.0000 C   0  0  0  0  0  0  0  0  0  0  0  0
   17.0307   -3.9526    0.0000 C   0  0  0  0  0  0  0  0  0  0  0  0
   11.3478   -1.8579    0.0000 C   0  0  0  0  0  0  0  0  0  0  0  0
    0.0000   -3.1876    0.0000 C   0  0  0  0  0  0  0  0  0  0  0  0
   18.2147   -1.8943    0.0000 C   0  0  0  0  0  0  0  0  0  0  0  0
    7.9780   -2.6229    0.0000 H   0  0  0  0  0  0  0  0  0  0  0  0
   10.1274   -6.5937    0.0000 H   0  0  0  0  0  0  0  0  0  0  0  0
    9.0709   -4.5537    0.0000 H   0  0  0  0  0  0  0  0  0  0  0  0
  1  2  1  0  0  0  0
  1  3  2  0  0  0  0
  1  6  1  0  0  0  0
  2  8  1  0  0  0  0
  3  9  1  0  0  0  0
  3 25  1  0  0  0  0
  4  5  1  0  0  0  0
  4 15  1  0  0  0  0
  4 17  1  1  0  0  0
  5 14  1  0  0  0  0
  5 10  1  0  0  0  0
  5 51  1  6  0  0  0
  6  7  1  0  0  0  0
  6 14  1  0  0  0  0
  6 49  1  1  0  0  0
  7 21  1  0  0  0  0
  7 30  1  0  0  0  0
  8 28  1  0  0  0  0
  8  9  2  0  0  0  0
  9 29  1  0  0  0  0
 10 23  1  0  0  0  0
 10 21  1  0  0  0  0
 10 50  1  6  0  0  0
 11 20  2  0  0  0  0
 11 24  1  0  0  0  0
 11 19  1  0  0  0  0
 12 23  1  0  0  0  0
 12 18  1  1  0  0  0
 12 15  1  0  0  0  0
 13 18  1  0  0  0  0
 13 16  1  0  0  0  0
 13 31  2  0  0  0  0
 15 36  1  6  0  0  0
 16 26  1  0  0  0  0
 16 27  2  0  0  0  0
 17 33  2  0  0  0  0
 17 38  1  0  0  0  0
 19 26  2  0  0  0  0
 19 40  1  0  0  0  0
 20 27  1  0  0  0  0
 20 39  1  0  0  0  0
 22 24  1  0  0  0  0
 22 32  2  0  0  0  0
 22 37  1  0  0  0  0
 25 30  1  0  0  0  0
 28 34  2  0  0  0  0
 29 35  2  0  0  0  0
 34 41  1  0  0  0  0
 34 35  1  0  0  0  0
 36 43  1  0  0  0  0
 37 42  1  0  0  0  0
 38 44  1  0  0  0  0
 39 46  1  0  0  0  0
 40 45  1  0  0  0  0
 41 47  1  0  0  0  0
 42 48  1  0  0  0  0
M  END
> <ID>
3245

> <Formula>
C35H42N2O11

> <FW>
666.7148

> <DSSTox_CID>
3629

> <DSSTox_RID>
77119

> <DSSTox_GSID>
23629

> <DSSTox_FileID_Sort>
1802

> <TS_ChemName>
Syrosingopine

> <TS_ChemName_Synonyms>


> <TS_CASRN>
84-36-6

> <CASRN_ChemName_Relationship>
primary

> <TS_Description>
single chemical compound

> <ChemNote>
stereochem

> <STRUCTURE_Shown>
tested chemical

> <STRUCTURE_Formula>
C35H42N2O11

> <STRUCTURE_MW>
666.7148

> <STRUCTURE_ChemType>
defined organic

> <STRUCTURE_DefinedOrganicForm>
parent

> <STRUCTURE_IUPAC>
methyl (3beta,16beta,17alpha,18beta,20alpha)-18-({4-[(ethoxycarbonyl)oxy]-3,5-dimethoxybenzoyl}oxy)-11,17-dimethoxyyohimban-16-carboxylate

> <STRUCTURE_SMILES>
O=C(OCC)Oc1c(OC)cc(cc1OC)C(=O)O[C@@H]3C[C@@H]4CN5CCc2c6ccc(OC)cc6nc2[C@H]5C[C@@H]4[C@@H]([C@H]3OC)C(=O)OC

> <STRUCTURE_SMILES_Desalt>
O=C(OCC)Oc1c(OC)cc(cc1OC)C(=O)O[C@@H]3C[C@@H]4CN5CCc2c6ccc(OC)cc6nc2[C@H]5C[C@@H]4[C@@H]([C@H]3OC)C(=O)OC

> <Substance_modify_yyyymmdd>
20080429

$$$$
