84-51-5
ChemmineR-0915142007XD

 18 20  0  0  0  0  0  0  0  0  1 V2000
    3.4284   -1.3052    0.0000 C   0  0  0  0  0  0  0  0  0  0  0  0
    3.4284   -3.9891    0.0000 C   0  0  0  0  0  0  0  0  0  0  0  0
    2.2611   -3.3273    0.0000 C   0  0  0  0  0  0  0  0  0  0  0  0
    4.5957   -1.9670    0.0000 C   0  0  0  0  0  0  0  0  0  0  0  0
    4.5957   -3.3273    0.0000 C   0  0  0  0  0  0  0  0  0  0  0  0
    2.2611   -1.9670    0.0000 C   0  0  0  0  0  0  0  0  0  0  0  0
    1.1122   -3.9891    0.0000 C   0  0  0  0  0  0  0  0  0  0  0  0
    1.1122   -1.3052    0.0000 C   0  0  0  0  0  0  0  0  0  0  0  0
    5.7906   -3.9891    0.0000 C   0  0  0  0  0  0  0  0  0  0  0  0
    5.7906   -1.3052    0.0000 C   0  0  0  0  0  0  0  0  0  0  0  0
    0.0000   -1.9670    0.0000 C   0  0  0  0  0  0  0  0  0  0  0  0
    6.8568   -3.3273    0.0000 C   0  0  0  0  0  0  0  0  0  0  0  0
    6.8568   -1.9670    0.0000 C   0  0  0  0  0  0  0  0  0  0  0  0
    0.0000   -3.3273    0.0000 C   0  0  0  0  0  0  0  0  0  0  0  0
    3.4284   -5.3035    0.0000 O   0  0  0  0  0  0  0  0  0  0  0  0
    3.4284    0.0000    0.0000 O   0  0  0  0  0  0  0  0  0  0  0  0
    8.0609   -3.9615    0.0000 C   0  0  0  0  0  0  0  0  0  0  0  0
    9.1915   -3.2630    0.0000 C   0  0  0  0  0  0  0  0  0  0  0  0
  1  4  1  0  0  0  0
  1  6  1  0  0  0  0
  1 16  2  0  0  0  0
  2  3  1  0  0  0  0
  2  5  1  0  0  0  0
  2 15  2  0  0  0  0
  3  6  2  0  0  0  0
  3  7  1  0  0  0  0
  4  5  2  0  0  0  0
  4 10  1  0  0  0  0
  5  9  1  0  0  0  0
  6  8  1  0  0  0  0
  7 14  2  0  0  0  0
  8 11  2  0  0  0  0
  9 12  2  0  0  0  0
 10 13  2  0  0  0  0
 11 14  1  0  0  0  0
 12 13  1  0  0  0  0
 12 17  1  0  0  0  0
 17 18  1  0  0  0  0
M  END
> <ID>
10641

> <Formula>
C16H12O2

> <FW>
236.2653

> <DSSTox_CID>
24994

> <DSSTox_RID>
80639

> <DSSTox_GSID>
44994

> <DSSTox_FileID_Sort>
5321

> <TS_ChemName>
2-Ethylanthracene-9,10-dione

> <TS_ChemName_Synonyms>
2-Ethylanthracene-9,10-dione (9,10-Anthracenedione, 2-ethyl-)

> <TS_CASRN>
84-51-5

> <CASRN_ChemName_Relationship>
primary

> <TS_Description>
single chemical compound

> <ChemNote>


> <STRUCTURE_Shown>
tested chemical

> <STRUCTURE_Formula>
C16H12O2

> <STRUCTURE_MW>
236.2653

> <STRUCTURE_ChemType>
defined organic

> <STRUCTURE_DefinedOrganicForm>
parent

> <STRUCTURE_IUPAC>
2-ethylanthracene-9,10-dione

> <STRUCTURE_SMILES>
CCc2ccc3C(=O)c1ccccc1C(=O)c3c2

> <STRUCTURE_SMILES_Desalt>
CCc2ccc3C(=O)c1ccccc1C(=O)c3c2

> <Substance_modify_yyyymmdd>
20091116

$$$$
