84-61-7
ChemmineR-0915142007XD

 24 26  0  0  0  0  0  0  0  0  1 V2000
    3.9936   -4.6073    0.0000 O   0  0  0  0  0  0  0  0  0  0  0  0
    4.6505   -5.7656    0.0000 C   0  0  0  0  0  0  0  0  0  0  0  0
    3.9936   -6.9153    0.0000 O   0  0  0  0  0  0  0  0  0  0  0  0
    2.6624   -6.9153    0.0000 C   0  0  0  0  0  0  0  0  0  0  0  0
    1.9968   -8.0649    0.0000 C   0  0  0  0  0  0  0  0  0  0  0  0
    0.6656   -8.0649    0.0000 C   0  0  0  0  0  0  0  0  0  0  0  0
    0.0000   -6.9153    0.0000 C   0  0  0  0  0  0  0  0  0  0  0  0
    0.6656   -5.7656    0.0000 C   0  0  0  0  0  0  0  0  0  0  0  0
    1.9968   -5.7656    0.0000 C   0  0  0  0  0  0  0  0  0  0  0  0
    5.9817   -5.7656    0.0000 C   0  0  0  0  0  0  0  0  0  0  0  0
    6.6473   -4.6073    0.0000 C   0  0  0  0  0  0  0  0  0  0  0  0
    7.9785   -4.6073    0.0000 C   0  0  0  0  0  0  0  0  0  0  0  0
    8.6441   -5.7656    0.0000 C   0  0  0  0  0  0  0  0  0  0  0  0
    7.9785   -6.9153    0.0000 C   0  0  0  0  0  0  0  0  0  0  0  0
    5.9817   -3.4576    0.0000 C   0  0  0  0  0  0  0  0  0  0  0  0
    6.6473   -2.3080    0.0000 O   0  0  0  0  0  0  0  0  0  0  0  0
    4.6505   -3.4576    0.0000 O   0  0  0  0  0  0  0  0  0  0  0  0
    3.9936   -2.3080    0.0000 C   0  0  0  0  0  0  0  0  0  0  0  0
    2.6624   -2.3080    0.0000 C   0  0  0  0  0  0  0  0  0  0  0  0
    1.9968   -1.1583    0.0000 C   0  0  0  0  0  0  0  0  0  0  0  0
    2.6624    0.0000    0.0000 C   0  0  0  0  0  0  0  0  0  0  0  0
    3.9936    0.0000    0.0000 C   0  0  0  0  0  0  0  0  0  0  0  0
    4.6505   -1.1583    0.0000 C   0  0  0  0  0  0  0  0  0  0  0  0
    6.6473   -6.9153    0.0000 C   0  0  0  0  0  0  0  0  0  0  0  0
  1  2  2  0  0  0  0
  2  3  1  0  0  0  0
  2 10  1  0  0  0  0
  3  4  1  0  0  0  0
  4  5  1  0  0  0  0
  4  9  1  0  0  0  0
  5  6  1  0  0  0  0
  6  7  1  0  0  0  0
  7  8  1  0  0  0  0
  8  9  1  0  0  0  0
 10 11  2  0  0  0  0
 10 24  1  0  0  0  0
 11 12  1  0  0  0  0
 11 15  1  0  0  0  0
 12 13  2  0  0  0  0
 13 14  1  0  0  0  0
 14 24  2  0  0  0  0
 15 16  2  0  0  0  0
 15 17  1  0  0  0  0
 17 18  1  0  0  0  0
 18 19  1  0  0  0  0
 18 23  1  0  0  0  0
 19 20  1  0  0  0  0
 20 21  1  0  0  0  0
 21 22  1  0  0  0  0
 22 23  1  0  0  0  0
M  END
> <ID>
3974

> <Formula>
C20H26O4

> <FW>
330.418

> <DSSTox_CID>
5021

> <DSSTox_RID>
77631

> <DSSTox_GSID>
25021

> <DSSTox_FileID_Sort>
2314

> <TS_ChemName>
Dicyclohexyl phthalate

> <TS_ChemName_Synonyms>
Dicyclohexyl phthalate (1,2-Benzenedicarboxylic acid, dicyclohexyl ester)

> <TS_CASRN>
84-61-7

> <CASRN_ChemName_Relationship>
primary

> <TS_Description>
single chemical compound

> <ChemNote>


> <STRUCTURE_Shown>
tested chemical

> <STRUCTURE_Formula>
C20H26O4

> <STRUCTURE_MW>
330.418

> <STRUCTURE_ChemType>
defined organic

> <STRUCTURE_DefinedOrganicForm>
parent

> <STRUCTURE_IUPAC>
dicyclohexyl benzene-1,2-dicarboxylate

> <STRUCTURE_SMILES>
O=C(OC1CCCCC1)c3ccccc3C(=O)OC2CCCCC2

> <STRUCTURE_SMILES_Desalt>
O=C(OC1CCCCC1)c3ccccc3C(=O)OC2CCCCC2

> <Substance_modify_yyyymmdd>
20080429

$$$$
