84-72-0
ChemmineR-0915142007XD

 20 20  0  0  0  0  0  0  0  0  1 V2000
   11.3151   -1.1495    0.0000 C   0  0  0  0  0  0  0  0  0  0  0  0
    9.9741   -1.1495    0.0000 O   0  0  0  0  0  0  0  0  0  0  0  0
    9.9741   -3.4484    0.0000 O   0  0  0  0  0  0  0  0  0  0  0  0
    3.9872   -2.2989    0.0000 O   0  0  0  0  0  0  0  0  0  0  0  0
    5.3163   -2.2989    0.0000 O   0  0  0  0  0  0  0  0  0  0  0  0
    3.3287   -3.4484    0.0000 C   0  0  0  0  0  0  0  0  0  0  0  0
    5.9868   -3.4484    0.0000 C   0  0  0  0  0  0  0  0  0  0  0  0
    5.9868   -5.7593    0.0000 C   0  0  0  0  0  0  0  0  0  0  0  0
    5.3163   -6.9088    0.0000 C   0  0  0  0  0  0  0  0  0  0  0  0
    5.3163   -4.5979    0.0000 C   0  0  0  0  0  0  0  0  0  0  0  0
    3.9872   -4.5979    0.0000 C   0  0  0  0  0  0  0  0  0  0  0  0
    3.3287   -5.7593    0.0000 C   0  0  0  0  0  0  0  0  0  0  0  0
    3.9872   -6.9088    0.0000 C   0  0  0  0  0  0  0  0  0  0  0  0
    1.9996   -3.4484    0.0000 O   0  0  0  0  0  0  0  0  0  0  0  0
    7.3159   -3.4484    0.0000 O   0  0  0  0  0  0  0  0  0  0  0  0
    1.3291   -2.2989    0.0000 C   0  0  0  0  0  0  0  0  0  0  0  0
    7.9745   -2.2989    0.0000 C   0  0  0  0  0  0  0  0  0  0  0  0
    0.0000   -2.2989    0.0000 C   0  0  0  0  0  0  0  0  0  0  0  0
    9.3155   -2.2989    0.0000 C   0  0  0  0  0  0  0  0  0  0  0  0
   11.9737    0.0000    0.0000 C   0  0  0  0  0  0  0  0  0  0  0  0
  1  2  1  0  0  0  0
  1 20  1  0  0  0  0
  2 19  1  0  0  0  0
  3 19  2  0  0  0  0
  4  6  2  0  0  0  0
  5  7  2  0  0  0  0
  6 11  1  0  0  0  0
  6 14  1  0  0  0  0
  7 10  1  0  0  0  0
  7 15  1  0  0  0  0
  8  9  1  0  0  0  0
  8 10  2  0  0  0  0
  9 13  2  0  0  0  0
 10 11  1  0  0  0  0
 11 12  2  0  0  0  0
 12 13  1  0  0  0  0
 14 16  1  0  0  0  0
 15 17  1  0  0  0  0
 16 18  1  0  0  0  0
 17 19  1  0  0  0  0
M  END
> <ID>
3500

> <Formula>
C14H16O6

> <FW>
280.2732

> <DSSTox_CID>
4100

> <DSSTox_RID>
77287

> <DSSTox_GSID>
24100

> <DSSTox_FileID_Sort>
1970

> <TS_ChemName>
Ethyl phthalyl ethyl glycolate

> <TS_ChemName_Synonyms>
Ethyl phthalyl ethyl glycolate (EPEG)

> <TS_CASRN>
84-72-0

> <CASRN_ChemName_Relationship>
primary

> <TS_Description>
single chemical compound

> <ChemNote>


> <STRUCTURE_Shown>
tested chemical

> <STRUCTURE_Formula>
C14H16O6

> <STRUCTURE_MW>
280.2732

> <STRUCTURE_ChemType>
defined organic

> <STRUCTURE_DefinedOrganicForm>
parent

> <STRUCTURE_IUPAC>
2-ethoxy-2-oxoethyl ethyl benzene-1,2-dicarboxylate

> <STRUCTURE_SMILES>
O=C(OCC)c1ccccc1C(=O)OCC(=O)OCC

> <STRUCTURE_SMILES_Desalt>
O=C(OCC)c1ccccc1C(=O)OCC(=O)OCC

> <Substance_modify_yyyymmdd>
20080429

$$$$
