84-79-7
ChemmineR-0915142007XD

 18 19  0  0  0  0  0  0  0  0  1 V2000
    4.5873   -3.3161    0.0000 C   0  0  0  0  0  0  0  0  0  0  0  0
    4.5873   -1.9804    0.0000 C   0  0  0  0  0  0  0  0  0  0  0  0
    3.4543   -3.9793    0.0000 C   0  0  0  0  0  0  0  0  0  0  0  0
    3.4543   -1.3264    0.0000 C   0  0  0  0  0  0  0  0  0  0  0  0
    2.3028   -3.3161    0.0000 C   0  0  0  0  0  0  0  0  0  0  0  0
    2.3028   -1.9804    0.0000 C   0  0  0  0  0  0  0  0  0  0  0  0
    5.7571   -3.9977    0.0000 C   0  0  0  0  0  0  0  0  0  0  0  0
    6.9085   -3.3253    0.0000 C   0  0  0  0  0  0  0  0  0  0  0  0
    3.4543   -5.3150    0.0000 O   0  0  0  0  0  0  0  0  0  0  0  0
    3.4543    0.0000    0.0000 O   0  0  0  0  0  0  0  0  0  0  0  0
    8.0599   -3.9977    0.0000 C   0  0  0  0  0  0  0  0  0  0  0  0
    5.7571   -1.3264    0.0000 O   0  0  0  0  0  0  0  0  0  0  0  0
    1.1514   -1.3264    0.0000 C   0  0  0  0  0  0  0  0  0  0  0  0
    1.1514   -3.9793    0.0000 C   0  0  0  0  0  0  0  0  0  0  0  0
    8.0599   -5.3426    0.0000 C   0  0  0  0  0  0  0  0  0  0  0  0
    9.2114   -3.3621    0.0000 C   0  0  0  0  0  0  0  0  0  0  0  0
    0.0000   -3.3161    0.0000 C   0  0  0  0  0  0  0  0  0  0  0  0
    0.0000   -1.9804    0.0000 C   0  0  0  0  0  0  0  0  0  0  0  0
  1  2  2  0  0  0  0
  1  3  1  0  0  0  0
  1  7  1  0  0  0  0
  2  4  1  0  0  0  0
  2 12  1  0  0  0  0
  3  5  1  0  0  0  0
  3  9  2  0  0  0  0
  4 10  2  0  0  0  0
  4  6  1  0  0  0  0
  5  6  2  0  0  0  0
  5 14  1  0  0  0  0
  6 13  1  0  0  0  0
  7  8  1  0  0  0  0
  8 11  2  0  0  0  0
 11 15  1  0  0  0  0
 11 16  1  0  0  0  0
 13 18  2  0  0  0  0
 14 17  2  0  0  0  0
 17 18  1  0  0  0  0
M  END
> <ID>
14294

> <Formula>
C15H14O3

> <FW>
242.2699

> <DSSTox_CID>
29390

> <DSSTox_RID>
83505

> <DSSTox_GSID>
49430

> <DSSTox_FileID_Sort>
8180

> <TS_ChemName>
Lapachol

> <TS_ChemName_Synonyms>


> <TS_CASRN>
84-79-7

> <CASRN_ChemName_Relationship>
primary

> <TS_Description>
single chemical compound

> <ChemNote>


> <STRUCTURE_Shown>
tested chemical

> <STRUCTURE_Formula>
C15H14O3

> <STRUCTURE_MW>
242.2699

> <STRUCTURE_ChemType>
defined organic

> <STRUCTURE_DefinedOrganicForm>
parent

> <STRUCTURE_IUPAC>
2-hydroxy-3-(3-methylbut-2-en-1-yl)naphthalene-1,4-dione

> <STRUCTURE_SMILES>
C/C(C)=C\CC=2C(=O)c1ccccc1C(=O)C=2O

> <STRUCTURE_SMILES_Desalt>
C/C(C)=C\CC=2C(=O)c1ccccc1C(=O)C=2O

> <Substance_modify_yyyymmdd>
20111204

$$$$
