84-76-4
ChemmineR-0915142007XD

 30 30  0  0  0  0  0  0  0  0  1 V2000
    2.3052   -1.9908    0.0000 C   0  0  0  0  0  0  0  0  0  0  0  0
    2.3052   -3.3230    0.0000 C   0  0  0  0  0  0  0  0  0  0  0  0
    3.4428   -1.3172    0.0000 C   0  0  0  0  0  0  0  0  0  0  0  0
    3.4428   -3.9816    0.0000 C   0  0  0  0  0  0  0  0  0  0  0  0
    3.4428    0.0000    0.0000 O   0  0  0  0  0  0  0  0  0  0  0  0
    3.4428   -5.3138    0.0000 O   0  0  0  0  0  0  0  0  0  0  0  0
    4.5953   -1.9908    0.0000 O   0  0  0  0  0  0  0  0  0  0  0  0
    4.5953   -3.3230    0.0000 O   0  0  0  0  0  0  0  0  0  0  0  0
    1.1526   -1.3172    0.0000 C   0  0  0  0  0  0  0  0  0  0  0  0
    1.1526   -3.9816    0.0000 C   0  0  0  0  0  0  0  0  0  0  0  0
    0.0000   -1.9908    0.0000 C   0  0  0  0  0  0  0  0  0  0  0  0
    0.0000   -3.3230    0.0000 C   0  0  0  0  0  0  0  0  0  0  0  0
    5.7479   -1.3172    0.0000 C   0  0  0  0  0  0  0  0  0  0  0  0
    6.9005   -1.9908    0.0000 C   0  0  0  0  0  0  0  0  0  0  0  0
    8.0681   -1.3172    0.0000 C   0  0  0  0  0  0  0  0  0  0  0  0
    9.2206   -1.9908    0.0000 C   0  0  0  0  0  0  0  0  0  0  0  0
   10.3732   -1.3172    0.0000 C   0  0  0  0  0  0  0  0  0  0  0  0
   11.5258   -1.9908    0.0000 C   0  0  0  0  0  0  0  0  0  0  0  0
   12.6784   -1.3172    0.0000 C   0  0  0  0  0  0  0  0  0  0  0  0
   13.8160   -1.9908    0.0000 C   0  0  0  0  0  0  0  0  0  0  0  0
   14.9686   -1.3172    0.0000 C   0  0  0  0  0  0  0  0  0  0  0  0
    5.7479   -3.9816    0.0000 C   0  0  0  0  0  0  0  0  0  0  0  0
    6.9005   -3.3230    0.0000 C   0  0  0  0  0  0  0  0  0  0  0  0
    8.0681   -3.9816    0.0000 C   0  0  0  0  0  0  0  0  0  0  0  0
    9.2206   -3.3230    0.0000 C   0  0  0  0  0  0  0  0  0  0  0  0
   10.3732   -3.9816    0.0000 C   0  0  0  0  0  0  0  0  0  0  0  0
   11.5258   -3.3230    0.0000 C   0  0  0  0  0  0  0  0  0  0  0  0
   12.6784   -3.9816    0.0000 C   0  0  0  0  0  0  0  0  0  0  0  0
   13.8160   -3.3230    0.0000 C   0  0  0  0  0  0  0  0  0  0  0  0
   14.9686   -3.9816    0.0000 C   0  0  0  0  0  0  0  0  0  0  0  0
  1  2  2  0  0  0  0
  1  3  1  0  0  0  0
  1  9  1  0  0  0  0
  2  4  1  0  0  0  0
  2 10  1  0  0  0  0
  3  5  2  0  0  0  0
  3  7  1  0  0  0  0
  4  6  2  0  0  0  0
  4  8  1  0  0  0  0
  7 13  1  0  0  0  0
  8 22  1  0  0  0  0
  9 11  2  0  0  0  0
 10 12  2  0  0  0  0
 11 12  1  0  0  0  0
 13 14  1  0  0  0  0
 14 15  1  0  0  0  0
 15 16  1  0  0  0  0
 16 17  1  0  0  0  0
 17 18  1  0  0  0  0
 18 19  1  0  0  0  0
 19 20  1  0  0  0  0
 20 21  1  0  0  0  0
 22 23  1  0  0  0  0
 23 24  1  0  0  0  0
 24 25  1  0  0  0  0
 25 26  1  0  0  0  0
 26 27  1  0  0  0  0
 27 28  1  0  0  0  0
 28 29  1  0  0  0  0
 29 30  1  0  0  0  0
M  END
> <ID>
5691

> <Formula>
C26H42O4

> <FW>
418.6093

> <DSSTox_CID>
8663

> <DSSTox_RID>
82694

> <DSSTox_GSID>
47966

> <DSSTox_FileID_Sort>
7371

> <TS_ChemName>
Dinonyl phthalate

> <TS_ChemName_Synonyms>


> <TS_CASRN>
84-76-4

> <CASRN_ChemName_Relationship>
primary

> <TS_Description>
single chemical compound

> <ChemNote>


> <STRUCTURE_Shown>
tested chemical

> <STRUCTURE_Formula>
C26H42O4

> <STRUCTURE_MW>
418.6093

> <STRUCTURE_ChemType>
defined organic

> <STRUCTURE_DefinedOrganicForm>
parent

> <STRUCTURE_IUPAC>
dinonyl benzene-1,2-dicarboxylate

> <STRUCTURE_SMILES>
O=C(OCCCCCCCCC)c1ccccc1C(=O)OCCCCCCCCC

> <STRUCTURE_SMILES_Desalt>
O=C(OCCCCCCCCC)c1ccccc1C(=O)OCCCCCCCCC

> <Substance_modify_yyyymmdd>
20110418

$$$$
