84-77-5
ChemmineR-0915142007XD

 32 32  0  0  0  0  0  0  0  0  1 V2000
    4.6254  -13.2865    0.0000 C   0  0  0  0  0  0  0  0  0  0  0  0
    3.4829  -13.9499    0.0000 C   0  0  0  0  0  0  0  0  0  0  0  0
    2.3219  -13.2865    0.0000 C   0  0  0  0  0  0  0  0  0  0  0  0
    2.3219  -11.9597    0.0000 C   0  0  0  0  0  0  0  0  0  0  0  0
    3.4829  -11.2963    0.0000 C   0  0  0  0  0  0  0  0  0  0  0  0
    4.6254  -11.9597    0.0000 C   0  0  0  0  0  0  0  0  0  0  0  0
    5.7863  -13.9499    0.0000 C   0  0  0  0  0  0  0  0  0  0  0  0
    5.7863  -15.2767    0.0000 O   0  0  0  0  0  0  0  0  0  0  0  0
    6.9289  -13.2681    0.0000 O   0  0  0  0  0  0  0  0  0  0  0  0
    5.7863  -11.2963    0.0000 C   0  0  0  0  0  0  0  0  0  0  0  0
    6.9289  -11.9412    0.0000 O   0  0  0  0  0  0  0  0  0  0  0  0
    5.7679   -9.9695    0.0000 O   0  0  0  0  0  0  0  0  0  0  0  0
    8.0898  -13.9499    0.0000 C   0  0  0  0  0  0  0  0  0  0  0  0
    9.2139  -13.2681    0.0000 C   0  0  0  0  0  0  0  0  0  0  0  0
   10.3749  -13.9499    0.0000 C   0  0  0  0  0  0  0  0  0  0  0  0
   11.5358  -13.2681    0.0000 C   0  0  0  0  0  0  0  0  0  0  0  0
   12.6784  -13.9315    0.0000 C   0  0  0  0  0  0  0  0  0  0  0  0
   13.8393  -13.2681    0.0000 C   0  0  0  0  0  0  0  0  0  0  0  0
   14.9818  -13.9315    0.0000 C   0  0  0  0  0  0  0  0  0  0  0  0
   16.1428  -13.2681    0.0000 C   0  0  0  0  0  0  0  0  0  0  0  0
   17.2853  -13.9315    0.0000 C   0  0  0  0  0  0  0  0  0  0  0  0
   18.4278  -13.2681    0.0000 C   0  0  0  0  0  0  0  0  0  0  0  0
    4.6070   -9.3061    0.0000 C   0  0  0  0  0  0  0  0  0  0  0  0
    4.6070   -7.9793    0.0000 C   0  0  0  0  0  0  0  0  0  0  0  0
    3.4644   -7.2974    0.0000 C   0  0  0  0  0  0  0  0  0  0  0  0
    3.4644   -5.9706    0.0000 C   0  0  0  0  0  0  0  0  0  0  0  0
    2.3035   -5.3256    0.0000 C   0  0  0  0  0  0  0  0  0  0  0  0
    2.3035   -3.9804    0.0000 C   0  0  0  0  0  0  0  0  0  0  0  0
    1.1610   -3.3354    0.0000 C   0  0  0  0  0  0  0  0  0  0  0  0
    1.1610   -2.0086    0.0000 C   0  0  0  0  0  0  0  0  0  0  0  0
    0.0000   -1.3268    0.0000 C   0  0  0  0  0  0  0  0  0  0  0  0
    0.0000    0.0000    0.0000 C   0  0  0  0  0  0  0  0  0  0  0  0
  1  2  2  0  0  0  0
  1  6  1  0  0  0  0
  1  7  1  0  0  0  0
  2  3  1  0  0  0  0
  3  4  2  0  0  0  0
  4  5  1  0  0  0  0
  5  6  2  0  0  0  0
  6 10  1  0  0  0  0
  7  8  2  0  0  0  0
  7  9  1  0  0  0  0
  9 13  1  0  0  0  0
 10 11  2  0  0  0  0
 10 12  1  0  0  0  0
 12 23  1  0  0  0  0
 13 14  1  0  0  0  0
 14 15  1  0  0  0  0
 15 16  1  0  0  0  0
 16 17  1  0  0  0  0
 17 18  1  0  0  0  0
 18 19  1  0  0  0  0
 19 20  1  0  0  0  0
 20 21  1  0  0  0  0
 21 22  1  0  0  0  0
 23 24  1  0  0  0  0
 24 25  1  0  0  0  0
 25 26  1  0  0  0  0
 26 27  1  0  0  0  0
 27 28  1  0  0  0  0
 28 29  1  0  0  0  0
 29 30  1  0  0  0  0
 30 31  1  0  0  0  0
 31 32  1  0  0  0  0
M  END
> <ID>
4702

> <Formula>
C28H46O4

> <FW>
446.6624

> <DSSTox_CID>
6512

> <DSSTox_RID>
78128

> <DSSTox_GSID>
26512

> <DSSTox_FileID_Sort>
2811

> <TS_ChemName>
Didecyl phthalate

> <TS_ChemName_Synonyms>
Didecyl phthalate (1,2-Benzenedicarboxylic acid, didecyl ester)

> <TS_CASRN>
84-77-5

> <CASRN_ChemName_Relationship>
primary

> <TS_Description>
single chemical compound

> <ChemNote>


> <STRUCTURE_Shown>
tested chemical

> <STRUCTURE_Formula>
C28H46O4

> <STRUCTURE_MW>
446.6624

> <STRUCTURE_ChemType>
defined organic

> <STRUCTURE_DefinedOrganicForm>
parent

> <STRUCTURE_IUPAC>
didecyl benzene-1,2-dicarboxylate

> <STRUCTURE_SMILES>
O=C(OCCCCCCCCCC)c1ccccc1C(=O)OCCCCCCCCCC

> <STRUCTURE_SMILES_Desalt>
O=C(OCCCCCCCCCC)c1ccccc1C(=O)OCCCCCCCCCC

> <Substance_modify_yyyymmdd>
20080429

$$$$
