84-80-0
ChemmineR-0915142007XD

 33 34  0  0  1  0  0  0  0  0  1 V2000
    4.6048   -3.3155    0.0000 C   0  0  0  0  0  0  0  0  0  0  0  0
    4.6048   -2.0031    0.0000 C   0  0  0  0  0  0  0  0  0  0  0  0
    3.4536   -1.3354    0.0000 C   0  0  0  0  0  0  0  0  0  0  0  0
    3.4536    0.0000    0.0000 O   0  0  0  0  0  0  0  0  0  0  0  0
    2.3024   -2.0031    0.0000 C   0  0  0  0  0  0  0  0  0  0  0  0
    2.3024   -3.3155    0.0000 C   0  0  0  0  0  0  0  0  0  0  0  0
    3.4536   -3.9832    0.0000 C   0  0  0  0  0  0  0  0  0  0  0  0
    3.4536   -5.3186    0.0000 O   0  0  0  0  0  0  0  0  0  0  0  0
    1.1512   -3.9832    0.0000 C   0  0  0  0  0  0  0  0  0  0  0  0
    0.0000   -3.3155    0.0000 C   0  0  0  0  0  0  0  0  0  0  0  0
    0.0000   -2.0031    0.0000 C   0  0  0  0  0  0  0  0  0  0  0  0
    1.1512   -1.3354    0.0000 C   0  0  0  0  0  0  0  0  0  0  0  0
    5.7560   -1.3354    0.0000 C   0  0  0  0  0  0  0  0  0  0  0  0
    5.7560   -3.9832    0.0000 C   0  0  0  0  0  0  0  0  0  0  0  0
    6.9072   -3.3155    0.0000 C   0  0  0  0  0  0  0  0  0  0  0  0
    8.0584   -3.9832    0.0000 C   0  0  0  0  0  0  0  0  0  0  0  0
    9.2096   -3.3155    0.0000 C   0  0  0  0  0  0  0  0  0  0  0  0
   10.3608   -3.9832    0.0000 C   0  0  0  0  0  0  0  0  0  0  0  0
   11.5120   -3.3155    0.0000 C   0  0  0  0  0  0  0  0  0  0  0  0
   12.6632   -3.9832    0.0000 C   0  0  0  0  0  0  0  0  0  0  0  0
   13.8144   -3.3155    0.0000 C   0  0  0  0  0  0  0  0  0  0  0  0
   14.9656   -3.9832    0.0000 C   0  0  0  0  0  0  0  0  0  0  0  0
   16.1168   -3.3155    0.0000 C   0  0  0  0  0  0  0  0  0  0  0  0
   17.2680   -3.9832    0.0000 C   0  0  0  0  0  0  0  0  0  0  0  0
   18.4192   -3.3155    0.0000 C   0  0  0  0  0  0  0  0  0  0  0  0
   19.5704   -3.9832    0.0000 C   0  0  0  0  0  0  0  0  0  0  0  0
   20.7216   -3.3155    0.0000 C   0  0  0  0  0  0  0  0  0  0  0  0
   21.8728   -3.9832    0.0000 C   0  0  0  0  0  0  0  0  0  0  0  0
   23.0240   -3.3155    0.0000 C   0  0  0  0  0  0  0  0  0  0  0  0
   21.8728   -5.3186    0.0000 C   0  0  0  0  0  0  0  0  0  0  0  0
   17.2680   -5.3186    0.0000 C   0  0  0  0  0  0  0  0  0  0  0  0
   12.6632   -5.3186    0.0000 C   0  0  0  0  0  0  0  0  0  0  0  0
    8.0584   -5.3186    0.0000 C   0  0  0  0  0  0  0  0  0  0  0  0
  1  2  2  0  0  0  0
  1  7  1  0  0  0  0
  1 14  1  0  0  0  0
  2  3  1  0  0  0  0
  2 13  1  0  0  0  0
  3  4  2  0  0  0  0
  3  5  1  0  0  0  0
  5  6  2  0  0  0  0
  5 12  1  0  0  0  0
  6  7  1  0  0  0  0
  6  9  1  0  0  0  0
  7  8  2  0  0  0  0
  9 10  2  0  0  0  0
 10 11  1  0  0  0  0
 11 12  2  0  0  0  0
 14 15  1  0  0  0  0
 15 16  2  0  0  0  0
 16 17  1  0  0  0  0
 16 33  1  0  0  0  0
 17 18  1  0  0  0  0
 18 19  1  0  0  0  0
 19 20  1  0  0  0  0
 20 21  1  0  0  0  0
 20 32  1  1  0  0  0
 21 22  1  0  0  0  0
 22 23  1  0  0  0  0
 23 24  1  0  0  0  0
 24 25  1  0  0  0  0
 24 31  1  1  0  0  0
 25 26  1  0  0  0  0
 26 27  1  0  0  0  0
 27 28  1  0  0  0  0
 28 29  1  0  0  0  0
 28 30  1  0  0  0  0
M  END
> <ID>
3112

> <Formula>
C31H46O2

> <FW>
450.6957

> <DSSTox_CID>
3472

> <DSSTox_RID>
77041

> <DSSTox_GSID>
23472

> <DSSTox_FileID_Sort>
1724

> <TS_ChemName>
Phytonadione

> <TS_ChemName_Synonyms>
Phylloquinone, K1

> <TS_CASRN>
84-80-0

> <CASRN_ChemName_Relationship>
primary

> <TS_Description>
single chemical compound

> <ChemNote>
in the Vitamin K family, plant K1 vitamin

> <STRUCTURE_Shown>
tested chemical

> <STRUCTURE_Formula>
C31H46O2

> <STRUCTURE_MW>
450.6957

> <STRUCTURE_ChemType>
defined organic

> <STRUCTURE_DefinedOrganicForm>
parent

> <STRUCTURE_IUPAC>
2-methyl-3-[(2E,7R,11R)-3,7,11,15-tetramethylhexadec-2-en-1-yl]naphthalene-1,4-dione

> <STRUCTURE_SMILES>
CC(C)CCC[C@@H](C)CCC[C@@H](C)CCCC(\C)=C\CC2=C(C)C(=O)c1ccccc1C2=O

> <STRUCTURE_SMILES_Desalt>
CC(C)CCC[C@@H](C)CCC[C@@H](C)CCCC(\C)=C\CC2=C(C)C(=O)c1ccccc1C2=O

> <Substance_modify_yyyymmdd>
20130909

$$$$
