84-97-9
ChemmineR-0915142007XD

 24 27  0  0  0  0  0  0  0  0  1 V2000
    3.4605   -3.9889    0.0000 N   0  0  0  0  0  0  0  0  0  0  0  0
    3.4605   -6.6620    0.0000 S   0  0  0  0  0  0  0  0  0  0  0  0
    4.6002   -4.6624    0.0000 C   0  0  0  0  0  0  0  0  0  0  0  0
    2.2794   -4.6624    0.0000 C   0  0  0  0  0  0  0  0  0  0  0  0
    4.6002   -5.9989    0.0000 C   0  0  0  0  0  0  0  0  0  0  0  0
    2.2794   -5.9989    0.0000 C   0  0  0  0  0  0  0  0  0  0  0  0
    6.9003   -2.0100    0.0000 N   0  0  0  0  0  0  0  0  0  0  0  0
    9.2212   -0.6942    0.0000 N   0  0  0  0  0  0  0  0  0  0  0  0
    3.4605   -2.6731    0.0000 C   0  0  0  0  0  0  0  0  0  0  0  0
    8.0400   -0.0311    0.0000 C   0  0  0  0  0  0  0  0  0  0  0  0
    9.2212   -2.0100    0.0000 C   0  0  0  0  0  0  0  0  0  0  0  0
    8.0400   -2.6731    0.0000 C   0  0  0  0  0  0  0  0  0  0  0  0
    6.9003   -0.6942    0.0000 C   0  0  0  0  0  0  0  0  0  0  0  0
    4.6002   -2.0100    0.0000 C   0  0  0  0  0  0  0  0  0  0  0  0
    5.7399   -2.6731    0.0000 C   0  0  0  0  0  0  0  0  0  0  0  0
    5.7399   -3.9889    0.0000 C   0  0  0  0  0  0  0  0  0  0  0  0
    1.1604   -3.9889    0.0000 C   0  0  0  0  0  0  0  0  0  0  0  0
    5.7399   -6.6620    0.0000 C   0  0  0  0  0  0  0  0  0  0  0  0
    1.1604   -6.6620    0.0000 C   0  0  0  0  0  0  0  0  0  0  0  0
   10.3609    0.0000    0.0000 C   0  0  0  0  0  0  0  0  0  0  0  0
    6.9003   -4.6624    0.0000 C   0  0  0  0  0  0  0  0  0  0  0  0
    0.0000   -4.6624    0.0000 C   0  0  0  0  0  0  0  0  0  0  0  0
    6.9003   -5.9989    0.0000 C   0  0  0  0  0  0  0  0  0  0  0  0
    0.0000   -5.9989    0.0000 C   0  0  0  0  0  0  0  0  0  0  0  0
  1  3  1  0  0  0  0
  1  4  1  0  0  0  0
  1  9  1  0  0  0  0
  2  6  1  0  0  0  0
  2  5  1  0  0  0  0
  3  5  2  0  0  0  0
  3 16  1  0  0  0  0
  4  6  2  0  0  0  0
  4 17  1  0  0  0  0
  5 18  1  0  0  0  0
  6 19  1  0  0  0  0
  7 15  1  0  0  0  0
  7 12  1  0  0  0  0
  7 13  1  0  0  0  0
  8 10  1  0  0  0  0
  8 20  1  0  0  0  0
  8 11  1  0  0  0  0
  9 14  1  0  0  0  0
 10 13  1  0  0  0  0
 11 12  1  0  0  0  0
 14 15  1  0  0  0  0
 16 21  2  0  0  0  0
 17 22  2  0  0  0  0
 18 23  2  0  0  0  0
 19 24  2  0  0  0  0
 21 23  1  0  0  0  0
 22 24  1  0  0  0  0
M  END
> <ID>
13625

> <Formula>
C20H25N3S

> <FW>
339.4976

> <DSSTox_CID>
28554

> <DSSTox_RID>
82826

> <DSSTox_GSID>
48628

> <DSSTox_FileID_Sort>
7503

> <TS_ChemName>
Perazine

> <TS_ChemName_Synonyms>


> <TS_CASRN>
84-97-9

> <CASRN_ChemName_Relationship>
primary

> <TS_Description>
single chemical compound

> <ChemNote>


> <STRUCTURE_Shown>
tested chemical

> <STRUCTURE_Formula>
C20H25N3S

> <STRUCTURE_MW>
339.4976

> <STRUCTURE_ChemType>
defined organic

> <STRUCTURE_DefinedOrganicForm>
parent

> <STRUCTURE_IUPAC>
10-[3-(4-methylpiperazin-1-yl)propyl]-10H-phenothiazine

> <STRUCTURE_SMILES>
CN1CCN(CC1)CCCN2c4ccccc4Sc3ccccc23

> <STRUCTURE_SMILES_Desalt>
CN1CCN(CC1)CCCN2c4ccccc4Sc3ccccc23

> <Substance_modify_yyyymmdd>
20111015

$$$$
