840-65-3
ChemmineR-0915142007XD

 18 19  0  0  0  0  0  0  0  0  1 V2000
    4.6145   -2.6711    0.0000 C   0  0  0  0  0  0  0  0  0  0  0  0
    4.6145   -3.9974    0.0000 C   0  0  0  0  0  0  0  0  0  0  0  0
    3.4632   -1.9987    0.0000 C   0  0  0  0  0  0  0  0  0  0  0  0
    3.4632   -4.6606    0.0000 C   0  0  0  0  0  0  0  0  0  0  0  0
    5.7474   -4.6606    0.0000 C   0  0  0  0  0  0  0  0  0  0  0  0
    5.7474   -1.9987    0.0000 C   0  0  0  0  0  0  0  0  0  0  0  0
    6.9080   -2.6711    0.0000 C   0  0  0  0  0  0  0  0  0  0  0  0
    6.9080   -3.9974    0.0000 C   0  0  0  0  0  0  0  0  0  0  0  0
    2.3027   -3.9974    0.0000 C   0  0  0  0  0  0  0  0  0  0  0  0
    2.3027   -2.6711    0.0000 C   0  0  0  0  0  0  0  0  0  0  0  0
    8.0593   -1.9987    0.0000 C   0  0  0  0  0  0  0  0  0  0  0  0
    9.2106   -2.6711    0.0000 O   0  0  0  0  0  0  0  0  0  0  0  0
    8.0593   -0.6724    0.0000 O   0  0  0  0  0  0  0  0  0  0  0  0
    1.1513   -4.6606    0.0000 C   0  0  0  0  0  0  0  0  0  0  0  0
    0.0000   -3.9974    0.0000 O   0  0  0  0  0  0  0  0  0  0  0  0
    1.1513   -5.9869    0.0000 O   0  0  0  0  0  0  0  0  0  0  0  0
    9.2106    0.0000    0.0000 C   0  0  0  0  0  0  0  0  0  0  0  0
    0.0000   -6.6593    0.0000 C   0  0  0  0  0  0  0  0  0  0  0  0
  1  2  2  0  0  0  0
  1  3  1  0  0  0  0
  1  6  1  0  0  0  0
  2  4  1  0  0  0  0
  2  5  1  0  0  0  0
  3 10  2  0  0  0  0
  4  9  2  0  0  0  0
  5  8  2  0  0  0  0
  6  7  2  0  0  0  0
  7  8  1  0  0  0  0
  7 11  1  0  0  0  0
  9 10  1  0  0  0  0
  9 14  1  0  0  0  0
 11 12  2  0  0  0  0
 11 13  1  0  0  0  0
 13 17  1  0  0  0  0
 14 15  2  0  0  0  0
 14 16  1  0  0  0  0
 16 18  1  0  0  0  0
M  END
> <ID>
5852

> <Formula>
C14H12O4

> <FW>
244.2427

> <DSSTox_CID>
9202

> <DSSTox_RID>
78707

> <DSSTox_GSID>
29202

> <DSSTox_FileID_Sort>
3389

> <TS_ChemName>
Dimethyl 2,6-naphthalenedicarboxylate

> <TS_ChemName_Synonyms>
2,6-Naphthalenedicarboxylic acid, dimethyl ester

> <TS_CASRN>
840-65-3

> <CASRN_ChemName_Relationship>
primary

> <TS_Description>
single chemical compound

> <ChemNote>


> <STRUCTURE_Shown>
tested chemical

> <STRUCTURE_Formula>
C14H12O4

> <STRUCTURE_MW>
244.2427

> <STRUCTURE_ChemType>
defined organic

> <STRUCTURE_DefinedOrganicForm>
parent

> <STRUCTURE_IUPAC>
dimethyl naphthalene-2,6-dicarboxylate

> <STRUCTURE_SMILES>
O=C(OC)c1ccc2cc(ccc2c1)C(=O)OC

> <STRUCTURE_SMILES_Desalt>
O=C(OC)c1ccc2cc(ccc2c1)C(=O)OC

> <Substance_modify_yyyymmdd>
20080429

$$$$
