84088-42-6
ChemmineR-0915142007XD

 23 25  0  0  0  0  0  0  0  0  1 V2000
    3.4511   -1.9898    0.0000 C   0  0  0  0  0  0  0  0  0  0  0  0
    3.4511   -3.3164    0.0000 N   0  0  0  0  0  0  0  0  0  0  0  0
    2.3007   -3.9900    0.0000 C   0  0  0  0  0  0  0  0  0  0  0  0
    1.1504   -3.3164    0.0000 C   0  0  0  0  0  0  0  0  0  0  0  0
    0.0000   -3.9900    0.0000 C   0  0  0  0  0  0  0  0  0  0  0  0
    0.0000   -5.3166    0.0000 C   0  0  0  0  0  0  0  0  0  0  0  0
    1.1504   -5.9799    0.0000 C   0  0  0  0  0  0  0  0  0  0  0  0
    2.3007   -5.3166    0.0000 C   0  0  0  0  0  0  0  0  0  0  0  0
    4.6015   -3.9900    0.0000 C   0  0  0  0  0  0  0  0  0  0  0  0
    4.6015   -5.3166    0.0000 O   0  0  0  0  0  0  0  0  0  0  0  0
    5.7622   -3.3164    0.0000 C   0  0  0  0  0  0  0  0  0  0  0  0
    6.9126   -3.9900    0.0000 C   0  0  0  0  0  0  0  0  0  0  0  0
    6.9126   -5.3166    0.0000 O   0  0  0  0  0  0  0  0  0  0  0  0
    8.0630   -3.3164    0.0000 C   0  0  0  0  0  0  0  0  0  0  0  0
    8.0630   -1.9898    0.0000 C   0  0  0  0  0  0  0  0  0  0  0  0
    9.2133   -1.3266    0.0000 C   0  0  0  0  0  0  0  0  0  0  0  0
   10.3637   -1.9898    0.0000 C   0  0  0  0  0  0  0  0  0  0  0  0
   10.3637   -3.3164    0.0000 C   0  0  0  0  0  0  0  0  0  0  0  0
    9.2133   -3.9900    0.0000 C   0  0  0  0  0  0  0  0  0  0  0  0
    6.9126   -1.3266    0.0000 N   0  0  0  0  0  0  0  0  0  0  0  0
    6.9126    0.0000    0.0000 C   0  0  0  0  0  0  0  0  0  0  0  0
    5.7622   -1.9898    0.0000 C   0  0  0  0  0  0  0  0  0  0  0  0
    4.6015   -1.3266    0.0000 O   0  0  0  0  0  0  0  0  0  0  0  0
  1  2  1  0  0  0  0
  2  3  1  0  0  0  0
  2  9  1  0  0  0  0
  3  4  2  0  0  0  0
  3  8  1  0  0  0  0
  4  5  1  0  0  0  0
  5  6  2  0  0  0  0
  6  7  1  0  0  0  0
  7  8  2  0  0  0  0
  9 10  2  0  0  0  0
  9 11  1  0  0  0  0
 11 12  2  0  0  0  0
 11 22  1  0  0  0  0
 12 13  1  0  0  0  0
 12 14  1  0  0  0  0
 14 15  2  0  0  0  0
 14 19  1  0  0  0  0
 15 16  1  0  0  0  0
 15 20  1  0  0  0  0
 16 17  2  0  0  0  0
 17 18  1  0  0  0  0
 18 19  2  0  0  0  0
 20 21  1  0  0  0  0
 20 22  1  0  0  0  0
 22 23  2  0  0  0  0
M  END
> <ID>
11122

> <Formula>
C18H16N2O3

> <FW>
308.3312

> <DSSTox_CID>
25680

> <DSSTox_RID>
81054

> <DSSTox_GSID>
45680

> <DSSTox_FileID_Sort>
5735

> <TS_ChemName>
Roquinimex

> <TS_ChemName_Synonyms>


> <TS_CASRN>
84088-42-6

> <CASRN_ChemName_Relationship>
primary

> <TS_Description>
single chemical compound

> <ChemNote>


> <STRUCTURE_Shown>
tested chemical

> <STRUCTURE_Formula>
C18H16N2O3

> <STRUCTURE_MW>
308.3312

> <STRUCTURE_ChemType>
defined organic

> <STRUCTURE_DefinedOrganicForm>
parent

> <STRUCTURE_IUPAC>
4-hydroxy-N,1-dimethyl-2-oxo-N-phenyl-1,2-dihydroquinoline-3-carboxamide

> <STRUCTURE_SMILES>
CN(c1ccccc1)C(=O)C3=C(O)c2ccccc2N(C)C3=O

> <STRUCTURE_SMILES_Desalt>
CN(c1ccccc1)C(=O)C3=C(O)c2ccccc2N(C)C3=O

> <Substance_modify_yyyymmdd>
20100107

$$$$
