84225-95-6
ChemmineR-0915142007XD

 22 23  0  0  1  0  0  0  0  0  1 V2000
    7.4947    0.0000    0.0000 C    0  0  0  0  0  0  0  0  0  0  0  0
    7.2099   -1.3017    0.0000 C    0  0  0  0  0  0  0  0  0  0  0  0
    8.2065   -2.1965    0.0000 N    0  0  0  0  0  0  0  0  0  0  0  0
    9.5081   -1.9220    0.0000 C    0  0  0  0  0  0  0  0  0  0  0  0
   10.1691   -3.0711    0.0000 C    0  0  0  0  0  0  0  0  0  0  0  0
    9.2743   -4.0575    0.0000 C    0  0  0  0  0  0  0  0  0  0  0  0
    8.0641   -3.5185    0.0000 C    0  0  0  0  0  0  0  0  0  0  0  0
    6.9150   -4.1795    0.0000 C    0  0  0  0  0  0  0  0  0  0  0  0
    5.7557   -3.5185    0.0000 N    0  0  0  0  0  0  0  0  0  0  0  0
    4.6066   -4.1795    0.0000 C    0  0  0  0  0  0  0  0  0  0  0  0
    4.6066   -5.5117    0.0000 O    0  0  0  0  0  0  0  0  0  0  0  0
    3.4575   -3.5185    0.0000 C    0  0  0  0  0  0  0  0  0  0  0  0
    2.3084   -4.1795    0.0000 C    0  0  0  0  0  0  0  0  0  0  0  0
    2.3084   -5.5117    0.0000 O    0  0  0  0  0  0  0  0  0  0  0  0
    1.1491   -3.5185    0.0000 C    0  0  0  0  0  0  0  0  0  0  0  0
    1.1491   -2.1864    0.0000 C    0  0  0  0  0  0  0  0  0  0  0  0
    2.3084   -1.5254    0.0000 C    0  0  0  0  0  0  0  0  0  0  0  0
    3.4575   -2.1864    0.0000 C    0  0  0  0  0  0  0  0  0  0  0  0
    4.6066   -1.5254    0.0000 O    0  0  0  0  0  0  0  0  0  0  0  0
    4.6066   -0.1932    0.0000 C    0  0  0  0  0  0  0  0  0  0  0  0
    2.3084   -0.1932    0.0000 Cl   0  0  0  0  0  0  0  0  0  0  0  0
    0.0000   -4.1795    0.0000 Cl   0  0  0  0  0  0  0  0  0  0  0  0
  1  2  1  0  0  0  0
  2  3  1  0  0  0  0
  3  4  1  0  0  0  0
  3  7  1  0  0  0  0
  4  5  1  0  0  0  0
  5  6  1  0  0  0  0
  6  7  1  0  0  0  0
  7  8  1  1  0  0  0
  8  9  1  0  0  0  0
  9 10  1  0  0  0  0
 10 11  2  0  0  0  0
 10 12  1  0  0  0  0
 12 13  2  0  0  0  0
 12 18  1  0  0  0  0
 13 14  1  0  0  0  0
 13 15  1  0  0  0  0
 15 16  2  0  0  0  0
 15 22  1  0  0  0  0
 16 17  1  0  0  0  0
 17 18  2  0  0  0  0
 17 21  1  0  0  0  0
 18 19  1  0  0  0  0
 19 20  1  0  0  0  0
M  END
> <ID>
11128

> <Formula>
C15H20Cl2N2O3

> <FW>
347.2369

> <DSSTox_CID>
25687

> <DSSTox_RID>
81059

> <DSSTox_GSID>
45687

> <DSSTox_FileID_Sort>
5740

> <TS_ChemName>
Raclopride

> <TS_ChemName_Synonyms>


> <TS_CASRN>
84225-95-6

> <CASRN_ChemName_Relationship>
primary

> <TS_Description>
single chemical compound

> <ChemNote>


> <STRUCTURE_Shown>
tested chemical

> <STRUCTURE_Formula>
C15H20Cl2N2O3

> <STRUCTURE_MW>
347.2369

> <STRUCTURE_ChemType>
defined organic

> <STRUCTURE_DefinedOrganicForm>
parent

> <STRUCTURE_IUPAC>
3,5-dichloro-N-{[(2S)-1-ethylpyrrolidin-2-yl]methyl}-2-hydroxy-6-methoxybenzamide

> <STRUCTURE_SMILES>
CCN2CCC[C@H]2CNC(=O)c1c(O)c(Cl)cc(Cl)c1OC

> <STRUCTURE_SMILES_Desalt>
CCN2CCC[C@H]2CNC(=O)c1c(O)c(Cl)cc(Cl)c1OC

> <Substance_modify_yyyymmdd>
20100107

$$$$
