84243-58-3
ChemmineR-0915142007XD

 18 20  0  0  0  0  0  0  0  0  1 V2000
   11.3596   -1.1587    0.0000 O   0  0  0  0  0  0  0  0  0  0  0  0
   10.0306   -1.1587    0.0000 C   0  0  0  0  0  0  0  0  0  0  0  0
    9.3603   -2.3060    0.0000 C   0  0  0  0  0  0  0  0  0  0  0  0
    8.0313   -2.3060    0.0000 C   0  0  0  0  0  0  0  0  0  0  0  0
    7.3724   -1.1587    0.0000 C   0  0  0  0  0  0  0  0  0  0  0  0
    8.0313    0.0000    0.0000 N   0  0  0  0  0  0  0  0  0  0  0  0
    9.3603    0.0000    0.0000 N   0  0  0  0  0  0  0  0  0  0  0  0
    6.0433   -1.1587    0.0000 C   0  0  0  0  0  0  0  0  0  0  0  0
    5.3731   -2.3060    0.0000 C   0  0  0  0  0  0  0  0  0  0  0  0
    4.0440   -2.3060    0.0000 C   0  0  0  0  0  0  0  0  0  0  0  0
    3.3738   -1.1587    0.0000 C   0  0  0  0  0  0  0  0  0  0  0  0
    4.0440    0.0000    0.0000 C   0  0  0  0  0  0  0  0  0  0  0  0
    5.3731    0.0000    0.0000 C   0  0  0  0  0  0  0  0  0  0  0  0
    2.0447   -1.1587    0.0000 N   0  0  0  0  0  0  0  0  0  0  0  0
    1.2609   -2.2265    0.0000 C   0  0  0  0  0  0  0  0  0  0  0  0
    0.0000   -1.8175    0.0000 C   0  0  0  0  0  0  0  0  0  0  0  0
    0.0000   -0.4885    0.0000 N   0  0  0  0  0  0  0  0  0  0  0  0
    1.2609   -0.0795    0.0000 C   0  0  0  0  0  0  0  0  0  0  0  0
  1  2  2  0  0  0  0
  2  3  1  0  0  0  0
  2  7  1  0  0  0  0
  3  4  1  0  0  0  0
  4  5  1  0  0  0  0
  5  6  2  0  0  0  0
  5  8  1  0  0  0  0
  6  7  1  0  0  0  0
  8  9  2  0  0  0  0
  8 13  1  0  0  0  0
  9 10  1  0  0  0  0
 10 11  2  0  0  0  0
 11 12  1  0  0  0  0
 11 14  1  0  0  0  0
 12 13  2  0  0  0  0
 14 15  1  0  0  0  0
 14 18  1  0  0  0  0
 15 16  2  0  0  0  0
 16 17  1  0  0  0  0
 17 18  2  0  0  0  0
M  END
> <ID>
10779

> <Formula>
C13H12N4O

> <FW>
240.2606

> <DSSTox_CID>
25160

> <DSSTox_RID>
80710

> <DSSTox_GSID>
45160

> <DSSTox_FileID_Sort>
5391

> <TS_ChemName>
Imazodan

> <TS_ChemName_Synonyms>


> <TS_CASRN>
84243-58-3

> <CASRN_ChemName_Relationship>
primary

> <TS_Description>
single chemical compound

> <ChemNote>


> <STRUCTURE_Shown>
tested chemical

> <STRUCTURE_Formula>
C13H12N4O

> <STRUCTURE_MW>
240.2606

> <STRUCTURE_ChemType>
defined organic

> <STRUCTURE_DefinedOrganicForm>
parent

> <STRUCTURE_IUPAC>
6-[4-(1H-imidazol-1-yl)phenyl]-4,5-dihydropyridazin-3(2H)-one

> <STRUCTURE_SMILES>
O=C1CCC(=NN1)c2ccc(cc2)n3ccnc3

> <STRUCTURE_SMILES_Desalt>
O=C1CCC(=NN1)c2ccc(cc2)n3ccnc3

> <Substance_modify_yyyymmdd>
20100107

$$$$
