843-55-0
ChemmineR-0915142007XD

 20 22  0  0  0  0  0  0  0  0  1 V2000
    0.0000   -6.0873    0.0000 O   0  0  0  0  0  0  0  0  0  0  0  0
    1.0083   -5.2209    0.0000 C   0  0  0  0  0  0  0  0  0  0  0  0
    0.7843   -3.9213    0.0000 C   0  0  0  0  0  0  0  0  0  0  0  0
    1.7926   -3.0549    0.0000 C   0  0  0  0  0  0  0  0  0  0  0  0
    3.0474   -3.5105    0.0000 C   0  0  0  0  0  0  0  0  0  0  0  0
    3.2864   -4.8176    0.0000 C   0  0  0  0  0  0  0  0  0  0  0  0
    2.2631   -5.6840    0.0000 C   0  0  0  0  0  0  0  0  0  0  0  0
    4.0557   -2.6590    0.0000 C   0  0  0  0  0  0  0  0  0  0  0  0
    4.9072   -3.6673    0.0000 C   0  0  0  0  0  0  0  0  0  0  0  0
    4.4591   -4.9147    0.0000 C   0  0  0  0  0  0  0  0  0  0  0  0
    5.3031   -5.9454    0.0000 C   0  0  0  0  0  0  0  0  0  0  0  0
    6.6176   -5.7213    0.0000 C   0  0  0  0  0  0  0  0  0  0  0  0
    7.4691   -6.7446    0.0000 O   0  0  0  0  0  0  0  0  0  0  0  0
    7.0658   -4.4665    0.0000 C   0  0  0  0  0  0  0  0  0  0  0  0
    6.2218   -3.4433    0.0000 C   0  0  0  0  0  0  0  0  0  0  0  0
    5.2060   -2.0017    0.0000 C   0  0  0  0  0  0  0  0  0  0  0  0
    5.2060   -0.6722    0.0000 C   0  0  0  0  0  0  0  0  0  0  0  0
    4.0557    0.0000    0.0000 C   0  0  0  0  0  0  0  0  0  0  0  0
    2.8980   -0.6722    0.0000 C   0  0  0  0  0  0  0  0  0  0  0  0
    2.8980   -2.0017    0.0000 C   0  0  0  0  0  0  0  0  0  0  0  0
  1  2  1  0  0  0  0
  2  3  1  0  0  0  0
  2  7  2  0  0  0  0
  3  4  2  0  0  0  0
  4  5  1  0  0  0  0
  5  6  2  0  0  0  0
  5  8  1  0  0  0  0
  6  7  1  0  0  0  0
  8  9  1  0  0  0  0
  8 16  1  0  0  0  0
  8 20  1  0  0  0  0
  9 10  1  0  0  0  0
  9 15  2  0  0  0  0
 10 11  2  0  0  0  0
 11 12  1  0  0  0  0
 12 13  1  0  0  0  0
 12 14  2  0  0  0  0
 14 15  1  0  0  0  0
 16 17  1  0  0  0  0
 17 18  1  0  0  0  0
 18 19  1  0  0  0  0
 19 20  1  0  0  0  0
M  END
> <ID>
13037

> <Formula>
C18H20O2

> <FW>
268.3502

> <DSSTox_CID>
27939

> <DSSTox_RID>
82691

> <DSSTox_GSID>
47963

> <DSSTox_FileID_Sort>
7368

> <TS_ChemName>
Bisphenol Z

> <TS_ChemName_Synonyms>
Bisphenol Z (1,1'-Bis(4-hydroxyphenyl)cyclohexane)

> <TS_CASRN>
843-55-0

> <CASRN_ChemName_Relationship>
primary

> <TS_Description>
single chemical compound

> <ChemNote>


> <STRUCTURE_Shown>
tested chemical

> <STRUCTURE_Formula>
C18H20O2

> <STRUCTURE_MW>
268.3502

> <STRUCTURE_ChemType>
defined organic

> <STRUCTURE_DefinedOrganicForm>
parent

> <STRUCTURE_IUPAC>
4,4'-cyclohexane-1,1-diyldiphenol

> <STRUCTURE_SMILES>
Oc1ccc(cc1)C2(CCCCC2)c3ccc(O)cc3

> <STRUCTURE_SMILES_Desalt>
Oc1ccc(cc1)C2(CCCCC2)c3ccc(O)cc3

> <Substance_modify_yyyymmdd>
20110418

$$$$
