84366-81-4
ChemmineR-0915142007XD

 55 58  0  0  1  0  0  0  0  0  2 V2000
    3.1779   -5.4684    0.0000 C    0  0  0  0  0  0  0  0  0  0  0  0
    1.8985   -5.4684    0.0000 C    0  0  0  0  0  0  0  0  0  0  0  0
    3.8176   -4.3954    0.0000 N    0  0  0  0  0  0  0  0  0  0  0  0
    3.8176   -6.5827    0.0000 N    0  0  0  0  0  0  0  0  0  0  0  0
    1.3000   -4.3954    0.0000 N    0  0  0  0  0  0  0  0  0  0  0  0
    1.8985   -7.6764    0.0000 N    0  0  0  0  0  0  0  0  0  0  0  0
    1.3000   -6.5827    0.0000 C    0  0  0  0  0  0  0  0  0  0  0  0
    3.1779   -7.6764    0.0000 C    0  0  0  0  0  0  0  0  0  0  0  0
    3.1779   -3.3017    0.0000 C    0  0  0  0  0  0  0  0  0  0  0  0
    1.8985   -3.3017    0.0000 C    0  0  0  0  0  0  0  0  0  0  0  0
    3.8176   -2.1874    0.0000 C    0  0  0  0  0  0  0  0  0  0  0  0
    1.3000   -2.1874    0.0000 C    0  0  0  0  0  0  0  0  0  0  0  0
    3.1779   -1.1143    0.0000 C    0  0  0  0  0  0  0  0  0  0  0  0
    1.8985   -1.1143    0.0000 C    0  0  0  0  0  0  0  0  0  0  0  0
    0.0000   -6.5827    0.0000 O    0  0  0  0  0  0  0  0  0  0  0  0
    3.8176   -8.7701    0.0000 O    0  0  0  0  0  0  0  0  0  0  0  0
    3.8176    0.0000    0.0000 C    0  0  0  0  0  0  0  0  0  0  0  0
    1.2588    0.0000    0.0000 C    0  0  0  0  0  0  0  0  0  0  0  0
    8.8733   -6.5827    0.0000 C    0  0  0  0  0  0  0  0  0  0  0  0
    7.6145   -6.5827    0.0000 C    0  0  0  0  0  0  0  0  0  0  0  0
    6.9748   -5.4684    0.0000 C    0  0  0  0  0  0  0  0  0  0  0  0
    5.7161   -5.4684    0.0000 C    0  0  0  0  0  0  0  0  0  0  0  0
    5.0763   -4.3954    0.0000 C    0  0  0  0  0  0  0  0  0  0  0  0
    6.9748   -7.6764    0.0000 O    0  0  0  0  0  0  0  0  0  0  0  0
    7.6145   -4.3954    0.0000 O    0  0  0  0  0  0  0  0  0  0  0  0
    5.0763   -6.5827    0.0000 O    0  0  0  0  0  0  0  0  0  0  0  0
   19.8927   -4.7874    0.0000 N    0  0  0  0  0  0  0  0  0  0  0  0
   18.6958   -4.3541    0.0000 C    0  0  0  0  0  0  0  0  0  0  0  0
   18.6958   -3.0953    0.0000 C    0  0  0  0  0  0  0  0  0  0  0  0
   19.8927   -2.7445    0.0000 N    0  0  0  0  0  0  0  0  0  0  0  0
   20.6356   -3.7144    0.0000 C    0  0  0  0  0  0  0  0  0  0  0  0
   17.6228   -2.4969    0.0000 C    0  0  0  0  0  0  0  0  0  0  0  0
   17.6228   -5.0144    0.0000 N    0  0  0  0  0  0  0  0  0  0  0  0
   16.5084   -3.0953    0.0000 N    0  0  0  0  0  0  0  0  0  0  0  0
   16.5084   -4.3541    0.0000 C    0  0  0  0  0  0  0  0  0  0  0  0
   17.6228   -1.2381    0.0000 N    0  0  0  0  0  0  0  0  0  0  0  0
   17.5609   -7.1605    0.0000 C    0  0  0  0  0  0  0  0  0  0  0  0
   18.7165   -6.3351    0.0000 O    0  0  0  0  0  0  0  0  0  0  0  0
   17.9942   -8.5225    0.0000 C    0  0  0  0  0  0  0  0  0  0  0  0
   19.8720   -7.1605    0.0000 C    0  0  0  0  0  0  0  0  0  0  0  0
   19.4387   -8.5225    0.0000 C    0  0  0  0  0  0  0  0  0  0  0  0
   20.3054   -9.6781    0.0000 O    0  0  0  0  0  0  0  0  0  0  0  0
   17.1688   -9.6781    0.0000 O    0  0  0  0  0  0  0  0  0  0  0  0
   16.2196   -6.7272    0.0000 C    0  0  0  0  0  0  0  0  0  0  0  0
   14.9608   -7.3875    0.0000 O    0  0  0  0  0  0  0  0  0  0  0  0
   13.6195   -6.6240    0.0000 P    0  0  0  0  0  0  0  0  0  0  0  0
   11.0813   -6.6240    0.0000 P    0  0  0  0  0  0  0  0  0  0  0  0
   12.2163   -7.4082    0.0000 O    0  0  0  0  0  0  0  0  0  0  0  0
   13.6195   -5.3652    0.0000 O    0  0  0  0  0  0  0  0  0  0  0  0
   11.0813   -5.3652    0.0000 O    0  0  0  0  0  0  0  0  0  0  0  0
   13.0417   -7.8828    0.0000 O    0  5  0  0  0  0  0  0  0  0  0  0
    9.8225   -7.4082    0.0000 O    0  0  0  0  0  0  0  0  0  0  0  0
   10.5241   -7.9447    0.0000 O    0  5  0  0  0  0  0  0  0  0  0  0
    9.1622   -9.0590    0.0000 Na   0  3  0  0  0  0  0  0  0  0  0  0
   12.7940   -9.2035    0.0000 Na   0  3  0  0  0  0  0  0  0  0  0  0
  1  2  1  0  0  0  0
  1  3  1  0  0  0  0
  1  4  2  0  0  0  0
  2  5  2  0  0  0  0
  2  7  1  0  0  0  0
  3  9  1  0  0  0  0
  3 23  1  0  0  0  0
  4  8  1  0  0  0  0
  5 10  1  0  0  0  0
  6  8  1  0  0  0  0
  6  7  1  0  0  0  0
  7 15  2  0  0  0  0
  8 16  2  0  0  0  0
  9 10  2  0  0  0  0
  9 11  1  0  0  0  0
 10 12  1  0  0  0  0
 11 13  2  0  0  0  0
 12 14  2  0  0  0  0
 13 14  1  0  0  0  0
 13 17  1  0  0  0  0
 14 18  1  0  0  0  0
 19 20  1  0  0  0  0
 19 52  1  0  0  0  0
 20 21  1  0  0  0  0
 20 24  1  1  0  0  0
 21 22  1  0  0  0  0
 21 25  1  6  0  0  0
 22 23  1  0  0  0  0
 22 26  1  1  0  0  0
 27 28  1  0  0  0  0
 27 31  1  0  0  0  0
 40 27  1  1  0  0  0
 28 29  2  0  0  0  0
 28 33  1  0  0  0  0
 29 32  1  0  0  0  0
 29 30  1  0  0  0  0
 30 31  2  0  0  0  0
 32 36  1  0  0  0  0
 32 34  2  0  0  0  0
 33 35  2  0  0  0  0
 34 35  1  0  0  0  0
 37 38  1  0  0  0  0
 37 39  1  0  0  0  0
 37 44  1  1  0  0  0
 38 40  1  0  0  0  0
 39 41  1  0  0  0  0
 39 43  1  6  0  0  0
 40 41  1  0  0  0  0
 41 42  1  6  0  0  0
 44 45  1  0  0  0  0
 45 46  1  0  0  0  0
 46 48  1  0  0  0  0
 46 49  2  0  0  0  0
 46 51  1  0  0  0  0
 47 48  1  0  0  0  0
 47 50  2  0  0  0  0
 47 52  1  0  0  0  0
 47 53  1  0  0  0  0
M  END
> <ID>
11917

> <Formula>
C27H31N9Na2O15P2

> <FW>
829.5134 (783.5350+22.9892+22.9892)

> <DSSTox_CID>
26723

> <DSSTox_RID>
81853

> <DSSTox_GSID>
46723

> <DSSTox_FileID_Sort>
6534

> <TS_ChemName>
Flavin adenine dinucleotide disodium

> <TS_ChemName_Synonyms>


> <TS_CASRN>
84366-81-4

> <CASRN_ChemName_Relationship>
primary

> <TS_Description>
single chemical compound

> <ChemNote>
parent [146-14-5]

> <STRUCTURE_Shown>
tested chemical

> <STRUCTURE_Formula>
C27H31N9Na2O15P2

> <STRUCTURE_MW>
829.5134

> <STRUCTURE_ChemType>
defined organic

> <STRUCTURE_DefinedOrganicForm>
salt

> <STRUCTURE_IUPAC>
disodium [(2R,3S,4R,5R)-5-(6-amino-9H-purin-9-yl)-3,4-dihydroxytetrahydrofuran-2-yl]methyl (2R,3S,4S)-5-(7,8-dimethyl-2,4-dioxo-3,4-dihydrobenzo[g]pteridin-10(2H)-yl)-2,3,4-trihydroxypentyl dihydrogen diphosphate

> <STRUCTURE_SMILES>
[Na+].[Na+].Cc5cc6N=C1C(=O)NC(=O)N=C1N(C[C@H](O)[C@H](O)[C@H](O)COP([O-])(=O)OP([O-])(=O)OC[C@H]4O[C@@H](n3cnc2c(N)ncnc23)[C@H](O)[C@@H]4O)c6cc5C

> <STRUCTURE_SMILES_Desalt>
Cc5cc6N=C1C(=O)NC(=O)N=C1N(C[C@H](O)[C@H](O)[C@H](O)COP(=O)(O)OP(=O)(O)OC[C@H]4O[C@@H](n3cnc2c(N)ncnc23)[C@H](O)[C@@H]4O)c6cc5C

> <Substance_modify_yyyymmdd>
20110804

$$$$
