84370-95-6
ChemmineR-0915142007XD

 34 35  0  0  0  0  0  0  0  0  1 V2000
    3.4268   -2.6776    0.0000 C    0  0  0  0  0  0  0  0  0  0  0  0
    3.4268   -4.0373    0.0000 C    0  0  0  0  0  0  0  0  0  0  0  0
    4.5645   -2.0117    0.0000 C    0  0  0  0  0  0  0  0  0  0  0  0
    2.2892   -2.0117    0.0000 C    0  0  0  0  0  0  0  0  0  0  0  0
    2.2892   -4.6893    0.0000 C    0  0  0  0  0  0  0  0  0  0  0  0
    4.5645   -4.6893    0.0000 O    0  0  0  0  0  0  0  0  0  0  0  0
    5.7576   -2.6776    0.0000 N    0  0  0  0  0  0  0  0  0  0  0  0
    4.5645   -0.6382    0.0000 O    0  0  0  0  0  0  0  0  0  0  0  0
    1.1793   -2.6776    0.0000 C    0  0  0  0  0  0  0  0  0  0  0  0
    1.1793   -4.0373    0.0000 C    0  0  0  0  0  0  0  0  0  0  0  0
    4.5645   -6.0628    0.0000 C    0  0  0  0  0  0  0  0  0  0  0  0
    6.9508   -2.0117    0.0000 C    0  0  0  0  0  0  0  0  0  0  0  0
    0.0000   -2.0117    0.0000 Cl   0  0  0  0  0  0  0  0  0  0  0  0
    0.0000   -4.6893    0.0000 N    0  0  0  0  0  0  0  0  0  0  0  0
    8.0884   -2.6776    0.0000 C    0  0  0  0  0  0  0  0  0  0  0  0
    6.9508   -0.7076    0.0000 C    0  0  0  0  0  0  0  0  0  0  0  0
    9.2122   -2.0117    0.0000 C    0  0  0  0  0  0  0  0  0  0  0  0
    8.0884    0.0000    0.0000 C    0  0  0  0  0  0  0  0  0  0  0  0
    9.2122   -0.7076    0.0000 N    0  0  0  0  0  0  0  0  0  0  0  0
   10.4331    0.0000    0.0000 C    0  0  0  0  0  0  0  0  0  0  0  0
   11.5707   -0.7076    0.0000 C    0  0  0  0  0  0  0  0  0  0  0  0
   11.5707   -2.0117    0.0000 C    0  0  0  0  0  0  0  0  0  0  0  0
   12.7361    0.0000    0.0000 C    0  0  0  0  0  0  0  0  0  0  0  0
   12.7361   -2.6776    0.0000 C    0  0  0  0  0  0  0  0  0  0  0  0
   13.8738   -0.7076    0.0000 C    0  0  0  0  0  0  0  0  0  0  0  0
   13.8738   -2.0117    0.0000 C    0  0  0  0  0  0  0  0  0  0  0  0
   11.6678   -4.5645    0.0000 C    0  0  0  0  0  0  0  0  0  0  0  0
    9.0318   -4.5645    0.0000 C    0  0  0  0  0  0  0  0  0  0  0  0
    9.6978   -3.4268    0.0000 C    0  0  0  0  0  0  0  0  0  0  0  0
   11.0158   -3.4268    0.0000 C    0  0  0  0  0  0  0  0  0  0  0  0
   11.0158   -5.7021    0.0000 O    0  0  0  0  0  0  0  0  0  0  0  0
    9.6978   -5.7021    0.0000 O    0  0  0  0  0  0  0  0  0  0  0  0
   12.9720   -4.5645    0.0000 O    0  0  0  0  0  0  0  0  0  0  0  0
    7.7277   -4.5645    0.0000 O    0  0  0  0  0  0  0  0  0  0  0  0
  1  2  1  0  0  0  0
  1  3  1  0  0  0  0
  1  4  2  0  0  0  0
  2  5  2  0  0  0  0
  2  6  1  0  0  0  0
  3  7  1  0  0  0  0
  3  8  2  0  0  0  0
  4  9  1  0  0  0  0
  5 10  1  0  0  0  0
  6 11  1  0  0  0  0
  7 12  1  0  0  0  0
  9 13  1  0  0  0  0
  9 10  2  0  0  0  0
 10 14  1  0  0  0  0
 12 15  1  0  0  0  0
 12 16  1  0  0  0  0
 15 17  1  0  0  0  0
 16 18  1  0  0  0  0
 17 19  1  0  0  0  0
 18 19  1  0  0  0  0
 19 20  1  0  0  0  0
 20 21  1  0  0  0  0
 21 22  2  0  0  0  0
 21 23  1  0  0  0  0
 22 24  1  0  0  0  0
 23 25  2  0  0  0  0
 24 26  2  0  0  0  0
 25 26  1  0  0  0  0
 27 30  1  0  0  0  0
 27 31  2  0  0  0  0
 27 33  1  0  0  0  0
 28 29  1  0  0  0  0
 28 32  2  0  0  0  0
 28 34  1  0  0  0  0
 29 30  2  0  0  0  0
M  END
> <ID>
12888

> <Formula>
C24H28ClN3O6

> <FW>
489.9486 (373.8765+116.0722)

> <DSSTox_CID>
27767

> <DSSTox_RID>
82544

> <DSSTox_GSID>
47787

> <DSSTox_FileID_Sort>
7225

> <TS_ChemName>
Clebopride maleate

> <TS_ChemName_Synonyms>


> <TS_CASRN>
84370-95-6

> <CASRN_ChemName_Relationship>
primary

> <TS_Description>
single chemical compound

> <ChemNote>
parent [55905-53-8]

> <STRUCTURE_Shown>
tested chemical

> <STRUCTURE_Formula>
C24H28ClN3O6

> <STRUCTURE_MW>
489.9486

> <STRUCTURE_ChemType>
defined organic

> <STRUCTURE_DefinedOrganicForm>
complex

> <STRUCTURE_IUPAC>
4-amino-N-(1-benzylpiperidin-4-yl)-5-chloro-2-methoxybenzamide (2Z)-but-2-enedioate (1:1)

> <STRUCTURE_SMILES>
O=C(O)/C=C\C(=O)O.Clc1cc(c(OC)cc1N)C(=O)NC3CCN(Cc2ccccc2)CC3

> <STRUCTURE_SMILES_Desalt>
Clc1cc(c(OC)cc1N)C(=O)NC3CCN(Cc2ccccc2)CC3

> <Substance_modify_yyyymmdd>
20110929

$$$$
