84379-13-5
ChemmineR-0915142007XD

 27 30  0  0  1  0  0  0  0  0  1 V2000
    3.6998   -4.2074    0.0000 C    0  0  0  0  0  0  0  0  0  0  0  0
    3.6998   -5.5497    0.0000 N    0  0  0  0  0  0  0  0  0  0  0  0
    4.7495   -3.3728    0.0000 C    0  0  0  0  0  0  0  0  0  0  0  0
    4.7495   -6.3929    0.0000 C    0  0  0  0  0  0  0  0  0  0  0  0
    6.0401   -3.6654    0.0000 N    0  0  0  0  0  0  0  0  0  0  0  0
    6.5822   -4.7151    0.0000 C    0  0  0  0  0  0  0  0  0  0  0  0
    5.9283   -5.8938    0.0000 C    0  0  0  0  0  0  0  0  0  0  0  0
    4.4397   -7.7007    0.0000 O    0  0  0  0  0  0  0  0  0  0  0  0
    7.9416   -4.7151    0.0000 C    0  0  0  0  0  0  0  0  0  0  0  0
    8.6041   -5.8594    0.0000 C    0  0  0  0  0  0  0  0  0  0  0  0
    6.5994   -7.0210    0.0000 C    0  0  0  0  0  0  0  0  0  0  0  0
    7.9416   -7.0210    0.0000 C    0  0  0  0  0  0  0  0  0  0  0  0
    2.4350   -3.8116    0.0000 C    0  0  0  0  0  0  0  0  0  0  0  0
    1.6434   -4.8699    0.0000 C    0  0  0  0  0  0  0  0  0  0  0  0
    2.4178   -5.9713    0.0000 C    0  0  0  0  0  0  0  0  0  0  0  0
    3.6482   -2.8738    0.0000 H    0  0  0  0  0  0  0  0  0  0  0  0
    5.9369   -8.1825    0.0000 Br   0  0  0  0  0  0  0  0  0  0  0  0
    4.6204   -2.0478    0.0000 C    0  0  0  0  0  0  0  0  0  0  0  0
    5.8594   -1.5143    0.0000 N    0  0  0  0  0  0  0  0  0  0  0  0
    6.7284   -2.5296    0.0000 C    0  0  0  0  0  0  0  0  0  0  0  0
    3.4847   -1.3509    0.0000 C    0  0  0  0  0  0  0  0  0  0  0  0
    3.4847    0.0000    0.0000 O    0  0  0  0  0  0  0  0  0  0  0  0
    2.3231   -2.0134    0.0000 O    0  0  0  0  0  0  0  0  0  0  0  0
    1.1788   -1.3681    0.0000 C    0  0  0  0  0  0  0  0  0  0  0  0
    1.8413   -0.1893    0.0000 C    0  0  0  0  0  0  0  0  0  0  0  0
    0.0000   -0.7055    0.0000 C    0  0  0  0  0  0  0  0  0  0  0  0
    0.5162   -2.5124    0.0000 C    0  0  0  0  0  0  0  0  0  0  0  0
  1  3  1  0  0  0  0
  1 13  1  0  0  0  0
  1  2  1  0  0  0  0
  1 16  1  6  0  0  0
  2  4  1  0  0  0  0
  2 15  1  0  0  0  0
  3 18  2  0  0  0  0
  3  5  1  0  0  0  0
  4  7  1  0  0  0  0
  4  8  2  0  0  0  0
  5  6  1  0  0  0  0
  5 20  1  0  0  0  0
  6  9  1  0  0  0  0
  6  7  2  0  0  0  0
  7 11  1  0  0  0  0
  9 10  2  0  0  0  0
 10 12  1  0  0  0  0
 11 12  2  0  0  0  0
 11 17  1  0  0  0  0
 13 14  1  0  0  0  0
 14 15  1  0  0  0  0
 18 19  1  0  0  0  0
 18 21  1  0  0  0  0
 19 20  2  0  0  0  0
 21 22  2  0  0  0  0
 21 23  1  0  0  0  0
 23 24  1  0  0  0  0
 24 25  1  0  0  0  0
 24 26  1  0  0  0  0
 24 27  1  0  0  0  0
M  END
> <ID>
11560

> <Formula>
C19H20BrN3O3

> <FW>
418.2844

> <DSSTox_CID>
26266

> <DSSTox_RID>
81493

> <DSSTox_GSID>
46266

> <DSSTox_FileID_Sort>
6174

> <TS_ChemName>
Bretazenil

> <TS_ChemName_Synonyms>


> <TS_CASRN>
84379-13-5

> <CASRN_ChemName_Relationship>
primary

> <TS_Description>
single chemical compound

> <ChemNote>
stereochem

> <STRUCTURE_Shown>
tested chemical

> <STRUCTURE_Formula>
C19H20BrN3O3

> <STRUCTURE_MW>
418.2844

> <STRUCTURE_ChemType>
defined organic

> <STRUCTURE_DefinedOrganicForm>
parent

> <STRUCTURE_IUPAC>
tert-butyl (13aS)-8-bromo-9-oxo-11,12,13,13a-tetrahydro-9H-imidazo[1,5-a]pyrrolo[2,1-c][1,4]benzodiazepine-1-carboxylate

> <STRUCTURE_SMILES>
CC(C)(C)OC(=O)c1ncn3c1[C@@H]4CCCN4C(=O)c2c3cccc2Br

> <STRUCTURE_SMILES_Desalt>
CC(C)(C)OC(=O)c1ncn3c1[C@@H]4CCCN4C(=O)c2c3cccc2Br

> <Substance_modify_yyyymmdd>
20110816

$$$$
