84392-17-6
ChemmineR-0915142007XD

 19 20  0  0  0  0  0  0  0  0  1 V2000
    5.3107   -1.1533    0.0000 O   0  0  0  0  0  0  0  0  0  0  0  0
    6.6407   -1.1533    0.0000 C   0  0  0  0  0  0  0  0  0  0  0  0
    7.3103    0.0000    0.0000 O   0  0  0  0  0  0  0  0  0  0  0  0
    7.3103   -2.2973    0.0000 C   0  0  0  0  0  0  0  0  0  0  0  0
    8.6403   -2.2973    0.0000 C   0  0  0  0  0  0  0  0  0  0  0  0
    9.3007   -3.4505    0.0000 C   0  0  0  0  0  0  0  0  0  0  0  0
    8.6403   -4.6038    0.0000 C   0  0  0  0  0  0  0  0  0  0  0  0
    7.3103   -4.6038    0.0000 C   0  0  0  0  0  0  0  0  0  0  0  0
    6.6407   -3.4505    0.0000 C   0  0  0  0  0  0  0  0  0  0  0  0
    5.3107   -3.4505    0.0000 C   0  0  0  0  0  0  0  0  0  0  0  0
    4.6503   -4.6038    0.0000 C   0  0  0  0  0  0  0  0  0  0  0  0
    3.3203   -4.6038    0.0000 C   0  0  0  0  0  0  0  0  0  0  0  0
    2.6600   -3.4505    0.0000 C   0  0  0  0  0  0  0  0  0  0  0  0
    3.3203   -2.2973    0.0000 C   0  0  0  0  0  0  0  0  0  0  0  0
    4.6503   -2.2973    0.0000 C   0  0  0  0  0  0  0  0  0  0  0  0
    1.3300   -3.4505    0.0000 C   0  0  0  0  0  0  0  0  0  0  0  0
    1.3300   -4.7805    0.0000 F   0  0  0  0  0  0  0  0  0  0  0  0
    0.0000   -3.4505    0.0000 F   0  0  0  0  0  0  0  0  0  0  0  0
    1.3300   -2.1205    0.0000 F   0  0  0  0  0  0  0  0  0  0  0  0
  1  2  1  0  0  0  0
  2  3  2  0  0  0  0
  2  4  1  0  0  0  0
  4  5  2  0  0  0  0
  4  9  1  0  0  0  0
  5  6  1  0  0  0  0
  6  7  2  0  0  0  0
  7  8  1  0  0  0  0
  8  9  2  0  0  0  0
  9 10  1  0  0  0  0
 10 11  2  0  0  0  0
 10 15  1  0  0  0  0
 11 12  1  0  0  0  0
 12 13  2  0  0  0  0
 13 14  1  0  0  0  0
 13 16  1  0  0  0  0
 14 15  2  0  0  0  0
 16 17  1  0  0  0  0
 16 18  1  0  0  0  0
 16 19  1  0  0  0  0
M  END
> <ID>
11790

> <Formula>
C14H9F3O2

> <FW>
266.2153

> <DSSTox_CID>
26565

> <DSSTox_RID>
81724

> <DSSTox_GSID>
46565

> <DSSTox_FileID_Sort>
6405

> <TS_ChemName>
Xenalipin

> <TS_ChemName_Synonyms>


> <TS_CASRN>
84392-17-6

> <CASRN_ChemName_Relationship>
primary

> <TS_Description>
single chemical compound

> <ChemNote>


> <STRUCTURE_Shown>
tested chemical

> <STRUCTURE_Formula>
C14H9F3O2

> <STRUCTURE_MW>
266.2153

> <STRUCTURE_ChemType>
defined organic

> <STRUCTURE_DefinedOrganicForm>
parent

> <STRUCTURE_IUPAC>
4'-(trifluoromethyl)biphenyl-2-carboxylic acid

> <STRUCTURE_SMILES>
OC(=O)c2ccccc2c1ccc(cc1)C(F)(F)F

> <STRUCTURE_SMILES_Desalt>
OC(=O)c2ccccc2c1ccc(cc1)C(F)(F)F

> <Substance_modify_yyyymmdd>
20110810

$$$$
