844-26-8
ChemmineR-0915142007XD

 20 21  0  0  0  0  0  0  0  0  1 V2000
    4.6273   -1.3181    0.0000 S    0  0  0  0  0  0  0  0  0  0  0  0
    5.7702   -1.9818    0.0000 C    0  0  0  0  0  0  0  0  0  0  0  0
    3.4474   -1.9818    0.0000 C    0  0  0  0  0  0  0  0  0  0  0  0
    2.3044   -1.3181    0.0000 C    0  0  0  0  0  0  0  0  0  0  0  0
    6.9317   -1.3181    0.0000 C    0  0  0  0  0  0  0  0  0  0  0  0
    1.1430   -1.9818    0.0000 C    0  0  0  0  0  0  0  0  0  0  0  0
    8.0747   -1.9818    0.0000 C    0  0  0  0  0  0  0  0  0  0  0  0
    5.7702   -3.3184    0.0000 C    0  0  0  0  0  0  0  0  0  0  0  0
    3.4474   -3.3184    0.0000 C    0  0  0  0  0  0  0  0  0  0  0  0
    1.1430   -3.3184    0.0000 C    0  0  0  0  0  0  0  0  0  0  0  0
    8.0747   -3.3184    0.0000 C    0  0  0  0  0  0  0  0  0  0  0  0
    4.6273    0.0000    0.0000 O    0  0  0  0  0  0  0  0  0  0  0  0
    2.3044   -3.9820    0.0000 C    0  0  0  0  0  0  0  0  0  0  0  0
    6.9317   -3.9820    0.0000 C    0  0  0  0  0  0  0  0  0  0  0  0
    6.9317    0.0000    0.0000 O    0  0  0  0  0  0  0  0  0  0  0  0
    2.3044    0.0000    0.0000 O    0  0  0  0  0  0  0  0  0  0  0  0
    0.0000   -1.3181    0.0000 Cl   0  0  0  0  0  0  0  0  0  0  0  0
    9.2177   -1.3181    0.0000 Cl   0  0  0  0  0  0  0  0  0  0  0  0
    2.3044   -5.3186    0.0000 Cl   0  0  0  0  0  0  0  0  0  0  0  0
    6.9317   -5.3186    0.0000 Cl   0  0  0  0  0  0  0  0  0  0  0  0
  1  2  1  0  0  0  0
  1  3  1  0  0  0  0
  1 12  2  0  0  0  0
  2  5  1  0  0  0  0
  2  8  2  0  0  0  0
  3  4  1  0  0  0  0
  3  9  2  0  0  0  0
  4  6  2  0  0  0  0
  4 16  1  0  0  0  0
  5  7  2  0  0  0  0
  5 15  1  0  0  0  0
  6 17  1  0  0  0  0
  6 10  1  0  0  0  0
  7 18  1  0  0  0  0
  7 11  1  0  0  0  0
  8 14  1  0  0  0  0
  9 13  1  0  0  0  0
 10 13  2  0  0  0  0
 11 14  2  0  0  0  0
 13 19  1  0  0  0  0
 14 20  1  0  0  0  0
M  END
> <ID>
11519

> <Formula>
C12H6Cl4O3S

> <FW>
372.0512

> <DSSTox_CID>
26225

> <DSSTox_RID>
81452

> <DSSTox_GSID>
46225

> <DSSTox_FileID_Sort>
6133

> <TS_ChemName>
Bithionoloxide

> <TS_ChemName_Synonyms>


> <TS_CASRN>
844-26-8

> <CASRN_ChemName_Relationship>
primary

> <TS_Description>
single chemical compound

> <ChemNote>


> <STRUCTURE_Shown>
tested chemical

> <STRUCTURE_Formula>
C12H6Cl4O3S

> <STRUCTURE_MW>
372.0512

> <STRUCTURE_ChemType>
defined organic

> <STRUCTURE_DefinedOrganicForm>
parent

> <STRUCTURE_IUPAC>
2,2'-sulfinylbis(4,6-dichlorophenol)

> <STRUCTURE_SMILES>
Oc1c(cc(Cl)cc1Cl)S(=O)c2cc(Cl)cc(Cl)c2O

> <STRUCTURE_SMILES_Desalt>
Oc1c(cc(Cl)cc1Cl)S(=O)c2cc(Cl)cc(Cl)c2O

> <Substance_modify_yyyymmdd>
20110817

$$$$
