84466-05-7
ChemmineR-0915142007XD

 19 19  0  0  0  0  0  0  0  0  1 V2000
    6.8926   -5.9957    0.0000 C    0  0  0  0  0  0  0  0  0  0  0  0
    6.8926   -4.6624    0.0000 O    0  0  0  0  0  0  0  0  0  0  0  0
    5.7533   -3.9837    0.0000 C    0  0  0  0  0  0  0  0  0  0  0  0
    4.5978   -4.6463    0.0000 O    0  0  0  0  0  0  0  0  0  0  0  0
    5.7533   -2.6504    0.0000 C    0  0  0  0  0  0  0  0  0  0  0  0
    4.6139   -1.9797    0.0000 C    0  0  0  0  0  0  0  0  0  0  0  0
    3.4504   -2.6342    0.0000 N    0  0  0  0  0  0  0  0  0  0  0  0
    2.3110   -1.9797    0.0000 S    0  0  0  0  0  0  0  0  0  0  0  0
    1.6403   -3.1191    0.0000 O    0  0  0  0  0  0  0  0  0  0  0  0
    2.9736   -0.8242    0.0000 O    0  0  0  0  0  0  0  0  0  0  0  0
    1.1555   -1.3010    0.0000 C    0  0  0  0  0  0  0  0  0  0  0  0
    0.4687   -2.4484    0.0000 F    0  0  0  0  0  0  0  0  0  0  0  0
    1.8181   -0.1454    0.0000 F    0  0  0  0  0  0  0  0  0  0  0  0
    0.0000   -0.6303    0.0000 F    0  0  0  0  0  0  0  0  0  0  0  0
    4.6301   -0.6626    0.0000 C    0  0  0  0  0  0  0  0  0  0  0  0
    5.7856    0.0000    0.0000 C    0  0  0  0  0  0  0  0  0  0  0  0
    6.9250   -0.6626    0.0000 C    0  0  0  0  0  0  0  0  0  0  0  0
    6.9250   -1.9959    0.0000 C    0  0  0  0  0  0  0  0  0  0  0  0
    8.0805    0.0000    0.0000 Cl   0  0  0  0  0  0  0  0  0  0  0  0
  1  2  1  0  0  0  0
  2  3  1  0  0  0  0
  3  4  2  0  0  0  0
  3  5  1  0  0  0  0
  5  6  2  0  0  0  0
  5 18  1  0  0  0  0
  6  7  1  0  0  0  0
  6 15  1  0  0  0  0
  7  8  1  0  0  0  0
  8  9  2  0  0  0  0
  8 10  2  0  0  0  0
  8 11  1  0  0  0  0
 11 12  1  0  0  0  0
 11 13  1  0  0  0  0
 11 14  1  0  0  0  0
 15 16  2  0  0  0  0
 16 17  1  0  0  0  0
 17 18  2  0  0  0  0
 17 19  1  0  0  0  0
M  END
> <ID>
16240

> <Formula>
C9H7ClF3NO4S

> <FW>
317.6694

> <DSSTox_CID>
31631

> <DSSTox_RID>
97515

> <DSSTox_GSID>
57842

> <DSSTox_FileID_Sort>
8582

> <TS_ChemName>
Amidoflumet

> <TS_ChemName_Synonyms>


> <TS_CASRN>
84466-05-7

> <CASRN_ChemName_Relationship>
primary

> <TS_Description>
single chemical compound

> <ChemNote>


> <STRUCTURE_Shown>
tested chemical

> <STRUCTURE_Formula>
C9H7ClF3NO4S

> <STRUCTURE_MW>
317.6694

> <STRUCTURE_ChemType>
defined organic

> <STRUCTURE_DefinedOrganicForm>
parent

> <STRUCTURE_IUPAC>
methyl 5-chloro-2-{[(trifluoromethyl)sulfonyl]amino}benzoate

> <STRUCTURE_SMILES>
Clc1cc(c(NS(=O)(=O)C(F)(F)F)cc1)C(=O)OC

> <STRUCTURE_SMILES_Desalt>
Clc1cc(c(NS(=O)(=O)C(F)(F)F)cc1)C(=O)OC

> <Substance_modify_yyyymmdd>
20131018

$$$$
