84485-00-7
ChemmineR-0915142007XD

 20 20  0  0  0  0  0  0  0  0  1 V2000
    0.0000   -3.7690    0.0000 Cl   0  0  0  0  0  0  0  0  0  0  0  0
    1.3275   -5.3254    0.0000 C    0  0  0  0  0  0  0  0  0  0  0  0
    1.9989   -4.1734    0.0000 C    0  0  0  0  0  0  0  0  0  0  0  0
    1.3275   -3.0213    0.0000 C    0  0  0  0  0  0  0  0  0  0  0  0
    3.3265   -4.1734    0.0000 C    0  0  0  0  0  0  0  0  0  0  0  0
    3.9903   -5.3254    0.0000 C    0  0  0  0  0  0  0  0  0  0  0  0
    3.3265   -6.4775    0.0000 N    0  0  0  0  0  0  0  0  0  0  0  0
    1.9989   -6.4775    0.0000 C    0  0  0  0  0  0  0  0  0  0  0  0
    3.9903   -7.6296    0.0000 C    0  0  0  0  0  0  0  0  0  0  0  0
    5.3254   -5.3254    0.0000 C    0  0  0  0  0  0  0  0  0  0  0  0
    6.6530   -5.3254    0.0000 C    0  0  0  0  0  0  0  0  0  0  0  0
    6.6530   -6.6530    0.0000 C    0  0  0  0  0  0  0  0  0  0  0  0
    5.3254   -6.6530    0.0000 C    0  0  0  0  0  0  0  0  0  0  0  0
    5.3254   -3.9903    0.0000 C    0  0  0  0  0  0  0  0  0  0  0  0
    4.1734   -3.3265    0.0000 C    0  0  0  0  0  0  0  0  0  0  0  0
    4.1734   -1.9989    0.0000 C    0  0  0  0  0  0  0  0  0  0  0  0
    5.3254   -1.3275    0.0000 C    0  0  0  0  0  0  0  0  0  0  0  0
    5.3254    0.0000    0.0000 Cl   0  0  0  0  0  0  0  0  0  0  0  0
    6.4775   -1.9989    0.0000 C    0  0  0  0  0  0  0  0  0  0  0  0
    6.4775   -3.3265    0.0000 C    0  0  0  0  0  0  0  0  0  0  0  0
  2  3  1  0  0  0  0
  3  4  1  0  0  0  0
  3  5  1  0  0  0  0
  5  6  1  0  0  0  0
  6  7  1  0  0  0  0
  6 10  1  0  0  0  0
  7  8  1  0  0  0  0
  7  9  1  0  0  0  0
 10 11  1  0  0  0  0
 10 13  1  0  0  0  0
 10 14  1  0  0  0  0
 11 12  1  0  0  0  0
 12 13  1  0  0  0  0
 14 15  2  0  0  0  0
 14 20  1  0  0  0  0
 15 16  1  0  0  0  0
 16 17  2  0  0  0  0
 17 18  1  0  0  0  0
 17 19  1  0  0  0  0
 19 20  2  0  0  0  0
M  END
> <ID>
11296

> <Formula>
C17H27Cl2N

> <FW>
316.3090 (36.4609+279.8480)

> <DSSTox_CID>
25927

> <DSSTox_RID>
81228

> <DSSTox_GSID>
45927

> <DSSTox_FileID_Sort>
5909

> <TS_ChemName>
Sibutramine hydrochloride

> <TS_ChemName_Synonyms>


> <TS_CASRN>
84485-00-7

> <CASRN_ChemName_Relationship>
primary

> <TS_Description>
single chemical compound

> <ChemNote>
stereochem; parent [106650-56-0]

> <STRUCTURE_Shown>
tested chemical

> <STRUCTURE_Formula>
C17H27Cl2N

> <STRUCTURE_MW>
316.309

> <STRUCTURE_ChemType>
defined organic

> <STRUCTURE_DefinedOrganicForm>
complex

> <STRUCTURE_IUPAC>
1-[1-(4-chlorophenyl)cyclobutyl]-N,N,3-trimethylbutan-1-amine hydrochloride (1:1)

> <STRUCTURE_SMILES>
Cl.CN(C)C(CC(C)C)C1(CCC1)c2ccc(Cl)cc2

> <STRUCTURE_SMILES_Desalt>
CN(C)C(CC(C)C)C1(CCC1)c2ccc(Cl)cc2

> <Substance_modify_yyyymmdd>
20110930

$$$$
