84504-69-8
ChemmineR-0915142007XD

 24 24  0  0  0  0  0  0  0  0  1 V2000
    2.3205   -4.0016    0.0000 C    0  0  0  0  0  0  0  0  0  0  0  0
    3.4653   -4.6616    0.0000 N    0  0  0  0  0  0  0  0  0  0  0  0
    1.1654   -4.6616    0.0000 N    0  0  0  0  0  0  0  0  0  0  0  0
    2.3205   -2.6608    0.0000 C    0  0  0  0  0  0  0  0  0  0  0  0
    2.3205   -6.6624    0.0000 N    0  0  0  0  0  0  0  0  0  0  0  0
    3.4653   -6.0024    0.0000 C    0  0  0  0  0  0  0  0  0  0  0  0
    1.1654   -5.9920    0.0000 C    0  0  0  0  0  0  0  0  0  0  0  0
    1.1860   -2.0008    0.0000 C    0  0  0  0  0  0  0  0  0  0  0  0
    3.4756   -1.9905    0.0000 C    0  0  0  0  0  0  0  0  0  0  0  0
    0.0000   -6.6521    0.0000 N    0  0  0  0  0  0  0  0  0  0  0  0
    4.6101   -6.6830    0.0000 N    0  0  0  0  0  0  0  0  0  0  0  0
    1.1860   -0.6601    0.0000 C    0  0  0  0  0  0  0  0  0  0  0  0
    3.4756   -0.6601    0.0000 C    0  0  0  0  0  0  0  0  0  0  0  0
    0.0309   -2.6815    0.0000 Cl   0  0  0  0  0  0  0  0  0  0  0  0
    2.3205   -0.0103    0.0000 C    0  0  0  0  0  0  0  0  0  0  0  0
    4.6307    0.0000    0.0000 Cl   0  0  0  0  0  0  0  0  0  0  0  0
    8.9829   -3.1662    0.0000 C    0  0  0  0  0  0  0  0  0  0  0  0
    6.3221   -3.1662    0.0000 C    0  0  0  0  0  0  0  0  0  0  0  0
    6.9821   -2.0111    0.0000 C    0  0  0  0  0  0  0  0  0  0  0  0
    8.3125   -2.0111    0.0000 C    0  0  0  0  0  0  0  0  0  0  0  0
    8.3125   -4.3110    0.0000 O    0  0  0  0  0  0  0  0  0  0  0  0
    6.9821   -4.3110    0.0000 O    0  0  0  0  0  0  0  0  0  0  0  0
   10.3133   -3.1662    0.0000 O    0  0  0  0  0  0  0  0  0  0  0  0
    4.9916   -3.1662    0.0000 O    0  0  0  0  0  0  0  0  0  0  0  0
  1  2  1  0  0  0  0
  1  3  2  0  0  0  0
  1  4  1  0  0  0  0
  2  6  2  0  0  0  0
  3  7  1  0  0  0  0
  4  8  1  0  0  0  0
  4  9  2  0  0  0  0
  5  7  2  0  0  0  0
  5  6  1  0  0  0  0
  6 11  1  0  0  0  0
  7 10  1  0  0  0  0
  8 12  2  0  0  0  0
  8 14  1  0  0  0  0
  9 13  1  0  0  0  0
 12 15  1  0  0  0  0
 13 15  2  0  0  0  0
 13 16  1  0  0  0  0
 17 20  1  0  0  0  0
 17 21  2  0  0  0  0
 17 23  1  0  0  0  0
 18 19  1  0  0  0  0
 18 22  2  0  0  0  0
 18 24  1  0  0  0  0
 19 20  2  0  0  0  0
M  END
> <ID>
7622

> <Formula>
C13H11Cl2N5O4

> <FW>
372.1635 (256.0914+116.0722)

> <DSSTox_CID>
20234

> <DSSTox_RID>
79454

> <DSSTox_GSID>
40234

> <DSSTox_FileID_Sort>
4136

> <TS_ChemName>
Irsogladine maleate

> <TS_ChemName_Synonyms>


> <TS_CASRN>
84504-69-8

> <CASRN_ChemName_Relationship>
primary

> <TS_Description>
single chemical compound

> <ChemNote>
stereochem; parent [57381-26-7]

> <STRUCTURE_Shown>
tested chemical

> <STRUCTURE_Formula>
C13H11Cl2N5O4

> <STRUCTURE_MW>
372.1635

> <STRUCTURE_ChemType>
defined organic

> <STRUCTURE_DefinedOrganicForm>
complex

> <STRUCTURE_IUPAC>
6-(2,5-dichlorophenyl)-1,3,5-triazine-2,4-diamine (2Z)-but-2-enedioate (1:1)

> <STRUCTURE_SMILES>
Nc1nc(nc(N)n1)c2cc(Cl)ccc2Cl.O=C(O)/C=C\C(=O)O

> <STRUCTURE_SMILES_Desalt>
Nc1nc(nc(N)n1)c2cc(Cl)ccc2Cl

> <Substance_modify_yyyymmdd>
20080429

$$$$
