845835-03-2
ChemmineR-0915142007XD

 18 17  0  0  0  0  0  0  0  0  2 V2000
    5.9931   -8.0661    0.0000 C   0  0  0  0  0  0  0  0  0  0  0  0
    5.3317    0.0000    0.0000 C   0  0  0  0  0  0  0  0  0  0  0  0
    5.3317   -6.9127    0.0000 C   0  0  0  0  0  0  0  0  0  0  0  0
    5.9931   -5.7592    0.0000 C   0  0  0  0  0  0  0  0  0  0  0  0
    7.9855   -2.3069    0.0000 C   0  0  0  0  0  0  0  0  0  0  0  0
    7.3240   -1.1535    0.0000 C   0  0  0  0  0  0  0  0  0  0  0  0
    5.3317   -4.6058    0.0000 C   0  0  0  0  0  0  0  0  0  0  0  0
    7.3240   -3.4604    0.0000 C   0  0  0  0  0  0  0  0  0  0  0  0
    5.3317   -2.3069    0.0000 C   0  0  0  0  0  0  0  0  0  0  0  0
    5.9931   -1.1535    0.0000 C   0  0  0  0  0  0  0  0  0  0  0  0
    5.9931   -3.4604    0.0000 N   0  3  0  0  0  0  0  0  0  0  0  0
    0.0000   -2.3069    0.0000 F   0  0  0  0  0  0  0  0  0  0  0  0
    0.6614   -3.4604    0.0000 F   0  0  0  0  0  0  0  0  0  0  0  0
    1.9923   -3.4604    0.0000 F   0  0  0  0  0  0  0  0  0  0  0  0
    1.9923   -1.1535    0.0000 F   0  0  0  0  0  0  0  0  0  0  0  0
    0.6614   -1.1535    0.0000 F   0  0  0  0  0  0  0  0  0  0  0  0
    2.6618   -2.3069    0.0000 F   0  0  0  0  0  0  0  0  0  0  0  0
    1.3309   -2.3069    0.0000 P   0  5  0  0  0  0  0  0  0  0  0  0
  1  3  1  0  0  0  0
  2 10  1  0  0  0  0
  3  4  1  0  0  0  0
  4  7  1  0  0  0  0
  5  6  2  0  0  0  0
  5  8  1  0  0  0  0
  6 10  1  0  0  0  0
  7 11  1  0  0  0  0
  8 11  2  0  0  0  0
  9 10  2  0  0  0  0
  9 11  1  0  0  0  0
 12 18  1  0  0  0  0
 13 18  1  0  0  0  0
 14 18  1  0  0  0  0
 15 18  1  0  0  0  0
 16 18  1  0  0  0  0
 17 18  1  0  0  0  0
M  END
> <ID>
14224

> <Formula>
C10H16F6NP

> <FW>
295.2049 (150.2402+144.9647)

> <DSSTox_CID>
29319

> <DSSTox_RID>
83435

> <DSSTox_GSID>
49360

> <DSSTox_FileID_Sort>
8110

> <TS_ChemName>
1-Butyl-3-methylpyridinium hexafluorophosphate

> <TS_ChemName_Synonyms>


> <TS_CASRN>
845835-03-2

> <CASRN_ChemName_Relationship>
primary

> <TS_Description>
single chemical compound

> <ChemNote>


> <STRUCTURE_Shown>
tested chemical

> <STRUCTURE_Formula>
C10H16F6NP

> <STRUCTURE_MW>
295.2049

> <STRUCTURE_ChemType>
defined organic

> <STRUCTURE_DefinedOrganicForm>
complex

> <STRUCTURE_IUPAC>
1-butyl-3-methylpyridinium hexafluorophosphate

> <STRUCTURE_SMILES>
Cc1ccc[n+](CCCC)c1.F[P-](F)(F)(F)(F)F

> <STRUCTURE_SMILES_Desalt>
Cc1ccc[n+](CCCC)c1

> <Substance_modify_yyyymmdd>
20111204

$$$$
