846-49-1
ChemmineR-0915142007XD

 21 23  0  0  0  0  0  0  0  0  1 V2000
    6.7418   -5.5242    0.0000 C    0  0  0  0  0  0  0  0  0  0  0  0
    5.5919   -6.1857    0.0000 C    0  0  0  0  0  0  0  0  0  0  0  0
    5.5919   -7.5160    0.0000 Cl   0  0  0  0  0  0  0  0  0  0  0  0
    4.4419   -5.5242    0.0000 C    0  0  0  0  0  0  0  0  0  0  0  0
    4.4419   -4.1939    0.0000 C    0  0  0  0  0  0  0  0  0  0  0  0
    5.5919   -3.5250    0.0000 C    0  0  0  0  0  0  0  0  0  0  0  0
    6.7418   -4.1939    0.0000 C    0  0  0  0  0  0  0  0  0  0  0  0
    5.8099   -2.1947    0.0000 N    0  0  0  0  0  0  0  0  0  0  0  0
    4.8704   -1.2552    0.0000 C    0  0  0  0  0  0  0  0  0  0  0  0
    5.3739    0.0000    0.0000 O    0  0  0  0  0  0  0  0  0  0  0  0
    3.5626   -1.3378    0.0000 C    0  0  0  0  0  0  0  0  0  0  0  0
    2.8937   -0.1879    0.0000 O    0  0  0  0  0  0  0  0  0  0  0  0
    2.8110   -2.4352    0.0000 N    0  0  0  0  0  0  0  0  0  0  0  0
    3.1868   -3.6903    0.0000 C    0  0  0  0  0  0  0  0  0  0  0  0
    2.2473   -4.6298    0.0000 C    0  0  0  0  0  0  0  0  0  0  0  0
    2.5103   -5.8925    0.0000 C    0  0  0  0  0  0  0  0  0  0  0  0
    1.5633   -6.8320    0.0000 C    0  0  0  0  0  0  0  0  0  0  0  0
    0.2781   -6.4186    0.0000 C    0  0  0  0  0  0  0  0  0  0  0  0
    0.0000   -5.1409    0.0000 C    0  0  0  0  0  0  0  0  0  0  0  0
    0.9395   -4.2014    0.0000 C    0  0  0  0  0  0  0  0  0  0  0  0
    0.6614   -2.9237    0.0000 Cl   0  0  0  0  0  0  0  0  0  0  0  0
  1  2  2  0  0  0  0
  1  7  1  0  0  0  0
  2  3  1  0  0  0  0
  2  4  1  0  0  0  0
  4  5  2  0  0  0  0
  5  6  1  0  0  0  0
  5 14  1  0  0  0  0
  6  7  2  0  0  0  0
  6  8  1  0  0  0  0
  8  9  1  0  0  0  0
  9 10  2  0  0  0  0
  9 11  1  0  0  0  0
 11 12  1  0  0  0  0
 11 13  1  0  0  0  0
 13 14  2  0  0  0  0
 14 15  1  0  0  0  0
 15 16  2  0  0  0  0
 15 20  1  0  0  0  0
 16 17  1  0  0  0  0
 17 18  2  0  0  0  0
 18 19  1  0  0  0  0
 19 20  2  0  0  0  0
 20 21  1  0  0  0  0
M  END
> <ID>
2901

> <Formula>
C15H10Cl2N2O2

> <FW>
321.1581

> <DSSTox_CID>
3225

> <DSSTox_RID>
76932

> <DSSTox_GSID>
23225

> <DSSTox_FileID_Sort>
1616

> <TS_ChemName>
Lorazepam

> <TS_ChemName_Synonyms>


> <TS_CASRN>
846-49-1

> <CASRN_ChemName_Relationship>
primary

> <TS_Description>
single chemical compound

> <ChemNote>


> <STRUCTURE_Shown>
tested chemical

> <STRUCTURE_Formula>
C15H10Cl2N2O2

> <STRUCTURE_MW>
321.1581

> <STRUCTURE_ChemType>
defined organic

> <STRUCTURE_DefinedOrganicForm>
parent

> <STRUCTURE_IUPAC>
7-chloro-5-(2-chlorophenyl)-3-hydroxy-1,3-dihydro-2H-1,4-benzodiazepin-2-one

> <STRUCTURE_SMILES>
Clc3ccccc3C2=NC(O)C(=O)Nc1ccc(Cl)cc12

> <STRUCTURE_SMILES_Desalt>
Clc3ccccc3C2=NC(O)C(=O)Nc1ccc(Cl)cc12

> <Substance_modify_yyyymmdd>
20080429

$$$$
