84611-23-4
ChemmineR-0915142007XD

 15 15  0  0  0  0  0  0  0  0  1 V2000
    0.4010   -2.9744    0.0000 C   0  0  0  0  0  0  0  0  0  0  0  0
    1.7211   -2.9744    0.0000 C   0  0  0  0  0  0  0  0  0  0  0  0
    2.1389   -1.7211    0.0000 C   0  0  0  0  0  0  0  0  0  0  0  0
    1.0778   -0.9358    0.0000 S   0  0  0  0  0  0  0  0  0  0  0  0
    0.0000   -1.7044    0.0000 C   0  0  0  0  0  0  0  0  0  0  0  0
    2.4982   -4.0522    0.0000 N   0  0  0  0  0  0  0  0  0  0  0  0
    3.8350   -3.9102    0.0000 C   0  0  0  0  0  0  0  0  0  0  0  0
    4.6203   -5.0047    0.0000 O   0  0  0  0  0  0  0  0  0  0  0  0
    3.4005   -1.3034    0.0000 O   0  0  0  0  0  0  0  0  0  0  0  0
    4.3613   -2.6903    0.0000 C   0  0  0  0  0  0  0  0  0  0  0  0
    5.6981   -2.5566    0.0000 S   0  0  0  0  0  0  0  0  0  0  0  0
    6.2162   -1.3535    0.0000 C   0  0  0  0  0  0  0  0  0  0  0  0
    7.5697   -1.2031    0.0000 C   0  0  0  0  0  0  0  0  0  0  0  0
    8.0793    0.0000    0.0000 O   0  0  0  0  0  0  0  0  0  0  0  0
    8.3550   -2.2809    0.0000 O   0  0  0  0  0  0  0  0  0  0  0  0
  1  5  1  0  0  0  0
  1  2  1  0  0  0  0
  2  3  1  0  0  0  0
  2  6  1  0  0  0  0
  3  4  1  0  0  0  0
  3  9  2  0  0  0  0
  4  5  1  0  0  0  0
  6  7  1  0  0  0  0
  7  8  2  0  0  0  0
  7 10  1  0  0  0  0
 10 11  1  0  0  0  0
 11 12  1  0  0  0  0
 12 13  1  0  0  0  0
 13 14  1  0  0  0  0
 13 15  2  0  0  0  0
M  END
> <ID>
13726

> <Formula>
C8H11NO4S2

> <FW>
249.3072

> <DSSTox_CID>
28661

> <DSSTox_RID>
82931

> <DSSTox_GSID>
48735

> <DSSTox_FileID_Sort>
7608

> <TS_ChemName>
Erdosteine

> <TS_ChemName_Synonyms>


> <TS_CASRN>
84611-23-4

> <CASRN_ChemName_Relationship>
primary

> <TS_Description>
single chemical compound

> <ChemNote>


> <STRUCTURE_Shown>
tested chemical

> <STRUCTURE_Formula>
C8H11NO4S2

> <STRUCTURE_MW>
249.3072

> <STRUCTURE_ChemType>
defined organic

> <STRUCTURE_DefinedOrganicForm>
parent

> <STRUCTURE_IUPAC>
({2-oxo-2-[(2-oxotetrahydrothiophen-3-yl)amino]ethyl}sulfanyl)acetic acid

> <STRUCTURE_SMILES>
O=C1SCCC1NC(=O)CSCC(=O)O

> <STRUCTURE_SMILES_Desalt>
O=C1SCCC1NC(=O)CSCC(=O)O

> <Substance_modify_yyyymmdd>
20100107

$$$$
