848-53-3
ChemmineR-0915142007XD

 22 24  0  0  0  0  0  0  0  0  1 V2000
    7.7874   -8.7010    0.0000 C    0  0  0  0  0  0  0  0  0  0  0  0
    6.6911   -7.9527    0.0000 N    0  0  0  0  0  0  0  0  0  0  0  0
    5.5338   -8.6140    0.0000 C    0  0  0  0  0  0  0  0  0  0  0  0
    4.2983   -8.1267    0.0000 C    0  0  0  0  0  0  0  0  0  0  0  0
    3.9067   -6.8564    0.0000 C    0  0  0  0  0  0  0  0  0  0  0  0
    4.6550   -5.7601    0.0000 N    0  0  0  0  0  0  0  0  0  0  0  0
    5.9689   -5.6817    0.0000 C    0  0  0  0  0  0  0  0  0  0  0  0
    6.9086   -6.6215    0.0000 C    0  0  0  0  0  0  0  0  0  0  0  0
    3.9938   -4.6115    0.0000 C    0  0  0  0  0  0  0  0  0  0  0  0
    2.6625   -4.6115    0.0000 C    0  0  0  0  0  0  0  0  0  0  0  0
    1.9925   -5.7601    0.0000 C    0  0  0  0  0  0  0  0  0  0  0  0
    0.6613   -5.7601    0.0000 C    0  0  0  0  0  0  0  0  0  0  0  0
    0.0000   -4.6115    0.0000 C    0  0  0  0  0  0  0  0  0  0  0  0
    0.6613   -3.4543    0.0000 C    0  0  0  0  0  0  0  0  0  0  0  0
    1.9925   -3.4543    0.0000 C    0  0  0  0  0  0  0  0  0  0  0  0
    4.6550   -3.4543    0.0000 C    0  0  0  0  0  0  0  0  0  0  0  0
    3.9938   -2.3058    0.0000 C    0  0  0  0  0  0  0  0  0  0  0  0
    4.6550   -1.1485    0.0000 C    0  0  0  0  0  0  0  0  0  0  0  0
    5.9863   -1.1485    0.0000 C    0  0  0  0  0  0  0  0  0  0  0  0
    6.6476    0.0000    0.0000 Cl   0  0  0  0  0  0  0  0  0  0  0  0
    6.6476   -2.3058    0.0000 C    0  0  0  0  0  0  0  0  0  0  0  0
    5.9863   -3.4543    0.0000 C    0  0  0  0  0  0  0  0  0  0  0  0
  1  2  1  0  0  0  0
  2  3  1  0  0  0  0
  2  8  1  0  0  0  0
  3  4  1  0  0  0  0
  4  5  1  0  0  0  0
  5  6  1  0  0  0  0
  6  7  1  0  0  0  0
  6  9  1  0  0  0  0
  7  8  1  0  0  0  0
  9 10  1  0  0  0  0
  9 16  1  0  0  0  0
 10 11  2  0  0  0  0
 10 15  1  0  0  0  0
 11 12  1  0  0  0  0
 12 13  2  0  0  0  0
 13 14  1  0  0  0  0
 14 15  2  0  0  0  0
 16 17  2  0  0  0  0
 16 22  1  0  0  0  0
 17 18  1  0  0  0  0
 18 19  2  0  0  0  0
 19 20  1  0  0  0  0
 19 21  1  0  0  0  0
 21 22  2  0  0  0  0
M  END
> <ID>
11084

> <Formula>
C19H23ClN2

> <FW>
314.8523

> <DSSTox_CID>
25635

> <DSSTox_RID>
81016

> <DSSTox_GSID>
45635

> <DSSTox_FileID_Sort>
5697

> <TS_ChemName>
Homochlorcyclizine

> <TS_ChemName_Synonyms>


> <TS_CASRN>
848-53-3

> <CASRN_ChemName_Relationship>
primary

> <TS_Description>
single chemical compound

> <ChemNote>


> <STRUCTURE_Shown>
tested chemical

> <STRUCTURE_Formula>
C19H23ClN2

> <STRUCTURE_MW>
314.8523

> <STRUCTURE_ChemType>
defined organic

> <STRUCTURE_DefinedOrganicForm>
parent

> <STRUCTURE_IUPAC>
1-[(4-chlorophenyl)(phenyl)methyl]-4-methyl-1,4-diazepane

> <STRUCTURE_SMILES>
Clc1ccc(cc1)C(c2ccccc2)N3CCCN(C)CC3

> <STRUCTURE_SMILES_Desalt>
Clc1ccc(cc1)C(c2ccccc2)N3CCCN(C)CC3

> <Substance_modify_yyyymmdd>
20100107

$$$$
