84803-46-3
ChemmineR-0915142007XD

 15 16  0  0  0  0  0  0  0  0  1 V2000
    0.0000   -2.3350    0.0000 Cl   0  0  0  0  0  0  0  0  0  0  0  0
    1.3274   -2.3190    0.0000 C    0  0  0  0  0  0  0  0  0  0  0  0
    1.9911   -1.1835    0.0000 C    0  0  0  0  0  0  0  0  0  0  0  0
    3.3186   -1.1675    0.0000 C    0  0  0  0  0  0  0  0  0  0  0  0
    3.9903   -2.3030    0.0000 C    0  0  0  0  0  0  0  0  0  0  0  0
    3.3346   -3.4785    0.0000 C    0  0  0  0  0  0  0  0  0  0  0  0
    1.9991   -3.4785    0.0000 C    0  0  0  0  0  0  0  0  0  0  0  0
    5.3177   -2.3030    0.0000 C    0  0  0  0  0  0  0  0  0  0  0  0
    5.9814   -1.1515    0.0000 C    0  0  0  0  0  0  0  0  0  0  0  0
    7.3088   -1.1515    0.0000 C    0  0  0  0  0  0  0  0  0  0  0  0
    7.9646    0.0000    0.0000 O    0  0  0  0  0  0  0  0  0  0  0  0
    7.9806   -2.3030    0.0000 N    0  0  0  0  0  0  0  0  0  0  0  0
    7.3248   -3.4465    0.0000 C    0  0  0  0  0  0  0  0  0  0  0  0
    7.9965   -4.5980    0.0000 O    0  0  0  0  0  0  0  0  0  0  0  0
    5.9894   -3.4625    0.0000 C    0  0  0  0  0  0  0  0  0  0  0  0
  1  2  1  0  0  0  0
  2  3  2  0  0  0  0
  2  7  1  0  0  0  0
  3  4  1  0  0  0  0
  4  5  2  0  0  0  0
  5  6  1  0  0  0  0
  5  8  1  0  0  0  0
  6  7  2  0  0  0  0
  8  9  1  0  0  0  0
  8 15  1  0  0  0  0
  9 10  1  0  0  0  0
 10 11  2  0  0  0  0
 10 12  1  0  0  0  0
 12 13  1  0  0  0  0
 13 14  2  0  0  0  0
 13 15  1  0  0  0  0
M  END
> <ID>
16241

> <Formula>
C11H10ClNO2

> <FW>
223.6556

> <DSSTox_CID>
31632

> <DSSTox_RID>
97516

> <DSSTox_GSID>
57843

> <DSSTox_FileID_Sort>
8583

> <TS_ChemName>
4-(4-Chlorophenyl)piperidine-2,6-dione

> <TS_ChemName_Synonyms>


> <TS_CASRN>
84803-46-3

> <CASRN_ChemName_Relationship>
primary

> <TS_Description>
single chemical compound

> <ChemNote>


> <STRUCTURE_Shown>
tested chemical

> <STRUCTURE_Formula>
C11H10ClNO2

> <STRUCTURE_MW>
223.6556

> <STRUCTURE_ChemType>
defined organic

> <STRUCTURE_DefinedOrganicForm>
parent

> <STRUCTURE_IUPAC>
4-(4-chlorophenyl)piperidine-2,6-dione

> <STRUCTURE_SMILES>
O=C1CC(CC(=O)N1)c2ccc(Cl)cc2

> <STRUCTURE_SMILES_Desalt>
O=C1CC(CC(=O)N1)c2ccc(Cl)cc2

> <Substance_modify_yyyymmdd>
20131018

$$$$
