848641-69-0
ChemmineR-0915142007XD

 17 16  0  0  0  0  0  0  0  0  2 V2000
    2.3072   -0.4003    0.0000 C   0  0  0  0  0  0  0  0  0  0  0  0
    3.5714    0.0000    0.0000 C   0  0  0  0  0  0  0  0  0  0  0  0
    2.3072   -1.7383    0.0000 N   0  0  0  0  0  0  0  0  0  0  0  0
    4.3510   -1.0641    0.0000 N   0  3  0  0  0  0  0  0  0  0  0  0
    3.5609   -2.1386    0.0000 C   0  0  0  0  0  0  0  0  0  0  0  0
    5.6890   -1.0641    0.0000 C   0  0  0  0  0  0  0  0  0  0  0  0
    1.2221   -2.5284    0.0000 C   0  0  0  0  0  0  0  0  0  0  0  0
    0.0000   -1.9912    0.0000 C   0  0  0  0  0  0  0  0  0  0  0  0
    7.1955   -4.1193    0.0000 P   0  0  0  0  0  0  0  0  0  0  0  0
    5.8681   -4.1193    0.0000 O   0  0  0  0  0  0  0  0  0  0  0  0
    7.1955   -2.8024    0.0000 O   0  0  0  0  0  0  0  0  0  0  0  0
    7.1955   -5.4572    0.0000 O   0  5  0  0  0  0  0  0  0  0  0  0
    8.5230   -4.1193    0.0000 O   0  0  0  0  0  0  0  0  0  0  0  0
    9.1972   -5.2781    0.0000 C   0  0  0  0  0  0  0  0  0  0  0  0
   10.5352   -5.2781    0.0000 C   0  0  0  0  0  0  0  0  0  0  0  0
    8.3439   -2.1386    0.0000 C   0  0  0  0  0  0  0  0  0  0  0  0
    8.3439   -0.8217    0.0000 C   0  0  0  0  0  0  0  0  0  0  0  0
  1  2  2  0  0  0  0
  1  3  1  0  0  0  0
  2  4  1  0  0  0  0
  3  5  1  0  0  0  0
  3  7  1  0  0  0  0
  4  5  2  0  0  0  0
  4  6  1  0  0  0  0
  7  8  1  0  0  0  0
  9 10  2  0  0  0  0
  9 11  1  0  0  0  0
  9 12  1  0  0  0  0
  9 13  1  0  0  0  0
 11 16  1  0  0  0  0
 13 14  1  0  0  0  0
 14 15  1  0  0  0  0
 16 17  1  0  0  0  0
M  END
> <ID>
12964

> <Formula>
C10H21N2O4P

> <FW>
264.2585 (111.1644+153.0941)

> <DSSTox_CID>
27865

> <DSSTox_RID>
82618

> <DSSTox_GSID>
47889

> <DSSTox_FileID_Sort>
7295

> <TS_ChemName>
1-Ethyl-3-methylimidazolium diethylphosphate

> <TS_ChemName_Synonyms>


> <TS_CASRN>
848641-69-0

> <CASRN_ChemName_Relationship>
primary

> <TS_Description>
single chemical compound

> <ChemNote>
ammonium; parent [65039-03-4]

> <STRUCTURE_Shown>
tested chemical

> <STRUCTURE_Formula>
C10H21N2O4P

> <STRUCTURE_MW>
264.2585

> <STRUCTURE_ChemType>
defined organic

> <STRUCTURE_DefinedOrganicForm>
salt

> <STRUCTURE_IUPAC>
1-ethyl-3-methyl-1H-imidazol-3-ium diethyl phosphate

> <STRUCTURE_SMILES>
C[n+]1ccn(CC)c1.[O-]P(=O)(OCC)OCC

> <STRUCTURE_SMILES_Desalt>
O=P(O)(OCC)OCC

> <Substance_modify_yyyymmdd>
20120612

$$$$
