84878-61-5
ChemmineR-0915142007XD

 71 76  0  0  1  0  0  0  0  0  2 V2000
    3.5141   -7.9843    0.0000 C   0  0  0  0  0  0  0  0  0  0  0  0
    5.8913   -7.9843    0.0000 C   0  0  0  0  0  0  0  0  0  0  0  0
    4.7544   -8.6561    0.0000 O   0  0  0  0  0  0  0  0  0  0  0  0
   10.5424   -7.9843    0.0000 C   0  0  0  0  0  0  0  0  0  0  0  0
    8.1652   -7.9843    0.0000 C   0  0  0  0  0  0  0  0  0  0  0  0
    3.5141   -6.6407    0.0000 C   0  0  0  0  0  0  0  0  0  0  0  0
   18.9143   -9.0179    0.0000 O   0  0  0  0  0  0  0  0  0  0  0  0
   22.6092   -9.4054    0.0000 O   0  0  0  0  0  0  0  0  0  0  0  0
   17.7515   -8.1652    0.0000 C   0  0  0  0  0  0  0  0  0  0  0  0
    5.8913   -6.6407    0.0000 C   0  0  0  0  0  0  0  0  0  0  0  0
   16.3303   -8.1652    0.0000 C   0  0  0  0  0  0  0  0  0  0  0  0
   20.1545   -8.2685    0.0000 C   0  0  0  0  0  0  0  0  0  0  0  0
   23.9529   -9.4054    0.0000 C   0  0  0  0  0  0  0  0  0  0  0  0
    7.0282   -8.6561    0.0000 C   0  0  0  0  0  0  0  0  0  0  0  0
    9.4054   -8.6561    0.0000 O   0  0  0  0  0  0  0  0  0  0  0  0
    4.7544   -5.8913    0.0000 C   0  0  0  0  0  0  0  0  0  0  0  0
   18.3458   -7.0282    0.0000 C   0  0  0  0  0  0  0  0  0  0  0  0
   21.8599   -8.2685    0.0000 C   0  0  0  0  0  0  0  0  0  0  0  0
   15.2968   -8.8111    0.0000 O   0  0  0  0  0  0  0  0  0  0  0  0
   11.6018   -8.8111    0.0000 O   0  0  0  0  0  0  0  0  0  0  0  0
    8.1652   -6.6407    0.0000 C   0  0  0  0  0  0  0  0  0  0  0  0
    2.3772   -8.6561    0.0000 C   0  0  0  0  0  0  0  0  0  0  0  0
   18.9143   -3.9792    0.0000 C   0  0  0  0  0  0  0  0  0  0  0  0
   12.7387   -7.9843    0.0000 C   0  0  0  0  0  0  0  0  0  0  0  0
   10.5424   -6.6407    0.0000 C   0  0  0  0  0  0  0  0  0  0  0  0
   20.1545   -4.6510    0.0000 O   0  0  0  0  0  0  0  0  0  0  0  0
   19.7669   -7.0282    0.0000 C   0  0  0  0  0  0  0  0  0  0  0  0
   18.9143   -2.6614    0.0000 C   0  0  0  0  0  0  0  0  0  0  0  0
    9.4054   -5.8913    0.0000 C   0  0  0  0  0  0  0  0  0  0  0  0
   21.2915   -2.6614    0.0000 C   0  0  0  0  0  0  0  0  0  0  0  0
   20.1545   -1.9896    0.0000 C   0  0  0  0  0  0  0  0  0  0  0  0
   21.2915   -3.9792    0.0000 C   0  0  0  0  0  0  0  0  0  0  0  0
   14.1599   -7.9843    0.0000 C   0  0  0  0  0  0  0  0  0  0  0  0
   18.3458   -5.1162    0.0000 O   0  0  0  0  0  0  0  0  0  0  0  0
   22.6092   -7.2091    0.0000 C   0  0  0  0  0  0  0  0  0  0  0  0
    1.2403   -7.9843    0.0000 C   0  0  0  0  0  0  0  0  0  0  0  0
   24.7022   -8.3460    0.0000 C   0  0  0  0  0  0  0  0  0  0  0  0
   23.9529   -7.2091    0.0000 C   0  0  0  0  0  0  0  0  0  0  0  0
   15.9686   -6.8474    0.0000 C   0  0  0  0  0  0  0  0  0  0  0  0
    0.0000   -8.6561    0.0000 O   0  5  0  0  0  0  0  0  0  0  0  0
   12.2736   -6.8474    0.0000 C   0  0  0  0  0  0  0  0  0  0  0  0
    3.5141   -9.1987    0.0000 O   0  0  0  0  0  0  0  0  0  0  0  0
   11.0075   -6.8474    0.0000 C   0  0  0  0  0  0  0  0  0  0  0  0
   14.5474   -6.8474    0.0000 C   0  0  0  0  0  0  0  0  0  0  0  0
    1.2403   -6.6407    0.0000 O   0  0  0  0  0  0  0  0  0  0  0  0
   23.2811  -10.3357    0.0000 O   0  0  0  0  0  0  0  0  0  0  0  0
    5.8913   -5.4004    0.0000 O   0  0  0  0  0  0  0  0  0  0  0  0
    4.7544   -4.6510    0.0000 O   0  0  0  0  0  0  0  0  0  0  0  0
    9.4054   -4.6510    0.0000 O   0  0  0  0  0  0  0  0  0  0  0  0
   22.4284   -1.9896    0.0000 O   0  0  0  0  0  0  0  0  0  0  0  0
   20.1545   -0.6718    0.0000 O   0  0  0  0  0  0  0  0  0  0  0  0
    2.3772   -5.8913    0.0000 C   0  0  0  0  0  0  0  0  0  0  0  0
   24.8831  -10.2581    0.0000 C   0  0  0  0  0  0  0  0  0  0  0  0
   16.8988   -7.0282    0.0000 C   0  0  0  0  0  0  0  0  0  0  0  0
    7.0282   -9.7930    0.0000 C   0  0  0  0  0  0  0  0  0  0  0  0
    7.2091   -6.0722    0.0000 C   0  0  0  0  0  0  0  0  0  0  0  0
   13.1004   -6.8474    0.0000 C   0  0  0  0  0  0  0  0  0  0  0  0
   22.4284   -4.6510    0.0000 C   0  0  0  0  0  0  0  0  0  0  0  0
   21.8599   -5.9947    0.0000 C   0  0  0  0  0  0  0  0  0  0  0  0
   25.8391   -8.3460    0.0000 C   0  0  0  0  0  0  0  0  0  0  0  0
    6.7440   -4.7544    0.0000 C   0  0  0  0  0  0  0  0  0  0  0  0
    3.5141   -3.7984    0.0000 C   0  0  0  0  0  0  0  0  0  0  0  0
   23.6687   -2.6614    0.0000 C   0  0  0  0  0  0  0  0  0  0  0  0
   21.2915    0.0000    0.0000 C   0  0  0  0  0  0  0  0  0  0  0  0
   17.7515   -9.4054    0.0000 H   0  0  0  0  0  0  0  0  0  0  0  0
   20.1545   -9.5863    0.0000 H   0  0  0  0  0  0  0  0  0  0  0  0
   14.2374   -9.1987    0.0000 H   0  0  0  0  0  0  0  0  0  0  0  0
    5.8913   -9.1987    0.0000 H   0  0  0  0  0  0  0  0  0  0  0  0
    8.1652   -9.1987    0.0000 H   0  0  0  0  0  0  0  0  0  0  0  0
   21.8599   -9.5863    0.0000 H   0  0  0  0  0  0  0  0  0  0  0  0
    0.7493  -10.8266    0.0000 N   0  3  0  0  0  0  0  0  0  0  0  0
  1  3  1  0  0  0  0
  1  6  1  0  0  0  0
  1 22  1  6  0  0  0
  1 42  1  1  0  0  0
  2  3  1  0  0  0  0
  2 14  1  0  0  0  0
  2 68  1  1  0  0  0
  2 10  1  0  0  0  0
  4 15  1  0  0  0  0
  4 20  1  1  0  0  0
  4 43  1  0  0  0  0
  4 25  1  0  0  0  0
  5 14  1  0  0  0  0
  5 15  1  0  0  0  0
  5 21  1  0  0  0  0
  5 69  1  1  0  0  0
  6 16  1  0  0  0  0
  6 52  1  1  0  0  0
  7  9  1  0  0  0  0
  7 12  1  0  0  0  0
  8 18  1  0  0  0  0
  8 13  1  0  0  0  0
  9 11  1  0  0  0  0
  9 17  1  0  0  0  0
  9 65  1  6  0  0  0
 10 16  1  0  0  0  0
 10 47  1  1  0  0  0
 11 19  1  0  0  0  0
 11 54  1  6  0  0  0
 11 39  1  0  0  0  0
 12 18  1  0  0  0  0
 12 66  1  1  0  0  0
 12 27  1  0  0  0  0
 13 46  1  1  0  0  0
 13 53  1  6  0  0  0
 13 37  1  0  0  0  0
 14 55  1  1  0  0  0
 16 48  1  6  0  0  0
 17 27  1  0  0  0  0
 17 34  1  1  0  0  0
 18 35  1  0  0  0  0
 18 70  1  1  0  0  0
 19 33  1  0  0  0  0
 20 24  1  0  0  0  0
 21 29  1  0  0  0  0
 21 56  1  6  0  0  0
 22 36  1  0  0  0  0
 23 34  1  0  0  0  0
 23 26  1  0  0  0  0
 23 28  1  0  0  0  0
 24 33  1  0  0  0  0
 24 57  1  6  0  0  0
 24 41  1  0  0  0  0
 25 29  1  0  0  0  0
 26 32  1  0  0  0  0
 28 31  1  0  0  0  0
 29 49  1  1  0  0  0
 30 31  1  0  0  0  0
 30 50  1  1  0  0  0
 30 32  1  0  0  0  0
 31 51  1  6  0  0  0
 32 58  1  6  0  0  0
 33 44  1  0  0  0  0
 33 67  1  6  0  0  0
 35 38  1  0  0  0  0
 35 59  1  1  0  0  0
 36 40  1  0  0  0  0
 36 45  2  0  0  0  0
 37 38  1  0  0  0  0
 37 60  1  1  0  0  0
 39 44  1  0  0  0  0
 41 43  1  0  0  0  0
 47 61  1  0  0  0  0
 48 62  1  0  0  0  0
 50 63  1  0  0  0  0
 51 64  1  0  0  0  0
M  END
> <ID>
13970

> <Formula>
C47H83NO17

> <FW>
934.1584 (916.1205+18.0379)

> <DSSTox_CID>
28909

> <DSSTox_RID>
83177

> <DSSTox_GSID>
48983

> <DSSTox_FileID_Sort>
7853

> <TS_ChemName>
Maduramicin ammonium

> <TS_ChemName_Synonyms>


> <TS_CASRN>
84878-61-5

> <CASRN_ChemName_Relationship>
primary

> <TS_Description>
single chemical compound

> <ChemNote>


> <STRUCTURE_Shown>
tested chemical

> <STRUCTURE_Formula>
C47H83NO17

> <STRUCTURE_MW>
934.1584

> <STRUCTURE_ChemType>
defined organic

> <STRUCTURE_DefinedOrganicForm>
complex

> <STRUCTURE_IUPAC>
ammonium [(2R,3S,4S,5R,6S)-6-{(1R)-1-[(2S,5R,7S,8R,9S)-2-{(2S,2'R,3'S,5R,5'R)-3'-{[(4S,5S,6S)-4,5-dimethoxy-6-methyltetrahydro-2H-pyran-2-yl]oxy}-5'-[(2S,3S,5R,6S)-6-hydroxy-3,5,6-trimethyltetrahydro-2H-pyran-2-yl]-2-methyloctahydro-2,2'-bifuran-5-yl}-9-h

> <STRUCTURE_SMILES>
[NH4+].O[C@]1(CC([O-])=O)O[C@H]([C@H](OC)[C@@H](OC)[C@@H]1C)[C@H](C)[C@H]2O[C@]3(C[C@H](O)[C@H]2C)CC[C@](C)(O3)[C@H]4CC[C@](C)(O4)[C@@H]6O[C@H](C[C@@H]6OC5C[C@H](OC)[C@@H](OC)[C@H](C)O5)[C@H]7O[C@](C)(O)[C@H](C)C[C@@H]7C

> <STRUCTURE_SMILES_Desalt>
O[C@]1(CC(=O)O)O[C@H]([C@H](OC)[C@@H](OC)[C@@H]1C)[C@H](C)[C@H]2O[C@]3(C[C@H](O)[C@H]2C)CC[C@](C)(O3)[C@H]4CC[C@](C)(O4)[C@@H]6O[C@H](C[C@@H]6OC5C[C@H](OC)[C@@H](OC)[C@H](C)O5)[C@H]7O[C@](C)(O)[C@H](C)C[C@@H]7C

> <Substance_modify_yyyymmdd>
20111204

$$$$
