85-34-7
ChemmineR-0915142007XD

 13 13  0  0  0  0  0  0  0  0  1 V2000
    2.3416   -3.3153    0.0000 C    0  0  0  0  0  0  0  0  0  0  0  0
    3.4825   -3.9723    0.0000 C    0  0  0  0  0  0  0  0  0  0  0  0
    2.3416   -1.9832    0.0000 C    0  0  0  0  0  0  0  0  0  0  0  0
    1.1827   -3.9902    0.0000 C    0  0  0  0  0  0  0  0  0  0  0  0
    3.4825   -1.3321    0.0000 C    0  0  0  0  0  0  0  0  0  0  0  0
    3.4825   -5.3044    0.0000 C    0  0  0  0  0  0  0  0  0  0  0  0
    3.4825    0.0000    0.0000 O    0  0  0  0  0  0  0  0  0  0  0  0
    1.1827   -5.2925    0.0000 C    0  0  0  0  0  0  0  0  0  0  0  0
    2.3416   -5.9615    0.0000 C    0  0  0  0  0  0  0  0  0  0  0  0
    4.6414   -3.2734    0.0000 Cl   0  0  0  0  0  0  0  0  0  0  0  0
    0.0000   -3.3391    0.0000 Cl   0  0  0  0  0  0  0  0  0  0  0  0
    4.6414   -5.9734    0.0000 Cl   0  0  0  0  0  0  0  0  0  0  0  0
    4.6354   -1.9832    0.0000 O    0  0  0  0  0  0  0  0  0  0  0  0
  1  2  1  0  0  0  0
  1  3  1  0  0  0  0
  1  4  2  0  0  0  0
  2  6  2  0  0  0  0
  2 10  1  0  0  0  0
  3  5  1  0  0  0  0
  4  8  1  0  0  0  0
  4 11  1  0  0  0  0
  5  7  2  0  0  0  0
  5 13  1  0  0  0  0
  6 12  1  0  0  0  0
  6  9  1  0  0  0  0
  8  9  2  0  0  0  0
M  END
> <ID>
7661

> <Formula>
C8H5Cl3O2

> <FW>
239.4831

> <DSSTox_CID>
20284

> <DSSTox_RID>
79469

> <DSSTox_GSID>
40284

> <DSSTox_FileID_Sort>
4151

> <TS_ChemName>
Chlorfenac

> <TS_ChemName_Synonyms>
Chlorfenac (Fenac)

> <TS_CASRN>
85-34-7

> <CASRN_ChemName_Relationship>
primary

> <TS_Description>
single chemical compound

> <ChemNote>


> <STRUCTURE_Shown>
tested chemical

> <STRUCTURE_Formula>
C8H5Cl3O2

> <STRUCTURE_MW>
239.4831

> <STRUCTURE_ChemType>
defined organic

> <STRUCTURE_DefinedOrganicForm>
parent

> <STRUCTURE_IUPAC>
(2,3,6-trichlorophenyl)acetic acid

> <STRUCTURE_SMILES>
Clc1c(CC(=O)O)c(Cl)ccc1Cl

> <STRUCTURE_SMILES_Desalt>
Clc1c(CC(=O)O)c(Cl)ccc1Cl

> <Substance_modify_yyyymmdd>
20080429

$$$$
