85-42-7
ChemmineR-0915142007XD

 11 12  0  0  0  0  0  0  0  0  1 V2000
    2.2895   -1.6161    0.0000 C   0  0  0  0  0  0  0  0  0  0  0  0
    2.2895   -3.0279    0.0000 C   0  0  0  0  0  0  0  0  0  0  0  0
    4.3374   -2.3220    0.0000 O   0  0  0  0  0  0  0  0  0  0  0  0
    3.5573   -1.2492    0.0000 C   0  0  0  0  0  0  0  0  0  0  0  0
    3.5573   -3.3947    0.0000 C   0  0  0  0  0  0  0  0  0  0  0  0
    1.1053   -0.9938    0.0000 C   0  0  0  0  0  0  0  0  0  0  0  0
    1.1053   -3.6501    0.0000 C   0  0  0  0  0  0  0  0  0  0  0  0
    0.0000   -3.0279    0.0000 C   0  0  0  0  0  0  0  0  0  0  0  0
    0.0000   -1.6161    0.0000 C   0  0  0  0  0  0  0  0  0  0  0  0
    3.9706   -4.6439    0.0000 O   0  0  0  0  0  0  0  0  0  0  0  0
    3.9706    0.0000    0.0000 O   0  0  0  0  0  0  0  0  0  0  0  0
  1  2  1  0  0  0  0
  1  4  1  0  0  0  0
  1  6  1  0  0  0  0
  2  5  1  0  0  0  0
  2  7  1  0  0  0  0
  3  4  1  0  0  0  0
  3  5  1  0  0  0  0
  4 11  2  0  0  0  0
  5 10  2  0  0  0  0
  6  9  1  0  0  0  0
  7  8  1  0  0  0  0
  8  9  1  0  0  0  0
M  END
> <ID>
4705

> <Formula>
C8H10O3

> <FW>
154.1632

> <DSSTox_CID>
6515

> <DSSTox_RID>
78131

> <DSSTox_GSID>
26515

> <DSSTox_FileID_Sort>
2814

> <TS_ChemName>
Hexahydrophthalic anhydride

> <TS_ChemName_Synonyms>
Hexahydrophthalic anhydride (1,3-Isobenzofurandione, hexahydro-)

> <TS_CASRN>
85-42-7

> <CASRN_ChemName_Relationship>
primary

> <TS_Description>
single chemical compound

> <ChemNote>


> <STRUCTURE_Shown>
tested chemical

> <STRUCTURE_Formula>
C8H10O3

> <STRUCTURE_MW>
154.1632

> <STRUCTURE_ChemType>
defined organic

> <STRUCTURE_DefinedOrganicForm>
parent

> <STRUCTURE_IUPAC>
hexahydro-2-benzofuran-1,3-dione

> <STRUCTURE_SMILES>
O=C1OC(=O)C2CCCCC12

> <STRUCTURE_SMILES_Desalt>
O=C1OC(=O)C2CCCCC12

> <Substance_modify_yyyymmdd>
20080429

$$$$
