85-41-6
ChemmineR-0915142007XD

 11 12  0  0  0  0  0  0  0  0  1 V2000
    2.2895   -1.6161    0.0000 C   0  0  0  0  0  0  0  0  0  0  0  0
    2.2895   -3.0279    0.0000 C   0  0  0  0  0  0  0  0  0  0  0  0
    4.3374   -2.3220    0.0000 N   0  0  0  0  0  0  0  0  0  0  0  0
    3.5573   -1.2492    0.0000 C   0  0  0  0  0  0  0  0  0  0  0  0
    3.5573   -3.3947    0.0000 C   0  0  0  0  0  0  0  0  0  0  0  0
    1.1053   -0.9938    0.0000 C   0  0  0  0  0  0  0  0  0  0  0  0
    1.1053   -3.6501    0.0000 C   0  0  0  0  0  0  0  0  0  0  0  0
    0.0000   -3.0279    0.0000 C   0  0  0  0  0  0  0  0  0  0  0  0
    0.0000   -1.6161    0.0000 C   0  0  0  0  0  0  0  0  0  0  0  0
    3.9706   -4.6439    0.0000 O   0  0  0  0  0  0  0  0  0  0  0  0
    3.9706    0.0000    0.0000 O   0  0  0  0  0  0  0  0  0  0  0  0
  1  2  2  0  0  0  0
  1  4  1  0  0  0  0
  1  6  1  0  0  0  0
  2  5  1  0  0  0  0
  2  7  1  0  0  0  0
  3  4  1  0  0  0  0
  3  5  1  0  0  0  0
  4 11  2  0  0  0  0
  5 10  2  0  0  0  0
  6  9  2  0  0  0  0
  7  8  2  0  0  0  0
  8  9  1  0  0  0  0
M  END
> <ID>
4704

> <Formula>
C8H5NO2

> <FW>
147.1308

> <DSSTox_CID>
6514

> <DSSTox_RID>
78130

> <DSSTox_GSID>
26514

> <DSSTox_FileID_Sort>
2813

> <TS_ChemName>
Phthalimide

> <TS_ChemName_Synonyms>
Phthalimide (1H-Isoindole-1,3(2H)-dione)

> <TS_CASRN>
85-41-6

> <CASRN_ChemName_Relationship>
primary

> <TS_Description>
single chemical compound

> <ChemNote>


> <STRUCTURE_Shown>
tested chemical

> <STRUCTURE_Formula>
C8H5NO2

> <STRUCTURE_MW>
147.1308

> <STRUCTURE_ChemType>
defined organic

> <STRUCTURE_DefinedOrganicForm>
parent

> <STRUCTURE_IUPAC>
1H-isoindole-1,3(2H)-dione

> <STRUCTURE_SMILES>
O=C1NC(=O)c2ccccc12

> <STRUCTURE_SMILES_Desalt>
O=C1NC(=O)c2ccccc12

> <Substance_modify_yyyymmdd>
20080429

$$$$
