85-44-9
ChemmineR-0915142007XD

 11 12  0  0  0  0  0  0  0  0  1 V2000
    4.5940   -2.6089    0.0000 O   0  0  0  0  0  0  0  0  0  0  0  0
    3.2920   -2.8861    0.0000 C   0  0  0  0  0  0  0  0  0  0  0  0
    2.3020   -1.9950    0.0000 C   0  0  0  0  0  0  0  0  0  0  0  0
    1.1535   -2.6584    0.0000 C   0  0  0  0  0  0  0  0  0  0  0  0
    0.0000   -1.9950    0.0000 C   0  0  0  0  0  0  0  0  0  0  0  0
    0.0000   -0.6634    0.0000 C   0  0  0  0  0  0  0  0  0  0  0  0
    1.1535    0.0000    0.0000 C   0  0  0  0  0  0  0  0  0  0  0  0
    2.3020   -0.6634    0.0000 C   0  0  0  0  0  0  0  0  0  0  0  0
    1.4307   -3.9603    0.0000 C   0  0  0  0  0  0  0  0  0  0  0  0
    0.5396   -4.9504    0.0000 O   0  0  0  0  0  0  0  0  0  0  0  0
    2.7524   -4.0990    0.0000 O   0  0  0  0  0  0  0  0  0  0  0  0
  1  2  2  0  0  0  0
  2  3  1  0  0  0  0
  2 11  1  0  0  0  0
  3  4  2  0  0  0  0
  3  8  1  0  0  0  0
  4  5  1  0  0  0  0
  4  9  1  0  0  0  0
  5  6  2  0  0  0  0
  6  7  1  0  0  0  0
  7  8  2  0  0  0  0
  9 10  2  0  0  0  0
  9 11  1  0  0  0  0
M  END
> <ID>
1115

> <Formula>
C8H4O3

> <FW>
148.1156

> <DSSTox_CID>
1159

> <DSSTox_RID>
75982

> <DSSTox_GSID>
21159

> <DSSTox_FileID_Sort>
666

> <TS_ChemName>
Phthalic anhydride

> <TS_ChemName_Synonyms>
Phthalic anhydride (1,3-Isobenzofurandione)

> <TS_CASRN>
85-44-9

> <CASRN_ChemName_Relationship>
primary

> <TS_Description>
single chemical compound

> <ChemNote>


> <STRUCTURE_Shown>
tested chemical

> <STRUCTURE_Formula>
C8H4O3

> <STRUCTURE_MW>
148.1156

> <STRUCTURE_ChemType>
defined organic

> <STRUCTURE_DefinedOrganicForm>
parent

> <STRUCTURE_IUPAC>
2-benzofuran-1,3-dione

> <STRUCTURE_SMILES>
O=C1OC(=O)c2ccccc12

> <STRUCTURE_SMILES_Desalt>
O=C1OC(=O)c2ccccc12

> <Substance_modify_yyyymmdd>
20080429

$$$$
