85-60-9
ChemmineR-0915142007XD

 28 29  0  0  0  0  0  0  0  0  1 V2000
    5.8661   -1.3336    0.0000 C   0  0  0  0  0  0  0  0  0  0  0  0
    5.8661    0.0000    0.0000 O   0  0  0  0  0  0  0  0  0  0  0  0
    7.0225   -2.0051    0.0000 C   0  0  0  0  0  0  0  0  0  0  0  0
    4.7283   -2.0051    0.0000 C   0  0  0  0  0  0  0  0  0  0  0  0
    4.7283   -3.3387    0.0000 C   0  0  0  0  0  0  0  0  0  0  0  0
    7.0225   -3.3387    0.0000 C   0  0  0  0  0  0  0  0  0  0  0  0
    5.8661   -3.9916    0.0000 C   0  0  0  0  0  0  0  0  0  0  0  0
    8.1696   -1.3336    0.0000 C   0  0  0  0  0  0  0  0  0  0  0  0
    7.9645   -0.1306    0.0000 C   0  0  0  0  0  0  0  0  0  0  0  0
    8.9903   -2.2942    0.0000 C   0  0  0  0  0  0  0  0  0  0  0  0
    9.3261   -0.6715    0.0000 C   0  0  0  0  0  0  0  0  0  0  0  0
    3.5719   -3.9916    0.0000 C   0  0  0  0  0  0  0  0  0  0  0  0
    2.4155   -7.3116    0.0000 C   0  0  0  0  0  0  0  0  0  0  0  0
    1.2683   -7.9831    0.0000 O   0  0  0  0  0  0  0  0  0  0  0  0
    2.4155   -5.9780    0.0000 C   0  0  0  0  0  0  0  0  0  0  0  0
    3.5719   -7.9831    0.0000 C   0  0  0  0  0  0  0  0  0  0  0  0
    4.7283   -7.3116    0.0000 C   0  0  0  0  0  0  0  0  0  0  0  0
    3.5719   -5.3252    0.0000 C   0  0  0  0  0  0  0  0  0  0  0  0
    4.7097   -5.9780    0.0000 C   0  0  0  0  0  0  0  0  0  0  0  0
    1.2683   -5.3252    0.0000 C   0  0  0  0  0  0  0  0  0  0  0  0
    0.0000   -5.8195    0.0000 C   0  0  0  0  0  0  0  0  0  0  0  0
    1.1658   -3.8144    0.0000 C   0  0  0  0  0  0  0  0  0  0  0  0
    0.1119   -4.6630    0.0000 C   0  0  0  0  0  0  0  0  0  0  0  0
    5.8661   -7.9831    0.0000 C   0  0  0  0  0  0  0  0  0  0  0  0
    5.8661   -5.3252    0.0000 C   0  0  0  0  0  0  0  0  0  0  0  0
    7.0225   -5.9780    0.0000 C   0  0  0  0  0  0  0  0  0  0  0  0
    8.1696   -5.3252    0.0000 C   0  0  0  0  0  0  0  0  0  0  0  0
    9.3261   -5.9780    0.0000 C   0  0  0  0  0  0  0  0  0  0  0  0
  1  2  1  0  0  0  0
  1  3  2  0  0  0  0
  1  4  1  0  0  0  0
  3  6  1  0  0  0  0
  3  8  1  0  0  0  0
  4  5  2  0  0  0  0
  5  7  1  0  0  0  0
  5 12  1  0  0  0  0
  6  7  2  0  0  0  0
  7 25  1  0  0  0  0
  8  9  1  0  0  0  0
  8 10  1  0  0  0  0
  8 11  1  0  0  0  0
 13 14  1  0  0  0  0
 13 15  2  0  0  0  0
 13 16  1  0  0  0  0
 15 18  1  0  0  0  0
 15 20  1  0  0  0  0
 16 17  2  0  0  0  0
 17 19  1  0  0  0  0
 17 24  1  0  0  0  0
 18 19  2  0  0  0  0
 19 25  1  0  0  0  0
 20 21  1  0  0  0  0
 20 22  1  0  0  0  0
 20 23  1  0  0  0  0
 25 26  1  0  0  0  0
 26 27  1  0  0  0  0
 27 28  1  0  0  0  0
M  END
> <ID>
6067

> <Formula>
C26H38O2

> <FW>
382.5787

> <DSSTox_CID>
9602

> <DSSTox_RID>
78781

> <DSSTox_GSID>
29602

> <DSSTox_FileID_Sort>
3463

> <TS_ChemName>
4,4'-Butane-1,1-diylbis(2-tert-butyl-5-methylphenol)

> <TS_ChemName_Synonyms>


> <TS_CASRN>
85-60-9

> <CASRN_ChemName_Relationship>
primary

> <TS_Description>
single chemical compound

> <ChemNote>


> <STRUCTURE_Shown>
tested chemical

> <STRUCTURE_Formula>
C26H38O2

> <STRUCTURE_MW>
382.5787

> <STRUCTURE_ChemType>
defined organic

> <STRUCTURE_DefinedOrganicForm>
parent

> <STRUCTURE_IUPAC>
4,4'-butane-1,1-diylbis(2-tert-butyl-5-methylphenol)

> <STRUCTURE_SMILES>
CC(C)(C)c1cc(c(C)cc1O)C(CCC)c2cc(c(O)cc2C)C(C)(C)C

> <STRUCTURE_SMILES_Desalt>
CC(C)(C)c1cc(c(C)cc1O)C(CCC)c2cc(c(O)cc2C)C(C)(C)C

> <Substance_modify_yyyymmdd>
20080429

$$$$
