85-69-8
ChemmineR-0915142007XD

 24 24  0  0  0  0  0  0  0  0  1 V2000
    2.2891   -7.3047    0.0000 C   0  0  0  0  0  0  0  0  0  0  0  0
    1.1353   -7.9747    0.0000 C   0  0  0  0  0  0  0  0  0  0  0  0
    0.0000   -7.3047    0.0000 C   0  0  0  0  0  0  0  0  0  0  0  0
    0.0000   -5.9741    0.0000 C   0  0  0  0  0  0  0  0  0  0  0  0
    1.1353   -5.3134    0.0000 C   0  0  0  0  0  0  0  0  0  0  0  0
    2.2891   -5.9741    0.0000 C   0  0  0  0  0  0  0  0  0  0  0  0
    3.4430   -7.9747    0.0000 C   0  0  0  0  0  0  0  0  0  0  0  0
    3.4430   -9.3054    0.0000 O   0  0  0  0  0  0  0  0  0  0  0  0
    4.5969   -7.3047    0.0000 O   0  0  0  0  0  0  0  0  0  0  0  0
    3.4430   -5.3134    0.0000 C   0  0  0  0  0  0  0  0  0  0  0  0
    4.5969   -5.9741    0.0000 O   0  0  0  0  0  0  0  0  0  0  0  0
    3.4430   -3.9920    0.0000 O   0  0  0  0  0  0  0  0  0  0  0  0
    5.7507   -7.9747    0.0000 C   0  0  0  0  0  0  0  0  0  0  0  0
    6.9046   -7.3047    0.0000 C   0  0  0  0  0  0  0  0  0  0  0  0
    6.9046   -5.9741    0.0000 C   0  0  0  0  0  0  0  0  0  0  0  0
    8.0585   -5.3134    0.0000 C   0  0  0  0  0  0  0  0  0  0  0  0
    8.0585   -3.9920    0.0000 C   0  0  0  0  0  0  0  0  0  0  0  0
    9.2124   -3.3127    0.0000 C   0  0  0  0  0  0  0  0  0  0  0  0
    8.0585   -7.9747    0.0000 C   0  0  0  0  0  0  0  0  0  0  0  0
    9.2124   -7.3047    0.0000 C   0  0  0  0  0  0  0  0  0  0  0  0
    2.2891   -3.3127    0.0000 C   0  0  0  0  0  0  0  0  0  0  0  0
    2.2891   -1.9821    0.0000 C   0  0  0  0  0  0  0  0  0  0  0  0
    1.1353   -1.3307    0.0000 C   0  0  0  0  0  0  0  0  0  0  0  0
    1.1353    0.0000    0.0000 C   0  0  0  0  0  0  0  0  0  0  0  0
  1  2  2  0  0  0  0
  1  6  1  0  0  0  0
  1  7  1  0  0  0  0
  2  3  1  0  0  0  0
  3  4  2  0  0  0  0
  4  5  1  0  0  0  0
  5  6  2  0  0  0  0
  6 10  1  0  0  0  0
  7  8  2  0  0  0  0
  7  9  1  0  0  0  0
  9 13  1  0  0  0  0
 10 11  2  0  0  0  0
 10 12  1  0  0  0  0
 12 21  1  0  0  0  0
 13 14  1  0  0  0  0
 14 15  1  0  0  0  0
 14 19  1  0  0  0  0
 15 16  1  0  0  0  0
 16 17  1  0  0  0  0
 17 18  1  0  0  0  0
 19 20  1  0  0  0  0
 21 22  1  0  0  0  0
 22 23  1  0  0  0  0
 23 24  1  0  0  0  0
M  END
> <ID>
4707

> <Formula>
C20H30O4

> <FW>
334.4498

> <DSSTox_CID>
6519

> <DSSTox_RID>
78133

> <DSSTox_GSID>
26519

> <DSSTox_FileID_Sort>
2816

> <TS_ChemName>
Butyl 2-ethylhexyl phthalate

> <TS_ChemName_Synonyms>
Butyl 2-ethylhexyl phthalate (1,2-Benzenedicarboxylic acid, butyl 2-ethylhexyl ester)

> <TS_CASRN>
85-69-8

> <CASRN_ChemName_Relationship>
primary

> <TS_Description>
single chemical compound

> <ChemNote>


> <STRUCTURE_Shown>
tested chemical

> <STRUCTURE_Formula>
C20H30O4

> <STRUCTURE_MW>
334.4498

> <STRUCTURE_ChemType>
defined organic

> <STRUCTURE_DefinedOrganicForm>
parent

> <STRUCTURE_IUPAC>
butyl 2-ethylhexyl benzene-1,2-dicarboxylate

> <STRUCTURE_SMILES>
O=C(OCCCC)c1ccccc1C(=O)OCC(CC)CCCC

> <STRUCTURE_SMILES_Desalt>
O=C(OCCCC)c1ccccc1C(=O)OCC(CC)CCCC

> <Substance_modify_yyyymmdd>
20080429

$$$$
