85-70-1
ChemmineR-0915142007XD

 24 24  0  0  0  0  0  0  0  0  1 V2000
    5.3207   -6.9185    0.0000 C   0  0  0  0  0  0  0  0  0  0  0  0
    6.0077   -5.7521    0.0000 C   0  0  0  0  0  0  0  0  0  0  0  0
    6.0077   -8.0689    0.0000 C   0  0  0  0  0  0  0  0  0  0  0  0
    7.3339   -8.0689    0.0000 C   0  0  0  0  0  0  0  0  0  0  0  0
    7.9890   -6.9185    0.0000 C   0  0  0  0  0  0  0  0  0  0  0  0
    7.3339   -5.7521    0.0000 C   0  0  0  0  0  0  0  0  0  0  0  0
    7.9890   -4.6176    0.0000 C   0  0  0  0  0  0  0  0  0  0  0  0
    5.3207   -4.6176    0.0000 C   0  0  0  0  0  0  0  0  0  0  0  0
    9.3152   -4.6176    0.0000 O   0  0  0  0  0  0  0  0  0  0  0  0
    7.3339   -3.4672    0.0000 O   0  0  0  0  0  0  0  0  0  0  0  0
   10.0022   -3.4672    0.0000 C   0  0  0  0  0  0  0  0  0  0  0  0
    3.9945   -4.6176    0.0000 O   0  0  0  0  0  0  0  0  0  0  0  0
    6.0077   -3.4672    0.0000 O   0  0  0  0  0  0  0  0  0  0  0  0
    3.3394   -3.4672    0.0000 C   0  0  0  0  0  0  0  0  0  0  0  0
    2.0132   -3.4672    0.0000 C   0  0  0  0  0  0  0  0  0  0  0  0
   11.3284   -3.4672    0.0000 C   0  0  0  0  0  0  0  0  0  0  0  0
   11.9835   -2.3168    0.0000 O   0  0  0  0  0  0  0  0  0  0  0  0
   11.9835   -4.6176    0.0000 O   0  0  0  0  0  0  0  0  0  0  0  0
   13.3097   -2.3168    0.0000 C   0  0  0  0  0  0  0  0  0  0  0  0
   13.9967   -1.1504    0.0000 C   0  0  0  0  0  0  0  0  0  0  0  0
   15.3229   -1.1504    0.0000 C   0  0  0  0  0  0  0  0  0  0  0  0
    1.3262   -2.3168    0.0000 C   0  0  0  0  0  0  0  0  0  0  0  0
    0.0000   -2.3168    0.0000 C   0  0  0  0  0  0  0  0  0  0  0  0
   15.9780    0.0000    0.0000 C   0  0  0  0  0  0  0  0  0  0  0  0
  1  2  2  0  0  0  0
  1  3  1  0  0  0  0
  2  6  1  0  0  0  0
  2  8  1  0  0  0  0
  3  4  2  0  0  0  0
  4  5  1  0  0  0  0
  5  6  2  0  0  0  0
  6  7  1  0  0  0  0
  7  9  1  0  0  0  0
  7 10  2  0  0  0  0
  8 12  1  0  0  0  0
  8 13  2  0  0  0  0
  9 11  1  0  0  0  0
 11 16  1  0  0  0  0
 12 14  1  0  0  0  0
 14 15  1  0  0  0  0
 15 22  1  0  0  0  0
 16 17  1  0  0  0  0
 16 18  2  0  0  0  0
 17 19  1  0  0  0  0
 19 20  1  0  0  0  0
 20 21  1  0  0  0  0
 21 24  1  0  0  0  0
 22 23  1  0  0  0  0
M  END
> <ID>
3434

> <Formula>
C18H24O6

> <FW>
336.3796

> <DSSTox_CID>
3938

> <DSSTox_RID>
77237

> <DSSTox_GSID>
23938

> <DSSTox_FileID_Sort>
1920

> <TS_ChemName>
Butylphthalyl butylglycolate

> <TS_ChemName_Synonyms>
Butylphthalyl butylglycolate (BPBG)

> <TS_CASRN>
85-70-1

> <CASRN_ChemName_Relationship>
primary

> <TS_Description>
single chemical compound

> <ChemNote>


> <STRUCTURE_Shown>
tested chemical

> <STRUCTURE_Formula>
C18H24O6

> <STRUCTURE_MW>
336.3796

> <STRUCTURE_ChemType>
defined organic

> <STRUCTURE_DefinedOrganicForm>
parent

> <STRUCTURE_IUPAC>
2-butoxy-2-oxoethyl butyl benzene-1,2-dicarboxylate

> <STRUCTURE_SMILES>
O=C(OCCCC)COC(=O)c1ccccc1C(=O)OCCCC

> <STRUCTURE_SMILES_Desalt>
O=C(OCCCC)COC(=O)c1ccccc1C(=O)OCCCC

> <Substance_modify_yyyymmdd>
20080429

$$$$
