85-79-0
ChemmineR-0915142007XD

 25 26  0  0  0  0  0  0  0  0  1 V2000
    3.4437   -2.9251    0.0000 C   0  0  0  0  0  0  0  0  0  0  0  0
    3.4437   -0.2386    0.0000 N   0  0  0  0  0  0  0  0  0  0  0  0
    3.4437   -4.2528    0.0000 C   0  0  0  0  0  0  0  0  0  0  0  0
    2.3027   -2.2716    0.0000 C   0  0  0  0  0  0  0  0  0  0  0  0
    2.3027   -0.9128    0.0000 C   0  0  0  0  0  0  0  0  0  0  0  0
    4.6054   -0.9128    0.0000 C   0  0  0  0  0  0  0  0  0  0  0  0
    4.6054   -2.2716    0.0000 C   0  0  0  0  0  0  0  0  0  0  0  0
    8.0699   -4.2528    0.0000 N   0  0  0  0  0  0  0  0  0  0  0  0
    2.2923   -4.9063    0.0000 O   0  0  0  0  0  0  0  0  0  0  0  0
    4.5951   -4.9270    0.0000 N   0  0  0  0  0  0  0  0  0  0  0  0
    5.7776   -0.1556    0.0000 O   0  0  0  0  0  0  0  0  0  0  0  0
    5.7464   -4.2528    0.0000 C   0  0  0  0  0  0  0  0  0  0  0  0
    6.9185   -4.9063    0.0000 C   0  0  0  0  0  0  0  0  0  0  0  0
    8.0699   -2.9251    0.0000 C   0  0  0  0  0  0  0  0  0  0  0  0
    9.2005   -4.9270    0.0000 C   0  0  0  0  0  0  0  0  0  0  0  0
    1.1721   -2.9251    0.0000 C   0  0  0  0  0  0  0  0  0  0  0  0
    1.1721   -0.2386    0.0000 C   0  0  0  0  0  0  0  0  0  0  0  0
    6.9497   -0.7779    0.0000 C   0  0  0  0  0  0  0  0  0  0  0  0
    8.0388   -0.1037    0.0000 C   0  0  0  0  0  0  0  0  0  0  0  0
    9.1694   -0.6742    0.0000 C   0  0  0  0  0  0  0  0  0  0  0  0
    6.9185   -2.3027    0.0000 C   0  0  0  0  0  0  0  0  0  0  0  0
   10.3726   -4.2839    0.0000 C   0  0  0  0  0  0  0  0  0  0  0  0
    0.0000   -2.2716    0.0000 C   0  0  0  0  0  0  0  0  0  0  0  0
    0.0000   -0.9128    0.0000 C   0  0  0  0  0  0  0  0  0  0  0  0
   10.3104    0.0000    0.0000 C   0  0  0  0  0  0  0  0  0  0  0  0
  1  3  1  0  0  0  0
  1  4  2  0  0  0  0
  1  7  1  0  0  0  0
  2  6  1  0  0  0  0
  2  5  2  0  0  0  0
  3  9  2  0  0  0  0
  3 10  1  0  0  0  0
  4  5  1  0  0  0  0
  4 16  1  0  0  0  0
  5 17  1  0  0  0  0
  6  7  2  0  0  0  0
  6 11  1  0  0  0  0
  8 13  1  0  0  0  0
  8 14  1  0  0  0  0
  8 15  1  0  0  0  0
 10 12  1  0  0  0  0
 11 18  1  0  0  0  0
 12 13  1  0  0  0  0
 14 21  1  0  0  0  0
 15 22  1  0  0  0  0
 16 23  2  0  0  0  0
 17 24  2  0  0  0  0
 18 19  1  0  0  0  0
 19 20  1  0  0  0  0
 20 25  1  0  0  0  0
 23 24  1  0  0  0  0
M  END
> <ID>
10850

> <Formula>
C20H29N3O2

> <FW>
343.4632

> <DSSTox_CID>
25271

> <DSSTox_RID>
80780

> <DSSTox_GSID>
45271

> <DSSTox_FileID_Sort>
5461

> <TS_ChemName>
Dibucaine

> <TS_ChemName_Synonyms>


> <TS_CASRN>
85-79-0

> <CASRN_ChemName_Relationship>
primary

> <TS_Description>
single chemical compound

> <ChemNote>


> <STRUCTURE_Shown>
tested chemical

> <STRUCTURE_Formula>
C20H29N3O2

> <STRUCTURE_MW>
343.4632

> <STRUCTURE_ChemType>
defined organic

> <STRUCTURE_DefinedOrganicForm>
parent

> <STRUCTURE_IUPAC>
2-butoxy-N-[2-(diethylamino)ethyl]quinoline-4-carboxamide

> <STRUCTURE_SMILES>
CCN(CC)CCNC(=O)c1cc(OCCCC)nc2ccccc12

> <STRUCTURE_SMILES_Desalt>
CCN(CC)CCNC(=O)c1cc(OCCCC)nc2ccccc12

> <Substance_modify_yyyymmdd>
20100107

$$$$
