85-73-4
ChemmineR-0915142007XD

 27 29  0  0  0  0  0  0  0  0  1 V2000
    1.3345   -9.1369    0.0000 C   0  0  0  0  0  0  0  0  0  0  0  0
    1.9957  -10.2910    0.0000 C   0  0  0  0  0  0  0  0  0  0  0  0
    3.3302  -10.2910    0.0000 C   0  0  0  0  0  0  0  0  0  0  0  0
    3.9914   -9.1369    0.0000 C   0  0  0  0  0  0  0  0  0  0  0  0
    3.3302   -7.9827    0.0000 C   0  0  0  0  0  0  0  0  0  0  0  0
    3.9914   -6.8406    0.0000 C   0  0  0  0  0  0  0  0  0  0  0  0
    3.3302   -5.6865    0.0000 O   0  0  0  0  0  0  0  0  0  0  0  0
    5.3258   -6.8406    0.0000 N   0  0  0  0  0  0  0  0  0  0  0  0
    5.9871   -5.6865    0.0000 C   0  0  0  0  0  0  0  0  0  0  0  0
    7.3095   -5.6865    0.0000 C   0  0  0  0  0  0  0  0  0  0  0  0
    7.9827   -4.5324    0.0000 C   0  0  0  0  0  0  0  0  0  0  0  0
    7.3095   -3.3782    0.0000 C   0  0  0  0  0  0  0  0  0  0  0  0
    7.9827   -2.2241    0.0000 S   0  0  0  0  0  0  0  0  0  0  0  0
    9.1369   -2.8974    0.0000 O   0  0  0  0  0  0  0  0  0  0  0  0
    6.8286   -1.5629    0.0000 O   0  0  0  0  0  0  0  0  0  0  0  0
    8.6440   -1.0820    0.0000 N   0  0  0  0  0  0  0  0  0  0  0  0
    9.9784   -1.0820    0.0000 C   0  0  0  0  0  0  0  0  0  0  0  0
   10.7599    0.0000    0.0000 S   0  0  0  0  0  0  0  0  0  0  0  0
   12.0222   -0.4088    0.0000 C   0  0  0  0  0  0  0  0  0  0  0  0
   12.0222   -1.7432    0.0000 C   0  0  0  0  0  0  0  0  0  0  0  0
   10.7599   -2.1520    0.0000 N   0  0  0  0  0  0  0  0  0  0  0  0
    5.9871   -3.3782    0.0000 C   0  0  0  0  0  0  0  0  0  0  0  0
    5.3258   -4.5324    0.0000 C   0  0  0  0  0  0  0  0  0  0  0  0
    1.9957   -7.9827    0.0000 C   0  0  0  0  0  0  0  0  0  0  0  0
    1.3345   -6.8406    0.0000 C   0  0  0  0  0  0  0  0  0  0  0  0
    1.9957   -5.6865    0.0000 O   0  0  0  0  0  0  0  0  0  0  0  0
    0.0000   -6.8406    0.0000 O   0  0  0  0  0  0  0  0  0  0  0  0
  1  2  2  0  0  0  0
  1 24  1  0  0  0  0
  2  3  1  0  0  0  0
  3  4  2  0  0  0  0
  4  5  1  0  0  0  0
  5  6  1  0  0  0  0
  5 24  2  0  0  0  0
  6  7  2  0  0  0  0
  6  8  1  0  0  0  0
  8  9  1  0  0  0  0
  9 10  2  0  0  0  0
  9 23  1  0  0  0  0
 10 11  1  0  0  0  0
 11 12  2  0  0  0  0
 12 13  1  0  0  0  0
 12 22  1  0  0  0  0
 13 14  2  0  0  0  0
 13 15  2  0  0  0  0
 13 16  1  0  0  0  0
 16 17  1  0  0  0  0
 17 18  1  0  0  0  0
 17 21  2  0  0  0  0
 18 19  1  0  0  0  0
 19 20  2  0  0  0  0
 20 21  1  0  0  0  0
 22 23  2  0  0  0  0
 24 25  1  0  0  0  0
 25 26  2  0  0  0  0
 25 27  1  0  0  0  0
M  END
> <ID>
3110

> <Formula>
C17H13N3O5S2

> <FW>
403.4322

> <DSSTox_CID>
3470

> <DSSTox_RID>
77039

> <DSSTox_GSID>
23470

> <DSSTox_FileID_Sort>
1722

> <TS_ChemName>
Phthalylsulfathiazole

> <TS_ChemName_Synonyms>


> <TS_CASRN>
85-73-4

> <CASRN_ChemName_Relationship>
primary

> <TS_Description>
single chemical compound

> <ChemNote>


> <STRUCTURE_Shown>
tested chemical

> <STRUCTURE_Formula>
C17H13N3O5S2

> <STRUCTURE_MW>
403.4322

> <STRUCTURE_ChemType>
defined organic

> <STRUCTURE_DefinedOrganicForm>
parent

> <STRUCTURE_IUPAC>
2-{[4-(1,3-thiazol-2-ylsulfamoyl)phenyl]carbamoyl}benzoic acid

> <STRUCTURE_SMILES>
O=S(=O)(Nc1nccs1)c3ccc(NC(=O)c2ccccc2C(=O)O)cc3

> <STRUCTURE_SMILES_Desalt>
O=S(=O)(Nc1nccs1)c3ccc(NC(=O)c2ccccc2C(=O)O)cc3

> <Substance_modify_yyyymmdd>
20080429

$$$$
