85-83-6
ChemmineR-0915142007XD

 29 32  0  0  0  0  0  0  0  0  1 V2000
    9.2164   -5.9831    0.0000 N   0  0  0  0  0  0  0  0  0  0  0  0
   10.3495   -6.6463    0.0000 C   0  0  0  0  0  0  0  0  0  0  0  0
    8.0695   -6.6463    0.0000 N   0  0  0  0  0  0  0  0  0  0  0  0
    3.4406   -2.6530    0.0000 N   0  0  0  0  0  0  0  0  0  0  0  0
   11.5102   -5.9831    0.0000 C   0  0  0  0  0  0  0  0  0  0  0  0
    3.4406   -3.9795    0.0000 N   0  0  0  0  0  0  0  0  0  0  0  0
    6.9089   -5.9831    0.0000 C   0  0  0  0  0  0  0  0  0  0  0  0
   10.3495   -7.9728    0.0000 C   0  0  0  0  0  0  0  0  0  0  0  0
    5.7482   -6.6463    0.0000 C   0  0  0  0  0  0  0  0  0  0  0  0
    2.3076   -2.0036    0.0000 C   0  0  0  0  0  0  0  0  0  0  0  0
    4.6013   -5.9831    0.0000 C   0  0  0  0  0  0  0  0  0  0  0  0
   12.6570   -6.6463    0.0000 C   0  0  0  0  0  0  0  0  0  0  0  0
    4.6013   -4.6566    0.0000 C   0  0  0  0  0  0  0  0  0  0  0  0
   11.5102   -8.6499    0.0000 C   0  0  0  0  0  0  0  0  0  0  0  0
   12.6570   -7.9728    0.0000 C   0  0  0  0  0  0  0  0  0  0  0  0
    1.1331   -2.6530    0.0000 C   0  0  0  0  0  0  0  0  0  0  0  0
    6.9089   -4.6566    0.0000 C   0  0  0  0  0  0  0  0  0  0  0  0
    5.7482   -3.9795    0.0000 C   0  0  0  0  0  0  0  0  0  0  0  0
    9.2164   -8.6499    0.0000 O   0  0  0  0  0  0  0  0  0  0  0  0
   11.5102   -4.6566    0.0000 C   0  0  0  0  0  0  0  0  0  0  0  0
    5.7482   -7.9728    0.0000 C   0  0  0  0  0  0  0  0  0  0  0  0
    2.3076   -0.6633    0.0000 C   0  0  0  0  0  0  0  0  0  0  0  0
    1.1331   -3.9795    0.0000 C   0  0  0  0  0  0  0  0  0  0  0  0
    0.0000   -2.0036    0.0000 C   0  0  0  0  0  0  0  0  0  0  0  0
   13.8177   -5.9831    0.0000 C   0  0  0  0  0  0  0  0  0  0  0  0
   12.6570   -3.9795    0.0000 C   0  0  0  0  0  0  0  0  0  0  0  0
    0.0000   -0.6633    0.0000 C   0  0  0  0  0  0  0  0  0  0  0  0
    1.1331    0.0000    0.0000 C   0  0  0  0  0  0  0  0  0  0  0  0
   13.8177   -4.6566    0.0000 C   0  0  0  0  0  0  0  0  0  0  0  0
  1  2  1  0  0  0  0
  1  3  2  0  0  0  0
  2  5  1  0  0  0  0
  2  8  2  0  0  0  0
  3  7  1  0  0  0  0
  4  6  2  0  0  0  0
  4 10  1  0  0  0  0
  5 12  2  0  0  0  0
  5 20  1  0  0  0  0
  6 13  1  0  0  0  0
  7  9  1  0  0  0  0
  7 17  2  0  0  0  0
  8 14  1  0  0  0  0
  8 19  1  0  0  0  0
  9 11  2  0  0  0  0
  9 21  1  0  0  0  0
 10 16  1  0  0  0  0
 10 22  2  0  0  0  0
 11 13  1  0  0  0  0
 12 25  1  0  0  0  0
 12 15  1  0  0  0  0
 13 18  2  0  0  0  0
 14 15  2  0  0  0  0
 16 23  1  0  0  0  0
 16 24  2  0  0  0  0
 17 18  1  0  0  0  0
 20 26  2  0  0  0  0
 22 28  1  0  0  0  0
 24 27  1  0  0  0  0
 25 29  2  0  0  0  0
 26 29  1  0  0  0  0
 27 28  2  0  0  0  0
M  END
> <ID>
8697

> <Formula>
C24H20N4O

> <FW>
380.4418

> <DSSTox_CID>
21743

> <DSSTox_RID>
79834

> <DSSTox_GSID>
41743

> <DSSTox_FileID_Sort>
4516

> <TS_ChemName>
C.I. Solvent Red 24

> <TS_ChemName_Synonyms>


> <TS_CASRN>
85-83-6

> <CASRN_ChemName_Relationship>
primary

> <TS_Description>
single chemical compound

> <ChemNote>
C.I. 26105

> <STRUCTURE_Shown>
tested chemical

> <STRUCTURE_Formula>
C24H20N4O

> <STRUCTURE_MW>
380.4418

> <STRUCTURE_ChemType>
defined organic

> <STRUCTURE_DefinedOrganicForm>
parent

> <STRUCTURE_IUPAC>
1-[(E)-{2-methyl-4-[(E)-(2-methylphenyl)diazenyl]phenyl}diazenyl]naphthalen-2-ol

> <STRUCTURE_SMILES>
Cc4ccccc4/N=N/c3ccc(/N=N/c1c2ccccc2ccc1O)c(C)c3

> <STRUCTURE_SMILES_Desalt>
Cc4ccccc4/N=N/c3ccc(/N=N/c1c2ccccc2ccc1O)c(C)c3

> <Substance_modify_yyyymmdd>
20080825

$$$$
