85-98-3
ChemmineR-0915142007XD

 20 21  0  0  0  0  0  0  0  0  1 V2000
    4.6050   -3.9880    0.0000 O   0  0  0  0  0  0  0  0  0  0  0  0
    4.6050   -2.6525    0.0000 C   0  0  0  0  0  0  0  0  0  0  0  0
    3.4538   -1.9894    0.0000 N   0  0  0  0  0  0  0  0  0  0  0  0
    2.3025   -2.6525    0.0000 C   0  0  0  0  0  0  0  0  0  0  0  0
    1.1513   -1.9894    0.0000 C   0  0  0  0  0  0  0  0  0  0  0  0
    0.0000   -2.6525    0.0000 C   0  0  0  0  0  0  0  0  0  0  0  0
    0.0000   -3.9880    0.0000 C   0  0  0  0  0  0  0  0  0  0  0  0
    1.1513   -4.6511    0.0000 C   0  0  0  0  0  0  0  0  0  0  0  0
    2.3025   -3.9880    0.0000 C   0  0  0  0  0  0  0  0  0  0  0  0
    3.4538   -0.6631    0.0000 C   0  0  0  0  0  0  0  0  0  0  0  0
    4.6050    0.0000    0.0000 C   0  0  0  0  0  0  0  0  0  0  0  0
    5.7563   -1.9894    0.0000 N   0  0  0  0  0  0  0  0  0  0  0  0
    6.9076   -2.6525    0.0000 C   0  0  0  0  0  0  0  0  0  0  0  0
    6.9076   -3.9880    0.0000 C   0  0  0  0  0  0  0  0  0  0  0  0
    8.0588   -4.6511    0.0000 C   0  0  0  0  0  0  0  0  0  0  0  0
    9.2101   -3.9880    0.0000 C   0  0  0  0  0  0  0  0  0  0  0  0
    9.2101   -2.6525    0.0000 C   0  0  0  0  0  0  0  0  0  0  0  0
    8.0588   -1.9894    0.0000 C   0  0  0  0  0  0  0  0  0  0  0  0
    5.7563   -0.6631    0.0000 C   0  0  0  0  0  0  0  0  0  0  0  0
    6.9076    0.0000    0.0000 C   0  0  0  0  0  0  0  0  0  0  0  0
  1  2  2  0  0  0  0
  2  3  1  0  0  0  0
  2 12  1  0  0  0  0
  3  4  1  0  0  0  0
  3 10  1  0  0  0  0
  4  5  2  0  0  0  0
  4  9  1  0  0  0  0
  5  6  1  0  0  0  0
  6  7  2  0  0  0  0
  7  8  1  0  0  0  0
  8  9  2  0  0  0  0
 10 11  1  0  0  0  0
 12 13  1  0  0  0  0
 12 19  1  0  0  0  0
 13 14  2  0  0  0  0
 13 18  1  0  0  0  0
 14 15  1  0  0  0  0
 15 16  2  0  0  0  0
 16 17  1  0  0  0  0
 17 18  2  0  0  0  0
 19 20  1  0  0  0  0
M  END
> <ID>
3981

> <Formula>
C17H20N2O

> <FW>
268.3535

> <DSSTox_CID>
5040

> <DSSTox_RID>
77635

> <DSSTox_GSID>
25040

> <DSSTox_FileID_Sort>
2318

> <TS_ChemName>
N,N'-Diethylcarbanilide

> <TS_ChemName_Synonyms>


> <TS_CASRN>
85-98-3

> <CASRN_ChemName_Relationship>
primary

> <TS_Description>
single chemical compound

> <ChemNote>


> <STRUCTURE_Shown>
tested chemical

> <STRUCTURE_Formula>
C17H20N2O

> <STRUCTURE_MW>
268.3535

> <STRUCTURE_ChemType>
defined organic

> <STRUCTURE_DefinedOrganicForm>
parent

> <STRUCTURE_IUPAC>
1,3-diethyl-1,3-diphenylurea

> <STRUCTURE_SMILES>
CCN(C(=O)N(CC)c1ccccc1)c2ccccc2

> <STRUCTURE_SMILES_Desalt>
CCN(C(=O)N(CC)c1ccccc1)c2ccccc2

> <Substance_modify_yyyymmdd>
20080429

$$$$
