85-90-5
ChemmineR-0915142007XD

 12 13  0  0  0  0  0  0  0  0  1 V2000
    0.0000   -1.3301    0.0000 C   0  0  0  0  0  0  0  0  0  0  0  0
    1.1516   -1.9980    0.0000 C   0  0  0  0  0  0  0  0  0  0  0  0
    1.1516   -3.3280    0.0000 C   0  0  0  0  0  0  0  0  0  0  0  0
    2.3031   -3.9902    0.0000 O   0  0  0  0  0  0  0  0  0  0  0  0
    3.4547   -3.3280    0.0000 C   0  0  0  0  0  0  0  0  0  0  0  0
    3.4547   -1.9980    0.0000 C   0  0  0  0  0  0  0  0  0  0  0  0
    4.6063   -1.3301    0.0000 C   0  0  0  0  0  0  0  0  0  0  0  0
    5.7579   -1.9980    0.0000 C   0  0  0  0  0  0  0  0  0  0  0  0
    5.7579   -3.3280    0.0000 C   0  0  0  0  0  0  0  0  0  0  0  0
    4.6063   -3.9902    0.0000 C   0  0  0  0  0  0  0  0  0  0  0  0
    2.3031   -1.3301    0.0000 C   0  0  0  0  0  0  0  0  0  0  0  0
    2.3031    0.0000    0.0000 O   0  0  0  0  0  0  0  0  0  0  0  0
  1  2  1  0  0  0  0
  2  3  2  0  0  0  0
  2 11  1  0  0  0  0
  3  4  1  0  0  0  0
  4  5  1  0  0  0  0
  5  6  2  0  0  0  0
  5 10  1  0  0  0  0
  6  7  1  0  0  0  0
  6 11  1  0  0  0  0
  7  8  2  0  0  0  0
  8  9  1  0  0  0  0
  9 10  2  0  0  0  0
 11 12  2  0  0  0  0
M  END
> <ID>
16243

> <Formula>
C10H8O2

> <FW>
160.1693

> <DSSTox_CID>
31634

> <DSSTox_RID>
97518

> <DSSTox_GSID>
57845

> <DSSTox_FileID_Sort>
8585

> <TS_ChemName>
Methylchromone

> <TS_ChemName_Synonyms>


> <TS_CASRN>
85-90-5

> <CASRN_ChemName_Relationship>
primary

> <TS_Description>
single chemical compound

> <ChemNote>


> <STRUCTURE_Shown>
tested chemical

> <STRUCTURE_Formula>
C10H8O2

> <STRUCTURE_MW>
160.1693

> <STRUCTURE_ChemType>
defined organic

> <STRUCTURE_DefinedOrganicForm>
parent

> <STRUCTURE_IUPAC>
3-methyl-4H-chromen-4-one

> <STRUCTURE_SMILES>
O=C1c2ccccc2OC=C1C

> <STRUCTURE_SMILES_Desalt>
O=C1c2ccccc2OC=C1C

> <Substance_modify_yyyymmdd>
20131018

$$$$
