850-52-2
ChemmineR-0915142007XD

 25 28  0  0  1  0  0  0  0  0  1 V2000
    4.6250   -3.0564    0.0000 C   0  0  0  0  0  0  0  0  0  0  0  0
    3.4831   -3.7138    0.0000 C   0  0  0  0  0  0  0  0  0  0  0  0
    6.9432   -1.7185    0.0000 C   0  0  0  0  0  0  0  0  0  0  0  0
    3.4831   -5.0517    0.0000 C   0  0  0  0  0  0  0  0  0  0  0  0
    5.7783   -3.7138    0.0000 C   0  0  0  0  0  0  0  0  0  0  0  0
    6.9432   -3.0333    0.0000 C   0  0  0  0  0  0  0  0  0  0  0  0
    4.6250   -1.7185    0.0000 C   0  0  0  0  0  0  0  0  0  0  0  0
    5.7783   -1.0611    0.0000 C   0  0  0  0  0  0  0  0  0  0  0  0
    8.2119   -1.3148    0.0000 C   0  0  0  0  0  0  0  0  0  0  0  0
    2.3298   -5.7206    0.0000 C   0  0  0  0  0  0  0  0  0  0  0  0
    2.3298   -3.0564    0.0000 C   0  0  0  0  0  0  0  0  0  0  0  0
    5.7783   -5.0632    0.0000 C   0  0  0  0  0  0  0  0  0  0  0  0
    8.2119   -3.4601    0.0000 C   0  0  0  0  0  0  0  0  0  0  0  0
    4.6250   -5.7206    0.0000 C   0  0  0  0  0  0  0  0  0  0  0  0
    1.1764   -5.0517    0.0000 C   0  0  0  0  0  0  0  0  0  0  0  0
    8.9846   -2.3644    0.0000 C   0  0  0  0  0  0  0  0  0  0  0  0
    0.0000   -5.7206    0.0000 O   0  0  0  0  0  0  0  0  0  0  0  0
   10.1957   -0.1615    0.0000 C   0  0  0  0  0  0  0  0  0  0  0  0
   11.5336   -0.1615    0.0000 C   0  0  0  0  0  0  0  0  0  0  0  0
    1.1764   -3.7138    0.0000 C   0  0  0  0  0  0  0  0  0  0  0  0
    8.2234    0.0000    0.0000 O   0  0  0  0  0  0  0  0  0  0  0  0
    6.9432   -0.4152    0.0000 C   0  0  0  0  0  0  0  0  0  0  0  0
    9.5383   -1.3148    0.0000 C   0  0  0  0  0  0  0  0  0  0  0  0
    5.7783   -2.3990    0.0000 H   0  0  0  0  0  0  0  0  0  0  0  0
    6.9432   -4.3712    0.0000 H   0  0  0  0  0  0  0  0  0  0  0  0
  1  2  2  0  0  0  0
  1  5  1  0  0  0  0
  1  7  1  0  0  0  0
  2  4  1  0  0  0  0
  2 11  1  0  0  0  0
  3  8  1  0  0  0  0
  3  9  1  0  0  0  0
  3 22  1  1  0  0  0
  3  6  1  0  0  0  0
  4 10  2  0  0  0  0
  4 14  1  0  0  0  0
  5  6  1  0  0  0  0
  5 12  1  0  0  0  0
  5 24  1  1  0  0  0
  6 13  1  0  0  0  0
  6 25  1  6  0  0  0
  7  8  2  0  0  0  0
  9 21  1  1  0  0  0
  9 23  1  6  0  0  0
  9 16  1  0  0  0  0
 10 15  1  0  0  0  0
 11 20  1  0  0  0  0
 12 14  1  0  0  0  0
 13 16  1  0  0  0  0
 15 20  1  0  0  0  0
 15 17  2  0  0  0  0
 18 23  1  0  0  0  0
 18 19  2  0  0  0  0
M  END
> <ID>
13852

> <Formula>
C21H26O2

> <FW>
310.4299

> <DSSTox_CID>
28789

> <DSSTox_RID>
83058

> <DSSTox_GSID>
48863

> <DSSTox_FileID_Sort>
7735

> <TS_ChemName>
Altrenogest

> <TS_ChemName_Synonyms>


> <TS_CASRN>
850-52-2

> <CASRN_ChemName_Relationship>
primary

> <TS_Description>
single chemical compound

> <ChemNote>
stereochem

> <STRUCTURE_Shown>
tested chemical

> <STRUCTURE_Formula>
C21H26O2

> <STRUCTURE_MW>
310.4299

> <STRUCTURE_ChemType>
defined organic

> <STRUCTURE_DefinedOrganicForm>
parent

> <STRUCTURE_IUPAC>
(17beta)-17-hydroxy-17-(prop-2-en-1-yl)estra-4,9,11-trien-3-one

> <STRUCTURE_SMILES>
O=C3C=C4CC[C@@H]2C(C=C[C@@]1(C)[C@H]2CC[C@@]1(O)CC=C)=C4CC3

> <STRUCTURE_SMILES_Desalt>
O=C3C=C4CC[C@@H]2C(C=C[C@@]1(C)[C@H]2CC[C@@]1(O)CC=C)=C4CC3

> <Substance_modify_yyyymmdd>
20110217

$$$$
