850140-15-7
ChemmineR-0915142007XD

 18 17  0  0  0  0  0  0  0  0  1 V2000
    5.7602   -1.9995    0.0000 C    0  0  0  0  0  0  0  0  0  0  0  0
    5.7602   -3.3256    0.0000 C    0  0  0  0  0  0  0  0  0  0  0  0
    4.6102   -1.3261    0.0000 C    0  0  0  0  0  0  0  0  0  0  0  0
    4.6102   -3.9886    0.0000 C    0  0  0  0  0  0  0  0  0  0  0  0
    3.4603   -1.9995    0.0000 C    0  0  0  0  0  0  0  0  0  0  0  0
    3.4603   -3.3256    0.0000 C    0  0  0  0  0  0  0  0  0  0  0  0
    6.9205   -3.9886    0.0000 O    0  0  0  0  0  0  0  0  0  0  0  0
    6.9205   -5.3147    0.0000 C    0  0  0  0  0  0  0  0  0  0  0  0
    2.3103   -1.3261    0.0000 O    0  0  0  0  0  0  0  0  0  0  0  0
    2.3103    0.0000    0.0000 C    0  0  0  0  0  0  0  0  0  0  0  0
    2.3103   -3.9886    0.0000 C    0  0  0  0  0  0  0  0  0  0  0  0
    1.1500   -3.3152    0.0000 C    0  0  0  0  0  0  0  0  0  0  0  0
    0.0000   -3.9886    0.0000 N    0  0  0  0  0  0  0  0  0  0  0  0
    6.9205   -1.3261    0.0000 S    0  0  0  0  0  0  0  0  0  0  0  0
    8.0705   -1.9891    0.0000 C    0  0  0  0  0  0  0  0  0  0  0  0
    9.2205   -1.3261    0.0000 C    0  0  0  0  0  0  0  0  0  0  0  0
   10.3601   -1.9891    0.0000 C    0  0  0  0  0  0  0  0  0  0  0  0
    9.7177   -3.9575    0.0000 Cl   0  0  0  0  0  0  0  0  0  0  0  0
  1  2  1  0  0  0  0
  1  3  2  0  0  0  0
  1 14  1  0  0  0  0
  2  4  2  0  0  0  0
  2  7  1  0  0  0  0
  3  5  1  0  0  0  0
  4  6  1  0  0  0  0
  5  6  2  0  0  0  0
  5  9  1  0  0  0  0
  6 11  1  0  0  0  0
  7  8  1  0  0  0  0
  9 10  1  0  0  0  0
 11 12  1  0  0  0  0
 12 13  1  0  0  0  0
 14 15  1  0  0  0  0
 15 16  1  0  0  0  0
 16 17  1  0  0  0  0
M  END
> <ID>
13867

> <Formula>
C13H22ClNO2S

> <FW>
291.8373 (255.3763+36.4609)

> <DSSTox_CID>
28804

> <DSSTox_RID>
83073

> <DSSTox_GSID>
48878

> <DSSTox_FileID_Sort>
7750

> <TS_ChemName>
2-[2,5-dimethoxy-4-(propylsulfanyl)phenyl]ethanamine hydrochloride

> <TS_ChemName_Synonyms>
2,5-Dimethoxy-4-(n)-propylthio-?-phenethylamine Hydrochloride

> <TS_CASRN>
850140-15-7

> <CASRN_ChemName_Relationship>
primary

> <TS_Description>
single chemical compound

> <ChemNote>


> <STRUCTURE_Shown>
tested chemical

> <STRUCTURE_Formula>
C13H22ClNO2S

> <STRUCTURE_MW>
291.8373

> <STRUCTURE_ChemType>
defined organic

> <STRUCTURE_DefinedOrganicForm>
complex

> <STRUCTURE_IUPAC>
2-[2,5-dimethoxy-4-(propylsulfanyl)phenyl]ethanamine hydrochloride (1:1)

> <STRUCTURE_SMILES>
Cl.COc1cc(SCCC)c(cc1CCN)OC

> <STRUCTURE_SMILES_Desalt>
COc1cc(SCCC)c(cc1CCN)OC

> <Substance_modify_yyyymmdd>
20111204

$$$$
