85100-77-2
ChemmineR-0915142007XD

 11 10  0  0  0  0  0  0  0  0  1 V2000
    2.8130   -5.9484    0.0000 C    0  0  0  0  0  0  0  0  0  0  0  0
    8.0602   -1.0720    0.0000 C    0  0  0  0  0  0  0  0  0  0  0  0
    2.6679   -4.6265    0.0000 C    0  0  0  0  0  0  0  0  0  0  0  0
    3.7480   -3.8447    0.0000 C    0  0  0  0  0  0  0  0  0  0  0  0
    3.6110   -2.5228    0.0000 C    0  0  0  0  0  0  0  0  0  0  0  0
    5.9484    0.0000    0.0000 C    0  0  0  0  0  0  0  0  0  0  0  0
    4.6830   -0.4111    0.0000 C    0  0  0  0  0  0  0  0  0  0  0  0
    5.9484   -2.1521    0.0000 C    0  0  0  0  0  0  0  0  0  0  0  0
    6.7302   -1.0720    0.0000 N    0  0  0  0  0  0  0  0  0  0  0  0
    4.6830   -1.7410    0.0000 N    0  0  0  0  0  0  0  0  0  0  0  0
    0.0000   -1.0720    0.0000 Br   0  0  0  0  0  0  0  0  0  0  0  0
  1  3  1  0  0  0  0
  2  9  1  0  0  0  0
  3  4  1  0  0  0  0
  4  5  1  0  0  0  0
  5 10  1  0  0  0  0
  6  7  2  0  0  0  0
  6  9  1  0  0  0  0
  7 10  1  0  0  0  0
  8  9  1  0  0  0  0
  8 10  1  0  0  0  0
M  END
> <ID>
14226

> <Formula>
C8H17BrN2

> <FW>
221.1380 (140.2260+80.9119)

> <DSSTox_CID>
29321

> <DSSTox_RID>
83437

> <DSSTox_GSID>
49362

> <DSSTox_FileID_Sort>
8112

> <TS_ChemName>
1-Butyl-3-methylimidazolium bromide

> <TS_ChemName_Synonyms>


> <TS_CASRN>
85100-77-2

> <CASRN_ChemName_Relationship>
primary

> <TS_Description>
single chemical compound

> <ChemNote>


> <STRUCTURE_Shown>
tested chemical

> <STRUCTURE_Formula>
C8H17BrN2

> <STRUCTURE_MW>
221.138

> <STRUCTURE_ChemType>
defined organic

> <STRUCTURE_DefinedOrganicForm>
complex

> <STRUCTURE_IUPAC>
1-butyl-3-methyl-2,3-dihydro-1H-imidazole hydrobromide (1:1)

> <STRUCTURE_SMILES>
Br.CN1C=CN(CCCC)C1

> <STRUCTURE_SMILES_Desalt>
CN1C=CN(CCCC)C1

> <Substance_modify_yyyymmdd>
20111204

$$$$
