85100-78-3
ChemmineR-0915142007XD

 13 12  0  0  0  0  0  0  0  0  2 V2000
    8.9027   -1.0688    0.0000 N    0  3  0  0  0  0  0  0  0  0  0  0
    6.8533   -1.7519    0.0000 N    0  0  0  0  0  0  0  0  0  0  0  0
    8.1314   -2.1596    0.0000 C    0  0  0  0  0  0  0  0  0  0  0  0
    8.1204    0.0000    0.0000 C    0  0  0  0  0  0  0  0  0  0  0  0
    6.8533   -0.4187    0.0000 C    0  0  0  0  0  0  0  0  0  0  0  0
    5.7845   -2.5342    0.0000 C    0  0  0  0  0  0  0  0  0  0  0  0
    4.5725   -2.0053    0.0000 C    0  0  0  0  0  0  0  0  0  0  0  0
    3.4928   -2.7876    0.0000 C    0  0  0  0  0  0  0  0  0  0  0  0
    2.2808   -2.2477    0.0000 C    0  0  0  0  0  0  0  0  0  0  0  0
    1.2010   -3.0300    0.0000 C    0  0  0  0  0  0  0  0  0  0  0  0
    0.0000   -2.4901    0.0000 C    0  0  0  0  0  0  0  0  0  0  0  0
   10.2359   -1.0688    0.0000 C    0  0  0  0  0  0  0  0  0  0  0  0
   11.0182   -2.4681    0.0000 Br   0  5  0  0  0  0  0  0  0  0  0  0
  1  3  2  0  0  0  0
  1  4  1  0  0  0  0
  1 12  1  0  0  0  0
  2  3  1  0  0  0  0
  2  5  1  0  0  0  0
  2  6  1  0  0  0  0
  4  5  2  0  0  0  0
  6  7  1  0  0  0  0
  7  8  1  0  0  0  0
  8  9  1  0  0  0  0
  9 10  1  0  0  0  0
 10 11  1  0  0  0  0
M  END
> <ID>
13000

> <Formula>
C10H19BrN2

> <FW>
247.1753 (167.2707+79.9045)

> <DSSTox_CID>
27901

> <DSSTox_RID>
82654

> <DSSTox_GSID>
47925

> <DSSTox_FileID_Sort>
7331

> <TS_ChemName>
1-Hexyl-3-methylimidazolium bromide

> <TS_ChemName_Synonyms>


> <TS_CASRN>
85100-78-3

> <CASRN_ChemName_Relationship>
primary

> <TS_Description>
single chemical compound

> <ChemNote>
ammonium; parent [85100-82-9]

> <STRUCTURE_Shown>
tested chemical

> <STRUCTURE_Formula>
C10H19BrN2

> <STRUCTURE_MW>
247.1753

> <STRUCTURE_ChemType>
defined organic

> <STRUCTURE_DefinedOrganicForm>
salt

> <STRUCTURE_IUPAC>
1-hexyl-3-methyl-1H-imidazol-3-ium bromide

> <STRUCTURE_SMILES>
[Br-].C[n+]1ccn(CCCCCC)c1

> <STRUCTURE_SMILES_Desalt>
C[n+]1ccn(CCCCCC)c1

> <Substance_modify_yyyymmdd>
20110417

$$$$
