85100-76-1
ChemmineR-0915142007XD

 10  9  0  0  0  0  0  0  0  0  1 V2000
    2.6679   -4.6265    0.0000 C    0  0  0  0  0  0  0  0  0  0  0  0
    8.0600   -1.0720    0.0000 C    0  0  0  0  0  0  0  0  0  0  0  0
    3.7479   -3.8446    0.0000 C    0  0  0  0  0  0  0  0  0  0  0  0
    3.6109   -2.5228    0.0000 C    0  0  0  0  0  0  0  0  0  0  0  0
    5.9483    0.0000    0.0000 C    0  0  0  0  0  0  0  0  0  0  0  0
    4.6829   -0.4111    0.0000 C    0  0  0  0  0  0  0  0  0  0  0  0
    5.9483   -2.1520    0.0000 C    0  0  0  0  0  0  0  0  0  0  0  0
    6.7301   -1.0720    0.0000 N    0  0  0  0  0  0  0  0  0  0  0  0
    4.6829   -1.7410    0.0000 N    0  0  0  0  0  0  0  0  0  0  0  0
    0.0000   -1.0720    0.0000 Br   0  0  0  0  0  0  0  0  0  0  0  0
  1  3  1  0  0  0  0
  2  8  1  0  0  0  0
  3  4  1  0  0  0  0
  4  9  1  0  0  0  0
  5  6  2  0  0  0  0
  5  8  1  0  0  0  0
  6  9  1  0  0  0  0
  7  8  1  0  0  0  0
  7  9  1  0  0  0  0
M  END
> <ID>
14225

> <Formula>
C7H15BrN2

> <FW>
207.1114 (126.1995+80.9119)

> <DSSTox_CID>
29320

> <DSSTox_RID>
83436

> <DSSTox_GSID>
49361

> <DSSTox_FileID_Sort>
8111

> <TS_ChemName>
1-Methyl-3-propylimidazolium bromide

> <TS_ChemName_Synonyms>


> <TS_CASRN>
85100-76-1

> <CASRN_ChemName_Relationship>
primary

> <TS_Description>
single chemical compound

> <ChemNote>
parent [103963-66-2]

> <STRUCTURE_Shown>
tested chemical

> <STRUCTURE_Formula>
C7H15BrN2

> <STRUCTURE_MW>
207.1114

> <STRUCTURE_ChemType>
defined organic

> <STRUCTURE_DefinedOrganicForm>
complex

> <STRUCTURE_IUPAC>
1-methyl-3-propyl-2,3-dihydro-1H-imidazole hydrobromide (1:1)

> <STRUCTURE_SMILES>
Br.CCCN1C=CN(C)C1

> <STRUCTURE_SMILES_Desalt>
CCCN1C=CN(C)C1

> <Substance_modify_yyyymmdd>
20111204

$$$$
