851916-42-2
ChemmineR-0915142007XD

 41 43  0  0  1  0  0  0  0  0  2 V2000
    4.5848   -0.9235    0.0000 C   0  0  0  0  0  0  0  0  0  0  0  0
    4.5848   -2.2429    0.0000 C   0  0  0  0  0  0  0  0  0  0  0  0
    3.4468   -2.9191    0.0000 C   0  0  0  0  0  0  0  0  0  0  0  0
    2.3089   -2.2429    0.0000 C   0  0  0  0  0  0  0  0  0  0  0  0
    1.1544   -2.9191    0.0000 O   0  0  0  0  0  0  0  0  0  0  0  0
    2.3089   -0.9235    0.0000 C   0  0  0  0  0  0  0  0  0  0  0  0
    3.4468   -0.2639    0.0000 O   0  0  0  0  0  0  0  0  0  0  0  0
    0.0000   -2.2429    0.0000 C   0  0  0  0  0  0  0  0  0  0  0  0
    3.4468   -4.2549    0.0000 N   0  3  0  0  0  0  0  0  0  0  0  0
    4.5848   -4.8981    0.0000 C   0  0  0  0  0  0  0  0  0  0  0  0
    4.7332   -6.2175    0.0000 C   0  0  0  0  0  0  0  0  0  0  0  0
    6.0360   -6.4978    0.0000 C   0  0  0  0  0  0  0  0  0  0  0  0
    6.6792   -5.3434    0.0000 C   0  0  0  0  0  0  0  0  0  0  0  0
    5.8052   -4.3539    0.0000 C   0  0  0  0  0  0  0  0  0  0  0  0
    6.3494   -8.7737    0.0000 C   0  0  0  0  0  0  0  0  0  0  0  0
    5.5413   -7.7347    0.0000 C   0  0  0  0  0  0  0  0  0  0  0  0
    4.2219   -7.9161    0.0000 C   0  0  0  0  0  0  0  0  0  0  0  0
    7.1740   -7.1575    0.0000 C   0  0  0  0  0  0  0  0  0  0  0  0
    7.1740   -8.4933    0.0000 O   0  0  0  0  0  0  0  0  0  0  0  0
   11.7587   -4.5188    0.0000 N   0  0  0  0  0  0  0  0  0  0  0  0
   12.9132   -5.1785    0.0000 C   0  0  0  0  0  0  0  0  0  0  0  0
   12.9132   -6.4978    0.0000 C   0  0  0  0  0  0  0  0  0  0  0  0
   11.7587   -7.1575    0.0000 C   0  0  0  0  0  0  0  0  0  0  0  0
   10.6208   -6.4978    0.0000 C   0  0  0  0  0  0  0  0  0  0  0  0
    9.4664   -7.1575    0.0000 C   0  0  0  0  0  0  0  0  0  0  0  0
    8.3119   -6.4978    0.0000 N   0  0  0  0  0  0  0  0  0  0  0  0
    8.3119   -5.1785    0.0000 C   0  0  0  0  0  0  0  0  0  0  0  0
    9.4664   -4.5188    0.0000 C   0  0  0  0  0  0  0  0  0  0  0  0
   10.6208   -5.1785    0.0000 C   0  0  0  0  0  0  0  0  0  0  0  0
   14.0676   -7.1575    0.0000 C   0  0  0  0  0  0  0  0  0  0  0  0
   13.4079   -8.3119    0.0000 F   0  0  0  0  0  0  0  0  0  0  0  0
   14.7273   -6.0031    0.0000 F   0  0  0  0  0  0  0  0  0  0  0  0
   15.2055   -7.8337    0.0000 F   0  0  0  0  0  0  0  0  0  0  0  0
   11.9401   -1.3358    0.0000 C   0  0  0  0  0  0  0  0  0  0  0  0
   13.0286   -2.0780    0.0000 C   0  0  0  0  0  0  0  0  0  0  0  0
   14.2160   -1.3358    0.0000 C   0  0  0  0  0  0  0  0  0  0  0  0
   11.9401    0.0000    0.0000 O   0  0  0  0  0  0  0  0  0  0  0  0
   10.7527   -2.0780    0.0000 O   0  5  0  0  0  0  0  0  0  0  0  0
   15.3870   -2.0780    0.0000 C   0  0  0  0  0  0  0  0  0  0  0  0
   15.3870   -3.3973    0.0000 O   0  0  0  0  0  0  0  0  0  0  0  0
   16.4919   -1.3358    0.0000 O   0  0  0  0  0  0  0  0  0  0  0  0
  1  7  1  0  0  0  0
  1  2  1  0  0  0  0
  2  3  1  0  0  0  0
  3  9  1  6  0  0  0
  3  4  1  0  0  0  0
  4  5  1  6  0  0  0
  4  6  1  0  0  0  0
  5  8  1  0  0  0  0
  6  7  1  0  0  0  0
 10  9  1  6  0  0  0
 10 11  1  0  0  0  0
 10 14  1  0  0  0  0
 11 12  1  0  0  0  0
 12 13  1  0  0  0  0
 12 16  1  0  0  0  0
 12 18  1  6  0  0  0
 13 14  1  0  0  0  0
 15 16  1  0  0  0  0
 16 17  1  0  0  0  0
 18 19  2  0  0  0  0
 18 26  1  0  0  0  0
 20 21  2  0  0  0  0
 20 29  1  0  0  0  0
 21 22  1  0  0  0  0
 22 23  2  0  0  0  0
 22 30  1  0  0  0  0
 23 24  1  0  0  0  0
 24 25  1  0  0  0  0
 24 29  2  0  0  0  0
 25 26  1  0  0  0  0
 26 27  1  0  0  0  0
 27 28  1  0  0  0  0
 28 29  1  0  0  0  0
 30 31  1  0  0  0  0
 30 32  1  0  0  0  0
 30 33  1  0  0  0  0
 34 35  1  0  0  0  0
 34 38  1  0  0  0  0
 34 37  2  0  0  0  0
 35 36  1  0  0  0  0
 36 39  1  0  0  0  0
 39 40  2  0  0  0  0
 39 41  1  0  0  0  0
M  END
> <ID>
12477

> <Formula>
C28H40F3N3O7

> <FW>
587.6283 (470.5477+117.0806)

> <DSSTox_CID>
27335

> <DSSTox_RID>
82278

> <DSSTox_GSID>
47335

> <DSSTox_FileID_Sort>
6959

> <TS_ChemName>
MK-812

> <TS_ChemName_Synonyms>


> <TS_CASRN>
851916-42-2

> <CASRN_ChemName_Relationship>
primary

> <TS_Description>
single chemical compound

> <ChemNote>
stereochem

> <STRUCTURE_Shown>
tested chemical

> <STRUCTURE_Formula>
C28H40F3N3O7

> <STRUCTURE_MW>
587.6283

> <STRUCTURE_ChemType>
defined organic

> <STRUCTURE_DefinedOrganicForm>
complex

> <STRUCTURE_IUPAC>
1,5-anhydro-2,3-dideoxy-4-O-methyl-3-{[(1R,3S)-3-(propan-2-yl)-3-{[3-(trifluoromethyl)-7,8-dihydro-1,6-naphthyridin-6(5H)-yl]carbonyl}cyclopentyl]ammonio}-D-erythro-pentitol 3-carboxypropanoate

> <STRUCTURE_SMILES>
CO[C@@H]4COCC[C@@H]4[NH2+][C@H]1C[C@](CC1)(C(=O)N2Cc3cc(cnc3CC2)C(F)(F)F)C(C)C.[O-]C(=O)CCC(=O)O

> <STRUCTURE_SMILES_Desalt>
CO[C@@H]4COCC[C@@H]4N[C@H]1C[C@](CC1)(C(=O)N2Cc3cc(cnc3CC2)C(F)(F)F)C(C)C

> <Substance_modify_yyyymmdd>
20130910

$$$$
