85468-01-5
ChemmineR-0915142007XD

 30 26  0  0  0  0  0  0  0  0  1 V2000
   12.6073   -3.3141    0.0000 N    0  0  0  0  0  0  0  0  0  0  0  0
   12.6073   -1.9884    0.0000 C    0  0  0  0  0  0  0  0  0  0  0  0
   11.5164   -3.9631    0.0000 C    0  0  0  0  0  0  0  0  0  0  0  0
   11.5164   -1.2980    0.0000 C    0  0  0  0  0  0  0  0  0  0  0  0
   13.8086   -1.2980    0.0000 O    0  0  0  0  0  0  0  0  0  0  0  0
   10.3150   -3.3141    0.0000 C    0  0  0  0  0  0  0  0  0  0  0  0
   11.5164   -5.3025    0.0000 O    0  0  0  0  0  0  0  0  0  0  0  0
   10.3150   -1.9884    0.0000 N    0  0  0  0  0  0  0  0  0  0  0  0
   11.5164    0.0000    0.0000 O    0  0  0  0  0  0  0  0  0  0  0  0
    9.1965   -3.9631    0.0000 C    0  0  0  0  0  0  0  0  0  0  0  0
    9.1965   -1.2980    0.0000 C    0  0  0  0  0  0  0  0  0  0  0  0
    8.0504   -3.3141    0.0000 C    0  0  0  0  0  0  0  0  0  0  0  0
    8.0504   -1.9884    0.0000 C    0  0  0  0  0  0  0  0  0  0  0  0
    6.8491   -3.9631    0.0000 C    0  0  0  0  0  0  0  0  0  0  0  0
    6.8491   -1.2980    0.0000 C    0  0  0  0  0  0  0  0  0  0  0  0
    5.7582   -3.3141    0.0000 C    0  0  0  0  0  0  0  0  0  0  0  0
    5.7582   -1.9884    0.0000 C    0  0  0  0  0  0  0  0  0  0  0  0
    4.6121   -3.9631    0.0000 C    0  0  0  0  0  0  0  0  0  0  0  0
    4.6121   -1.2980    0.0000 N    0  0  0  0  0  0  0  0  0  0  0  0
    3.4383   -3.3141    0.0000 N    0  0  0  0  0  0  0  0  0  0  0  0
    3.4383   -1.9884    0.0000 C    0  0  0  0  0  0  0  0  0  0  0  0
    2.2922   -3.9631    0.0000 C    0  0  0  0  0  0  0  0  0  0  0  0
    2.2922   -1.2980    0.0000 C    0  0  0  0  0  0  0  0  0  0  0  0
    2.2922   -5.3025    0.0000 N    0  0  0  0  0  0  0  0  0  0  0  0
    1.1461   -3.3141    0.0000 N    0  0  0  0  0  0  0  0  0  0  0  0
    1.1461   -1.9884    0.0000 C    0  0  0  0  0  0  0  0  0  0  0  0
    0.0000   -1.2980    0.0000 N    0  0  0  0  0  0  0  0  0  0  0  0
    3.9769   -7.4428    0.0000 Cl   0  0  0  0  0  0  0  0  0  0  0  0
    6.0482   -7.4428    0.0000 Cl   0  0  0  0  0  0  0  0  0  0  0  0
    8.1195   -7.4428    0.0000 Cl   0  0  0  0  0  0  0  0  0  0  0  0
  1  2  1  0  0  0  0
  1  3  1  0  0  0  0
  2  4  1  0  0  0  0
  2  5  1  0  0  0  0
  3  6  1  0  0  0  0
  3  7  2  0  0  0  0
  4  8  1  0  0  0  0
  4  9  2  0  0  0  0
  6 10  1  0  0  0  0
  8 11  1  0  0  0  0
 10 12  1  0  0  0  0
 11 13  1  0  0  0  0
 12 14  1  0  0  0  0
 13 15  1  0  0  0  0
 14 16  1  0  0  0  0
 15 17  1  0  0  0  0
 16 18  1  0  0  0  0
 17 19  1  0  0  0  0
 18 20  1  0  0  0  0
 19 21  1  0  0  0  0
 20 22  1  0  0  0  0
 21 23  1  0  0  0  0
 22 24  1  0  0  0  0
 22 25  2  0  0  0  0
 23 26  1  0  0  0  0
 26 27  1  0  0  0  0
M  END
> <ID>
13751

> <Formula>
C17H40Cl3N7O3

> <FW>
496.9036 (387.5208+36.4609+36.4609+36.4609)

> <DSSTox_CID>
28687

> <DSSTox_RID>
82957

> <DSSTox_GSID>
48761

> <DSSTox_FileID_Sort>
7634

> <TS_ChemName>
Gusperimus trihydrochloride

> <TS_ChemName_Synonyms>


> <TS_CASRN>
85468-01-5

> <CASRN_ChemName_Relationship>
primary

> <TS_Description>
single chemical compound

> <ChemNote>
stereochem

> <STRUCTURE_Shown>
tested chemical

> <STRUCTURE_Formula>
C17H40Cl3N7O3

> <STRUCTURE_MW>
496.9036

> <STRUCTURE_ChemType>
defined organic

> <STRUCTURE_DefinedOrganicForm>
complex

> <STRUCTURE_IUPAC>
N-[2-({4-[(3-aminopropyl)amino]butyl}amino)-1-hydroxy-2-oxoethyl]-7-carbamimidamidoheptanamide trihydrochloride

> <STRUCTURE_SMILES>
Cl.Cl.Cl.O=C(NCCCCNCCCN)C(O)NC(=O)CCCCCCNC(=N)N

> <STRUCTURE_SMILES_Desalt>
O=C(NCCCCNCCCN)C(O)NC(=O)CCCCCCNC(=N)N

> <Substance_modify_yyyymmdd>
20111204

$$$$
