85509-19-9
ChemmineR-0915142007XD

 22 24  0  0  0  0  0  0  0  0  1 V2000
    7.3097   -2.1448    0.0000 N    0  0  0  0  0  0  0  0  0  0  0  0
    5.3138   -3.2916    0.0000 Si   0  0  0  0  0  0  0  0  0  0  0  0
    8.7542   -0.5428    0.0000 N    0  0  0  0  0  0  0  0  0  0  0  0
    6.6444   -1.0067    0.0000 N    0  0  0  0  0  0  0  0  0  0  0  0
    6.6444   -3.2916    0.0000 C    0  0  0  0  0  0  0  0  0  0  0  0
    8.6141   -1.8646    0.0000 C    0  0  0  0  0  0  0  0  0  0  0  0
    7.5373    0.0000    0.0000 C    0  0  0  0  0  0  0  0  0  0  0  0
    5.3138   -4.6222    0.0000 C    0  0  0  0  0  0  0  0  0  0  0  0
    3.9831   -3.2916    0.0000 C    0  0  0  0  0  0  0  0  0  0  0  0
    6.4606   -5.2788    0.0000 C    0  0  0  0  0  0  0  0  0  0  0  0
    3.3266   -2.1448    0.0000 C    0  0  0  0  0  0  0  0  0  0  0  0
    4.1582   -5.2788    0.0000 C    0  0  0  0  0  0  0  0  0  0  0  0
    3.3266   -4.4471    0.0000 C    0  0  0  0  0  0  0  0  0  0  0  0
    5.3138   -7.2747    0.0000 C    0  0  0  0  0  0  0  0  0  0  0  0
    1.3306   -3.2916    0.0000 C    0  0  0  0  0  0  0  0  0  0  0  0
    4.1582   -6.6181    0.0000 C    0  0  0  0  0  0  0  0  0  0  0  0
    1.9959   -4.4471    0.0000 C    0  0  0  0  0  0  0  0  0  0  0  0
    6.4606   -6.6181    0.0000 C    0  0  0  0  0  0  0  0  0  0  0  0
    1.9959   -2.1448    0.0000 C    0  0  0  0  0  0  0  0  0  0  0  0
    5.3138   -8.6053    0.0000 F    0  0  0  0  0  0  0  0  0  0  0  0
    0.0000   -3.2916    0.0000 F    0  0  0  0  0  0  0  0  0  0  0  0
    5.3138   -1.9609    0.0000 C    0  0  0  0  0  0  0  0  0  0  0  0
  1  4  1  0  0  0  0
  1  5  1  0  0  0  0
  1  6  1  0  0  0  0
  2  5  1  0  0  0  0
  2  8  1  0  0  0  0
  2  9  1  0  0  0  0
  2 22  1  0  0  0  0
  3  6  2  0  0  0  0
  3  7  1  0  0  0  0
  4  7  2  0  0  0  0
  8 10  2  0  0  0  0
  8 12  1  0  0  0  0
  9 11  2  0  0  0  0
  9 13  1  0  0  0  0
 10 18  1  0  0  0  0
 11 19  1  0  0  0  0
 12 16  2  0  0  0  0
 13 17  2  0  0  0  0
 14 16  1  0  0  0  0
 14 20  1  0  0  0  0
 14 18  2  0  0  0  0
 15 17  1  0  0  0  0
 15 21  1  0  0  0  0
 15 19  2  0  0  0  0
M  END
> <ID>
3571

> <Formula>
C16H15F2N3Si

> <FW>
315.3927

> <DSSTox_CID>
4235

> <DSSTox_RID>
77333

> <DSSTox_GSID>
24235

> <DSSTox_FileID_Sort>
2016

> <TS_ChemName>
Flusilazole

> <TS_ChemName_Synonyms>
Flusilazole (NuStar)

> <TS_CASRN>
85509-19-9

> <CASRN_ChemName_Relationship>
primary

> <TS_Description>
single chemical compound

> <ChemNote>


> <STRUCTURE_Shown>
tested chemical

> <STRUCTURE_Formula>
C16H15F2N3Si

> <STRUCTURE_MW>
315.3927

> <STRUCTURE_ChemType>
organometallic

> <STRUCTURE_DefinedOrganicForm>


> <STRUCTURE_IUPAC>
1-{[bis(4-fluorophenyl)(methyl)silyl]methyl}-1H-1,2,4-triazole

> <STRUCTURE_SMILES>
C[Si](Cn1cncn1)(c2ccc(F)cc2)c3ccc(F)cc3

> <STRUCTURE_SMILES_Desalt>
C[Si](Cn1cncn1)(c2ccc(F)cc2)c3ccc(F)cc3

> <Substance_modify_yyyymmdd>
20080429

$$$$
