85532-75-8
ChemmineR-0915142007XD

 25 27  0  0  0  0  0  0  0  0  1 V2000
    4.6003   -4.6641    0.0000 N    0  0  0  0  0  0  0  0  0  0  0  0
    2.3108   -4.6641    0.0000 C    0  0  0  0  0  0  0  0  0  0  0  0
    2.3108   -5.9952    0.0000 C    0  0  0  0  0  0  0  0  0  0  0  0
    3.4715   -4.0039    0.0000 C    0  0  0  0  0  0  0  0  0  0  0  0
    4.6003   -5.9952    0.0000 C    0  0  0  0  0  0  0  0  0  0  0  0
    3.4715   -6.6555    0.0000 C    0  0  0  0  0  0  0  0  0  0  0  0
    1.1607   -4.0039    0.0000 C    0  0  0  0  0  0  0  0  0  0  0  0
    1.1607   -6.6555    0.0000 C    0  0  0  0  0  0  0  0  0  0  0  0
    0.0000   -5.9952    0.0000 C    0  0  0  0  0  0  0  0  0  0  0  0
    0.0000   -4.6641    0.0000 C    0  0  0  0  0  0  0  0  0  0  0  0
    5.7610   -6.6448    0.0000 C    0  0  0  0  0  0  0  0  0  0  0  0
    6.9110   -5.9846    0.0000 O    0  0  0  0  0  0  0  0  0  0  0  0
    5.7610   -7.9866    0.0000 N    0  0  0  0  0  0  0  0  0  0  0  0
    4.6003   -0.6709    0.0000 C    0  0  0  0  0  0  0  0  0  0  0  0
    3.4715    0.0000    0.0000 C    0  0  0  0  0  0  0  0  0  0  0  0
    2.3108   -0.6709    0.0000 C    0  0  0  0  0  0  0  0  0  0  0  0
    2.3108   -2.0020    0.0000 C    0  0  0  0  0  0  0  0  0  0  0  0
    3.4715   -2.6622    0.0000 C    0  0  0  0  0  0  0  0  0  0  0  0
    4.6003   -2.0020    0.0000 C    0  0  0  0  0  0  0  0  0  0  0  0
    5.7610   -2.6622    0.0000 Cl   0  0  0  0  0  0  0  0  0  0  0  0
    4.6003   -8.6574    0.0000 C    0  0  0  0  0  0  0  0  0  0  0  0
    6.9110   -8.6468    0.0000 C    0  0  0  0  0  0  0  0  0  0  0  0
    6.9110   -9.9779    0.0000 C    0  0  0  0  0  0  0  0  0  0  0  0
    8.0717  -10.6487    0.0000 C    0  0  0  0  0  0  0  0  0  0  0  0
    8.0717   -7.9866    0.0000 C    0  0  0  0  0  0  0  0  0  0  0  0
  1  4  2  0  0  0  0
  1  5  1  0  0  0  0
  2  3  2  0  0  0  0
  2  4  1  0  0  0  0
  2  7  1  0  0  0  0
  3  6  1  0  0  0  0
  3  8  1  0  0  0  0
  4 18  1  0  0  0  0
  5  6  2  0  0  0  0
  5 11  1  0  0  0  0
  7 10  2  0  0  0  0
  8  9  2  0  0  0  0
  9 10  1  0  0  0  0
 11 12  2  0  0  0  0
 11 13  1  0  0  0  0
 13 21  1  0  0  0  0
 13 22  1  0  0  0  0
 14 19  2  0  0  0  0
 14 15  1  0  0  0  0
 15 16  2  0  0  0  0
 16 17  1  0  0  0  0
 17 18  2  0  0  0  0
 18 19  1  0  0  0  0
 19 20  1  0  0  0  0
 22 23  1  0  0  0  0
 22 25  1  0  0  0  0
 23 24  1  0  0  0  0
M  END
> <ID>
8103

> <Formula>
C21H21ClN2O

> <FW>
352.8572

> <DSSTox_CID>
21097

> <DSSTox_RID>
79625

> <DSSTox_GSID>
41097

> <DSSTox_FileID_Sort>
4307

> <TS_ChemName>
N-(Butan-2-yl)-1-(2-chlorophenyl)-N-methylisoquinoline-3-carboxamide

> <TS_ChemName_Synonyms>
PK 11195

> <TS_CASRN>
85532-75-8

> <CASRN_ChemName_Relationship>
primary

> <TS_Description>
single chemical compound

> <ChemNote>


> <STRUCTURE_Shown>
tested chemical

> <STRUCTURE_Formula>
C21H21ClN2O

> <STRUCTURE_MW>
352.8572

> <STRUCTURE_ChemType>
defined organic

> <STRUCTURE_DefinedOrganicForm>
parent

> <STRUCTURE_IUPAC>
N-(butan-2-yl)-1-(2-chlorophenyl)-N-methylisoquinoline-3-carboxamide

> <STRUCTURE_SMILES>
CC(CC)N(C)C(=O)c2cc1ccccc1c(n2)c3ccccc3Cl

> <STRUCTURE_SMILES_Desalt>
CC(CC)N(C)C(=O)c2cc1ccccc1c(n2)c3ccccc3Cl

> <Substance_modify_yyyymmdd>
20080429

$$$$
