857841-32-8
ChemmineR-0915142007XD

 19 18  0  0  0  0  0  0  0  0  2 V2000
    7.3159   -8.0513    0.0000 C   0  0  0  0  0  0  0  0  0  0  0  0
    6.6458    0.0000    0.0000 C   0  0  0  0  0  0  0  0  0  0  0  0
    6.6458   -6.8971    0.0000 C   0  0  0  0  0  0  0  0  0  0  0  0
    7.3159   -5.7522    0.0000 C   0  0  0  0  0  0  0  0  0  0  0  0
    9.3078   -2.2990    0.0000 C   0  0  0  0  0  0  0  0  0  0  0  0
    8.6470   -1.1449    0.0000 C   0  0  0  0  0  0  0  0  0  0  0  0
    6.6458   -4.5981    0.0000 C   0  0  0  0  0  0  0  0  0  0  0  0
    8.6470   -3.4439    0.0000 C   0  0  0  0  0  0  0  0  0  0  0  0
    6.6458   -2.2990    0.0000 C   0  0  0  0  0  0  0  0  0  0  0  0
    7.3159   -1.1449    0.0000 C   0  0  0  0  0  0  0  0  0  0  0  0
    7.3159   -3.4439    0.0000 N   0  3  0  0  0  0  0  0  0  0  0  0
    1.3310   -2.2990    0.0000 C   0  0  0  0  0  0  0  0  0  0  0  0
    0.0000   -2.2990    0.0000 F   0  0  0  0  0  0  0  0  0  0  0  0
    1.3310   -3.6300    0.0000 F   0  0  0  0  0  0  0  0  0  0  0  0
    1.3310   -0.9680    0.0000 F   0  0  0  0  0  0  0  0  0  0  0  0
    2.6620   -3.6300    0.0000 O   0  5  0  0  0  0  0  0  0  0  0  0
    2.6620   -0.9680    0.0000 O   0  0  0  0  0  0  0  0  0  0  0  0
    3.9837   -2.2990    0.0000 O   0  0  0  0  0  0  0  0  0  0  0  0
    2.6620   -2.2990    0.0000 S   0  0  0  0  0  0  0  0  0  0  0  0
  1  3  1  0  0  0  0
  2 10  1  0  0  0  0
  3  4  1  0  0  0  0
  4  7  1  0  0  0  0
  5  6  2  0  0  0  0
  5  8  1  0  0  0  0
  6 10  1  0  0  0  0
  7 11  1  0  0  0  0
  8 11  2  0  0  0  0
  9 10  2  0  0  0  0
  9 11  1  0  0  0  0
 12 13  1  0  0  0  0
 12 14  1  0  0  0  0
 12 15  1  0  0  0  0
 12 19  1  0  0  0  0
 16 19  1  0  0  0  0
 17 19  2  0  0  0  0
 18 19  2  0  0  0  0
M  END
> <ID>
14227

> <Formula>
C11H16F3NO3S

> <FW>
299.3098 (150.2402+149.0697)

> <DSSTox_CID>
29322

> <DSSTox_RID>
83438

> <DSSTox_GSID>
49363

> <DSSTox_FileID_Sort>
8113

> <TS_ChemName>
1-Butyl-3-methylpyridinium trifluoromethanesulfonate

> <TS_ChemName_Synonyms>


> <TS_CASRN>
857841-32-8

> <CASRN_ChemName_Relationship>
primary

> <TS_Description>
single chemical compound

> <ChemNote>


> <STRUCTURE_Shown>
tested chemical

> <STRUCTURE_Formula>
C11H16F3NO3S

> <STRUCTURE_MW>
299.3098

> <STRUCTURE_ChemType>
defined organic

> <STRUCTURE_DefinedOrganicForm>
complex

> <STRUCTURE_IUPAC>
1-butyl-3-methylpyridinium trifluoromethanesulfonate

> <STRUCTURE_SMILES>
Cc1ccc[n+](CCCC)c1.FC(F)(F)S([O-])(=O)=O

> <STRUCTURE_SMILES_Desalt>
Cc1ccc[n+](CCCC)c1

> <Substance_modify_yyyymmdd>
20111204

$$$$
