85798-08-9
ChemmineR-0915142007XD

 19 20  0  0  1  0  0  0  0  0  1 V2000
    4.3461   -1.3499    0.0000 C    0  0  0  0  0  0  0  0  0  0  0  0
    4.3461   -2.6763    0.0000 C    0  0  0  0  0  0  0  0  0  0  0  0
    3.1991   -0.6710    0.0000 C    0  0  0  0  0  0  0  0  0  0  0  0
    3.1991   -3.3317    0.0000 C    0  0  0  0  0  0  0  0  0  0  0  0
    2.0443   -1.3499    0.0000 C    0  0  0  0  0  0  0  0  0  0  0  0
    2.0443   -2.6763    0.0000 C    0  0  0  0  0  0  0  0  0  0  0  0
    5.5009   -0.6710    0.0000 C    0  0  0  0  0  0  0  0  0  0  0  0
    6.6479   -1.3499    0.0000 C    0  0  0  0  0  0  0  0  0  0  0  0
    5.5009   -3.3317    0.0000 N    0  0  0  0  0  0  0  0  0  0  0  0
    6.6479   -2.6763    0.0000 C    0  0  0  0  0  0  0  0  0  0  0  0
    0.7803   -0.9285    0.0000 N    0  0  0  0  0  0  0  0  0  0  0  0
    0.0000   -2.0053    0.0000 N    0  0  0  0  0  0  0  0  0  0  0  0
    0.7803   -3.0743    0.0000 C    0  0  0  0  0  0  0  0  0  0  0  0
    5.5009   -4.6582    0.0000 C    0  0  0  0  0  0  0  0  0  0  0  0
    6.6479   -5.3292    0.0000 C    0  0  0  0  0  0  0  0  0  0  0  0
    7.8027   -4.6582    0.0000 C    0  0  0  0  0  0  0  0  0  0  0  0
    4.3461    0.0000    0.0000 H    0  0  0  0  0  0  0  0  0  0  0  0
    4.3617   -4.0028    0.0000 H    0  0  0  0  0  0  0  0  0  0  0  0
    2.8168   -5.4073    0.0000 Cl   0  0  0  0  0  0  0  0  0  0  0  0
  1  3  1  0  0  0  0
  1  7  1  0  0  0  0
  1  2  1  0  0  0  0
  1 17  1  6  0  0  0
  2  4  1  0  0  0  0
  2  9  1  0  0  0  0
  2 18  1  1  0  0  0
  3  5  1  0  0  0  0
  4  6  1  0  0  0  0
  5 11  2  0  0  0  0
  5  6  1  0  0  0  0
  6 13  2  0  0  0  0
  7  8  1  0  0  0  0
  8 10  1  0  0  0  0
  9 10  1  0  0  0  0
  9 14  1  0  0  0  0
 11 12  1  0  0  0  0
 12 13  1  0  0  0  0
 14 15  1  0  0  0  0
 15 16  1  0  0  0  0
M  END
> <ID>
10994

> <Formula>
C13H22ClN3

> <FW>
255.7869 (219.3259+36.4609)

> <DSSTox_CID>
25519

> <DSSTox_RID>
80926

> <DSSTox_GSID>
45519

> <DSSTox_FileID_Sort>
5607

> <TS_ChemName>
(-)-Quinpirole hydrochloride

> <TS_ChemName_Synonyms>


> <TS_CASRN>
85798-08-9

> <CASRN_ChemName_Relationship>
primary

> <TS_Description>
single chemical compound

> <ChemNote>
stereochem; tautomers; parent [80373-22-4]

> <STRUCTURE_Shown>
tested chemical

> <STRUCTURE_Formula>
C13H22ClN3

> <STRUCTURE_MW>
255.7869

> <STRUCTURE_ChemType>
defined organic

> <STRUCTURE_DefinedOrganicForm>
complex

> <STRUCTURE_IUPAC>
(4aR,8aR)-5-propyl-4,4a,5,6,7,8,8a,9-octahydro-2H-pyrazolo[3,4-g]quinoline hydrochloride (1:1)

> <STRUCTURE_SMILES>
Cl.CCCN1CCC[C@@H]2Cc3nncc3C[C@@H]12

> <STRUCTURE_SMILES_Desalt>
CCCN1CCC[C@@H]2Cc3nncc3C[C@@H]12

> <Substance_modify_yyyymmdd>
20100107

$$$$
