85801-02-1
ChemmineR-0915142007XD

 40 42  0  0  0  0  0  0  0  0  1 V2000
    4.7623   -2.3282    0.0000 N    0  0  0  0  0  0  0  0  0  0  0  0
    5.5455   -3.4289    0.0000 C    0  0  0  0  0  0  0  0  0  0  0  0
    4.7623   -4.5083    0.0000 C    0  0  0  0  0  0  0  0  0  0  0  0
    3.4924   -2.7516    0.0000 C    0  0  0  0  0  0  0  0  0  0  0  0
    3.4924   -4.0850    0.0000 C    0  0  0  0  0  0  0  0  0  0  0  0
    5.4185   -1.1430    0.0000 C    0  0  0  0  0  0  0  0  0  0  0  0
    4.9317   -5.5666    0.0000 C    0  0  0  0  0  0  0  0  0  0  0  0
    2.3282   -2.0954    0.0000 C    0  0  0  0  0  0  0  0  0  0  0  0
    6.7519   -1.1430    0.0000 C    0  0  0  0  0  0  0  0  0  0  0  0
    6.0958   -6.2439    0.0000 C    0  0  0  0  0  0  0  0  0  0  0  0
    2.3282   -4.7623    0.0000 C    0  0  0  0  0  0  0  0  0  0  0  0
    4.7412    0.0000    0.0000 O    0  0  0  0  0  0  0  0  0  0  0  0
    6.0958   -7.5774    0.0000 O    0  0  0  0  0  0  0  0  0  0  0  0
    7.4081    0.0000    0.0000 C    0  0  0  0  0  0  0  0  0  0  0  0
    7.4081   -2.3071    0.0000 C    0  0  0  0  0  0  0  0  0  0  0  0
    6.8789   -3.4289    0.0000 C    0  0  0  0  0  0  0  0  0  0  0  0
    1.1641   -4.0850    0.0000 C    0  0  0  0  0  0  0  0  0  0  0  0
    1.1641   -2.7516    0.0000 C    0  0  0  0  0  0  0  0  0  0  0  0
    9.4400   -1.1430    0.0000 C    0  0  0  0  0  0  0  0  0  0  0  0
    7.2387   -5.6936    0.0000 O    0  0  0  0  0  0  0  0  0  0  0  0
    8.7627    0.0000    0.0000 C    0  0  0  0  0  0  0  0  0  0  0  0
    8.7627   -2.3071    0.0000 C    0  0  0  0  0  0  0  0  0  0  0  0
   10.7734   -1.1430    0.0000 Cl   0  0  0  0  0  0  0  0  0  0  0  0
    0.0000   -4.7623    0.0000 O    0  0  0  0  0  0  0  0  0  0  0  0
    0.0000   -6.0958    0.0000 C    0  0  0  0  0  0  0  0  0  0  0  0
    8.4240   -6.3709    0.0000 C    0  0  0  0  0  0  0  0  0  0  0  0
    9.5670   -5.7148    0.0000 C    0  0  0  0  0  0  0  0  0  0  0  0
   10.7311   -6.3709    0.0000 C    0  0  0  0  0  0  0  0  0  0  0  0
   11.8952   -5.7148    0.0000 C    0  0  0  0  0  0  0  0  0  0  0  0
   13.0594   -6.3709    0.0000 C    0  0  0  0  0  0  0  0  0  0  0  0
   14.2023   -5.7148    0.0000 C    0  0  0  0  0  0  0  0  0  0  0  0
   15.3664   -6.3921    0.0000 C    0  0  0  0  0  0  0  0  0  0  0  0
   16.5306   -5.7148    0.0000 C    0  0  0  0  0  0  0  0  0  0  0  0
   17.6735   -6.3921    0.0000 C    0  0  0  0  0  0  0  0  0  0  0  0
   18.8377   -5.7360    0.0000 C    0  0  0  0  0  0  0  0  0  0  0  0
   20.0018   -6.3921    0.0000 C    0  0  0  0  0  0  0  0  0  0  0  0
   21.1659   -5.7360    0.0000 C    0  0  0  0  0  0  0  0  0  0  0  0
   10.7099   -7.7044    0.0000 C    0  0  0  0  0  0  0  0  0  0  0  0
   15.3453   -7.7256    0.0000 C    0  0  0  0  0  0  0  0  0  0  0  0
   20.0018   -7.7256    0.0000 C    0  0  0  0  0  0  0  0  0  0  0  0
  1  2  1  0  0  0  0
  1  4  1  0  0  0  0
  1  6  1  0  0  0  0
  2  3  2  0  0  0  0
  2 16  1  0  0  0  0
  3  7  1  0  0  0  0
  3  5  1  0  0  0  0
  4  5  2  0  0  0  0
  4  8  1  0  0  0  0
  5 11  1  0  0  0  0
  6  9  1  0  0  0  0
  6 12  2  0  0  0  0
  7 10  1  0  0  0  0
  8 18  2  0  0  0  0
  9 14  1  0  0  0  0
  9 15  2  0  0  0  0
 10 13  2  0  0  0  0
 10 20  1  0  0  0  0
 11 17  2  0  0  0  0
 14 21  2  0  0  0  0
 15 22  1  0  0  0  0
 17 18  1  0  0  0  0
 17 24  1  0  0  0  0
 19 22  2  0  0  0  0
 19 23  1  0  0  0  0
 19 21  1  0  0  0  0
 20 26  1  0  0  0  0
 24 25  1  0  0  0  0
 26 27  1  0  0  0  0
 27 28  2  0  0  0  0
 28 29  1  0  0  0  0
 28 38  1  0  0  0  0
 29 30  1  0  0  0  0
 30 31  1  0  0  0  0
 31 32  2  0  0  0  0
 32 33  1  0  0  0  0
 32 39  1  0  0  0  0
 33 34  1  0  0  0  0
 34 35  1  0  0  0  0
 35 36  2  0  0  0  0
 36 37  1  0  0  0  0
 36 40  1  0  0  0  0
M  END
> <ID>
16242

> <Formula>
C34H40ClNO4

> <FW>
562.1387

> <DSSTox_CID>
31633

> <DSSTox_RID>
97517

> <DSSTox_GSID>
57844

> <DSSTox_FileID_Sort>
8584

> <TS_ChemName>
Indomethacin farnesil

> <TS_ChemName_Synonyms>


> <TS_CASRN>
85801-02-1

> <CASRN_ChemName_Relationship>
primary

> <TS_Description>
single chemical compound

> <ChemNote>


> <STRUCTURE_Shown>
tested chemical

> <STRUCTURE_Formula>
C34H40ClNO4

> <STRUCTURE_MW>
562.1387

> <STRUCTURE_ChemType>
defined organic

> <STRUCTURE_DefinedOrganicForm>
parent

> <STRUCTURE_IUPAC>
(2E,6E)-3,7,11-trimethyldodeca-2,6,10-trien-1-yl [1-(4-chlorobenzoyl)-5-methoxy-2-methyl-1H-indol-3-yl]acetate

> <STRUCTURE_SMILES>
Clc1ccc(cc1)C(=O)n3c2ccc(cc2c(CC(=O)OC\C=C(/C)CC\C=C(/C)CC\C=C(/C)C)c3C)OC

> <STRUCTURE_SMILES_Desalt>
Clc1ccc(cc1)C(=O)n3c2ccc(cc2c(CC(=O)OC\C=C(/C)CC\C=C(/C)CC\C=C(/C)C)c3C)OC

> <Substance_modify_yyyymmdd>
20131018

$$$$
