859-18-7
ChemmineR-0915142007XD

 28 28  0  0  1  0  0  0  0  0  1 V2000
    2.2986   -4.1768    0.0000 C    0  0  0  0  0  0  0  0  0  0  0  0
    2.2986   -2.8239    0.0000 C    0  0  0  0  0  0  0  0  0  0  0  0
    3.4544   -2.1803    0.0000 C    0  0  0  0  0  0  0  0  0  0  0  0
    4.6102   -2.8239    0.0000 C    0  0  0  0  0  0  0  0  0  0  0  0
    4.6102   -4.1768    0.0000 C    0  0  0  0  0  0  0  0  0  0  0  0
    3.4544   -4.8335    0.0000 O    0  0  0  0  0  0  0  0  0  0  0  0
    5.7529   -4.8335    0.0000 C    0  0  0  0  0  0  0  0  0  0  0  0
    5.7529   -6.1601    0.0000 C    0  0  0  0  0  0  0  0  0  0  0  0
    6.9088   -6.8300    0.0000 C    0  0  0  0  0  0  0  0  0  0  0  0
    4.6102   -6.8300    0.0000 O    0  0  0  0  0  0  0  0  0  0  0  0
    6.9088   -4.1768    0.0000 N    0  0  0  0  0  0  0  0  0  0  0  0
    8.0515   -4.8335    0.0000 C    0  0  0  0  0  0  0  0  0  0  0  0
    8.0515   -6.1601    0.0000 O    0  0  0  0  0  0  0  0  0  0  0  0
    9.2205   -4.1768    0.0000 C    0  0  0  0  0  0  0  0  0  0  0  0
    9.3387   -2.8502    0.0000 C    0  0  0  0  0  0  0  0  0  0  0  0
   10.6521   -2.5744    0.0000 C    0  0  0  0  0  0  0  0  0  0  0  0
   11.3220   -3.7302    0.0000 C    0  0  0  0  0  0  0  0  0  0  0  0
   10.4289   -4.7153    0.0000 N    0  0  0  0  0  0  0  0  0  0  0  0
   10.7047   -6.0156    0.0000 C    0  0  0  0  0  0  0  0  0  0  0  0
   11.1775   -1.3529    0.0000 C    0  0  0  0  0  0  0  0  0  0  0  0
   12.5304   -1.2084    0.0000 C    0  0  0  0  0  0  0  0  0  0  0  0
   13.0558    0.0000    0.0000 C    0  0  0  0  0  0  0  0  0  0  0  0
    5.7529   -2.1803    0.0000 O    0  0  0  0  0  0  0  0  0  0  0  0
    3.4544   -0.8406    0.0000 O    0  0  0  0  0  0  0  0  0  0  0  0
    1.1558   -2.1803    0.0000 O    0  0  0  0  0  0  0  0  0  0  0  0
    1.1558   -4.8335    0.0000 S    0  0  0  0  0  0  0  0  0  0  0  0
    0.0000   -4.1768    0.0000 C    0  0  0  0  0  0  0  0  0  0  0  0
   13.1346   -4.4132    0.0000 Cl   0  0  0  0  0  0  0  0  0  0  0  0
  1  2  1  0  0  0  0
  1  6  1  0  0  0  0
  1 26  1  6  0  0  0
  2  3  1  0  0  0  0
  2 25  1  6  0  0  0
  3  4  1  0  0  0  0
  3 24  1  1  0  0  0
  4  5  1  0  0  0  0
  4 23  1  1  0  0  0
  5  6  1  1  0  0  0
  5  7  1  0  0  0  0
  7  8  1  0  0  0  0
  7 11  1  6  0  0  0
  8  9  1  0  0  0  0
  8 10  1  1  0  0  0
 11 12  1  0  0  0  0
 12 13  2  0  0  0  0
 14 12  1  6  0  0  0
 14 15  1  0  0  0  0
 14 18  1  0  0  0  0
 15 16  1  0  0  0  0
 16 17  1  0  0  0  0
 16 20  1  1  0  0  0
 17 18  1  0  0  0  0
 18 19  1  0  0  0  0
 20 21  1  0  0  0  0
 21 22  1  0  0  0  0
 26 27  1  0  0  0  0
M  END
> <ID>
12896

> <Formula>
C18H35ClN2O6S

> <FW>
442.9983 (406.5374+36.4609)

> <DSSTox_CID>
27780

> <DSSTox_RID>
82556

> <DSSTox_GSID>
47803

> <DSSTox_FileID_Sort>
7235

> <TS_ChemName>
Lincomycin hydrochloride

> <TS_ChemName_Synonyms>


> <TS_CASRN>
859-18-7

> <CASRN_ChemName_Relationship>
primary

> <TS_Description>
single chemical compound

> <ChemNote>
stereochem; parent [154-21-2]

> <STRUCTURE_Shown>
tested chemical

> <STRUCTURE_Formula>
C18H35ClN2O6S

> <STRUCTURE_MW>
442.9983

> <STRUCTURE_ChemType>
defined organic

> <STRUCTURE_DefinedOrganicForm>
complex

> <STRUCTURE_IUPAC>
methyl (5R)-5-[(1R,2R)-2-hydroxy-1-{[(4R)-1-methyl-4-propyl-L-prolyl]amino}propyl]-1-thio-beta-L-arabinopyranoside hydrochloride (1:1)

> <STRUCTURE_SMILES>
Cl.O[C@@H]1[C@@H](O)[C@@H](O)[C@H](O[C@@H]1SC)[C@H](NC(=O)[C@@H]2C[C@@H](CCC)CN2C)[C@@H](C)O

> <STRUCTURE_SMILES_Desalt>
O[C@@H]1[C@@H](O)[C@@H](O)[C@H](O[C@@H]1SC)[C@H](NC(=O)[C@@H]2C[C@@H](CCC)CN2C)[C@@H](C)O

> <Substance_modify_yyyymmdd>
20110824

$$$$
