859-07-4
ChemmineR-0915142007XD

 29 31  0  0  1  0  0  0  0  0  1 V2000
    6.9671   -1.2681    0.0000 C   0  0  0  0  0  0  0  0  0  0  0  0
    6.9671   -2.6127    0.0000 C   0  0  0  0  0  0  0  0  0  0  0  0
    2.3224   -1.2681    0.0000 C   0  0  0  0  0  0  0  0  0  0  0  0
    3.4683   -0.6264    0.0000 C   0  0  0  0  0  0  0  0  0  0  0  0
    4.6295   -1.2681    0.0000 C   0  0  0  0  0  0  0  0  0  0  0  0
    4.6295   -2.6127    0.0000 O   0  0  0  0  0  0  0  0  0  0  0  0
    5.7907   -0.6264    0.0000 N   0  0  0  0  0  0  0  0  0  0  0  0
    6.0046   -3.5600    0.0000 O   0  0  0  0  0  0  0  0  0  0  0  0
    8.3117   -1.2681    0.0000 C   0  0  0  0  0  0  0  0  0  0  0  0
    8.3117   -2.6127    0.0000 N   0  0  0  0  0  0  0  0  0  0  0  0
    9.4423   -3.2849    0.0000 C   0  0  0  0  0  0  0  0  0  0  0  0
   10.6341   -2.6127    0.0000 C   0  0  0  0  0  0  0  0  0  0  0  0
   10.6341   -1.2681    0.0000 C   0  0  0  0  0  0  0  0  0  0  0  0
    9.4423   -0.5806    0.0000 S   0  0  0  0  0  0  0  0  0  0  0  0
    8.3728    0.0000    0.0000 H   0  0  0  0  0  0  0  0  0  0  0  0
    9.4423   -4.6295    0.0000 C   0  0  0  0  0  0  0  0  0  0  0  0
   10.6341   -5.2865    0.0000 O   0  0  0  0  0  0  0  0  0  0  0  0
    8.3117   -5.2865    0.0000 O   0  0  0  0  0  0  0  0  0  0  0  0
   11.7800   -3.2849    0.0000 C   0  0  0  0  0  0  0  0  0  0  0  0
   12.9412   -2.6127    0.0000 O   0  0  0  0  0  0  0  0  0  0  0  0
   14.1024   -3.2849    0.0000 C   0  0  0  0  0  0  0  0  0  0  0  0
   15.2788   -2.6127    0.0000 C   0  0  0  0  0  0  0  0  0  0  0  0
   14.1024   -4.6295    0.0000 O   0  0  0  0  0  0  0  0  0  0  0  0
    2.3224   -2.6127    0.0000 C   0  0  0  0  0  0  0  0  0  0  0  0
    1.1306   -3.3002    0.0000 C   0  0  0  0  0  0  0  0  0  0  0  0
    0.0000   -2.6127    0.0000 C   0  0  0  0  0  0  0  0  0  0  0  0
    0.0000   -1.2681    0.0000 C   0  0  0  0  0  0  0  0  0  0  0  0
    1.1306   -0.6264    0.0000 C   0  0  0  0  0  0  0  0  0  0  0  0
    6.9060   -0.1833    0.0000 H   0  0  0  0  0  0  0  0  0  0  0  0
  1  7  1  1  0  0  0
  1  2  1  0  0  0  0
  1  9  1  0  0  0  0
  1 29  1  6  0  0  0
  2  8  2  0  0  0  0
  2 10  1  0  0  0  0
  3  4  1  0  0  0  0
  3 24  2  0  0  0  0
  3 28  1  0  0  0  0
  4  5  1  0  0  0  0
  5  7  1  0  0  0  0
  5  6  2  0  0  0  0
  9 15  1  6  0  0  0
  9 10  1  0  0  0  0
  9 14  1  0  0  0  0
 10 11  1  0  0  0  0
 11 16  1  0  0  0  0
 11 12  2  0  0  0  0
 12 13  1  0  0  0  0
 12 19  1  0  0  0  0
 13 14  1  0  0  0  0
 16 17  1  0  0  0  0
 16 18  2  0  0  0  0
 19 20  1  0  0  0  0
 20 21  1  0  0  0  0
 21 22  1  0  0  0  0
 21 23  2  0  0  0  0
 24 25  1  0  0  0  0
 25 26  2  0  0  0  0
 26 27  1  0  0  0  0
 27 28  2  0  0  0  0
M  END
> <ID>
11411

> <Formula>
C18H18N2O6S

> <FW>
390.4103

> <DSSTox_CID>
26106

> <DSSTox_RID>
81343

> <DSSTox_GSID>
46106

> <DSSTox_FileID_Sort>
6024

> <TS_ChemName>
Cefaloram

> <TS_ChemName_Synonyms>


> <TS_CASRN>
859-07-4

> <CASRN_ChemName_Relationship>
primary

> <TS_Description>
single chemical compound

> <ChemNote>
stereochem

> <STRUCTURE_Shown>
tested chemical

> <STRUCTURE_Formula>
C18H18N2O6S

> <STRUCTURE_MW>
390.4103

> <STRUCTURE_ChemType>
defined organic

> <STRUCTURE_DefinedOrganicForm>
parent

> <STRUCTURE_IUPAC>
(6R,7R)-3-[(acetyloxy)methyl]-8-oxo-7-[(phenylacetyl)amino]-5-thia-1-azabicyclo[4.2.0]oct-2-ene-2-carboxylic acid

> <STRUCTURE_SMILES>
O=C(O)C=2N3C(=O)[C@@H](NC(=O)Cc1ccccc1)[C@H]3SCC=2COC(C)=O

> <STRUCTURE_SMILES_Desalt>
O=C(O)C=2N3C(=O)[C@@H](NC(=O)Cc1ccccc1)[C@H]3SCC=2COC(C)=O

> <Substance_modify_yyyymmdd>
20110818

$$$$
