85976-54-1
ChemmineR-0915142007XD

 17 17  0  0  1  0  0  0  0  0  1 V2000
   10.0133   -4.1506    0.0000 Cl   0  0  0  0  0  0  0  0  0  0  0  0
   10.3765   -2.0027    0.0000 C    0  0  0  0  0  0  0  0  0  0  0  0
    9.2247   -2.6564    0.0000 C    0  0  0  0  0  0  0  0  0  0  0  0
    8.0729   -2.0027    0.0000 C    0  0  0  0  0  0  0  0  0  0  0  0
    6.9211   -2.6564    0.0000 N    0  0  0  0  0  0  0  0  0  0  0  0
    6.9211   -4.0053    0.0000 C    0  0  0  0  0  0  0  0  0  0  0  0
    5.7693   -4.6591    0.0000 C    0  0  0  0  0  0  0  0  0  0  0  0
    4.6072   -4.0053    0.0000 C    0  0  0  0  0  0  0  0  0  0  0  0
    4.6072   -2.6564    0.0000 C    0  0  0  0  0  0  0  0  0  0  0  0
    5.7693   -2.0027    0.0000 C    0  0  0  0  0  0  0  0  0  0  0  0
    3.4554   -2.0027    0.0000 C    0  0  0  0  0  0  0  0  0  0  0  0
    2.3036   -2.6564    0.0000 C    0  0  0  0  0  0  0  0  0  0  0  0
    1.1518   -2.0027    0.0000 C    0  0  0  0  0  0  0  0  0  0  0  0
    1.1518   -0.6745    0.0000 C    0  0  0  0  0  0  0  0  0  0  0  0
    2.3036    0.0000    0.0000 C    0  0  0  0  0  0  0  0  0  0  0  0
    3.4554   -0.6745    0.0000 C    0  0  0  0  0  0  0  0  0  0  0  0
    0.0000   -2.6564    0.0000 O    0  0  0  0  0  0  0  0  0  0  0  0
  2  3  1  0  0  0  0
  3  4  1  0  0  0  0
  4  5  1  0  0  0  0
  5  6  1  0  0  0  0
  5 10  1  0  0  0  0
  6  7  1  0  0  0  0
  7  8  1  0  0  0  0
  8  9  1  0  0  0  0
  9 10  1  0  0  0  0
  9 11  1  1  0  0  0
 11 12  2  0  0  0  0
 11 16  1  0  0  0  0
 12 13  1  0  0  0  0
 13 14  2  0  0  0  0
 13 17  1  0  0  0  0
 14 15  1  0  0  0  0
 15 16  2  0  0  0  0
M  END
> <ID>
11204

> <Formula>
C14H22ClNO

> <FW>
255.7836 (36.4609+219.3226)

> <DSSTox_CID>
25796

> <DSSTox_RID>
81136

> <DSSTox_GSID>
45796

> <DSSTox_FileID_Sort>
5817

> <TS_ChemName>
R-3-PPP hydrochloride

> <TS_ChemName_Synonyms>


> <TS_CASRN>
85976-54-1

> <CASRN_ChemName_Relationship>
primary

> <TS_Description>
single chemical compound

> <ChemNote>
stereochem; parent [85966-89-8]

> <STRUCTURE_Shown>
tested chemical

> <STRUCTURE_Formula>
C14H22ClNO

> <STRUCTURE_MW>
255.7836

> <STRUCTURE_ChemType>
defined organic

> <STRUCTURE_DefinedOrganicForm>
complex

> <STRUCTURE_IUPAC>
3-[(3S)-1-propylpiperidin-3-yl]phenol hydrochloride (1:1)

> <STRUCTURE_SMILES>
Cl.CCCN1CCC[C@H](C1)c2cccc(O)c2

> <STRUCTURE_SMILES_Desalt>
CCCN1CCC[C@H](C1)c2cccc(O)c2

> <Substance_modify_yyyymmdd>
20110902

$$$$
