86-00-0
ChemmineR-0915142007XD

 15 16  0  0  0  0  0  0  0  0  2 V2000
    1.1490   -1.9928    0.0000 O   0  0  0  0  0  0  0  0  0  0  0  0
    2.3040   -1.3285    0.0000 N   0  3  0  0  0  0  0  0  0  0  0  0
    2.3040    0.0000    0.0000 O   0  5  0  0  0  0  0  0  0  0  0  0
    3.4530   -1.9928    0.0000 C   0  0  0  0  0  0  0  0  0  0  0  0
    4.6080   -1.3285    0.0000 C   0  0  0  0  0  0  0  0  0  0  0  0
    5.7570   -1.9928    0.0000 C   0  0  0  0  0  0  0  0  0  0  0  0
    5.7570   -3.3274    0.0000 C   0  0  0  0  0  0  0  0  0  0  0  0
    4.6080   -3.9916    0.0000 C   0  0  0  0  0  0  0  0  0  0  0  0
    3.4530   -3.3274    0.0000 C   0  0  0  0  0  0  0  0  0  0  0  0
    2.3040   -3.9916    0.0000 C   0  0  0  0  0  0  0  0  0  0  0  0
    2.3040   -5.3202    0.0000 C   0  0  0  0  0  0  0  0  0  0  0  0
    1.1490   -5.9845    0.0000 C   0  0  0  0  0  0  0  0  0  0  0  0
    0.0000   -5.3202    0.0000 C   0  0  0  0  0  0  0  0  0  0  0  0
    0.0000   -3.9916    0.0000 C   0  0  0  0  0  0  0  0  0  0  0  0
    1.1490   -3.3274    0.0000 C   0  0  0  0  0  0  0  0  0  0  0  0
  1  2  2  0  0  0  0
  2  3  1  0  0  0  0
  2  4  1  0  0  0  0
  4  5  2  0  0  0  0
  4  9  1  0  0  0  0
  5  6  1  0  0  0  0
  6  7  2  0  0  0  0
  7  8  1  0  0  0  0
  8  9  2  0  0  0  0
  9 10  1  0  0  0  0
 10 11  2  0  0  0  0
 10 15  1  0  0  0  0
 11 12  1  0  0  0  0
 12 13  2  0  0  0  0
 13 14  1  0  0  0  0
 14 15  2  0  0  0  0
M  END
> <ID>
4382

> <Formula>
C12H9NO2

> <FW>
199.2054

> <DSSTox_CID>
5746

> <DSSTox_RID>
77907

> <DSSTox_GSID>
25746

> <DSSTox_FileID_Sort>
2590

> <TS_ChemName>
2-Nitro-1,1'-biphenyl

> <TS_ChemName_Synonyms>


> <TS_CASRN>
86-00-0

> <CASRN_ChemName_Relationship>
primary

> <TS_Description>
single chemical compound

> <ChemNote>


> <STRUCTURE_Shown>
tested chemical

> <STRUCTURE_Formula>
C12H9NO2

> <STRUCTURE_MW>
199.2054

> <STRUCTURE_ChemType>
defined organic

> <STRUCTURE_DefinedOrganicForm>
parent

> <STRUCTURE_IUPAC>
2-nitrobiphenyl

> <STRUCTURE_SMILES>
O=[N+]([O-])c2ccccc2c1ccccc1

> <STRUCTURE_SMILES_Desalt>
O=[N+]([O-])c2ccccc2c1ccccc1

> <Substance_modify_yyyymmdd>
20080429

$$$$
