86-12-4
ChemmineR-0915142007XD

 20 22  0  0  0  0  0  0  0  0  1 V2000
    3.4613   -5.3136    0.0000 N   0  0  0  0  0  0  0  0  0  0  0  0
    4.6120   -7.3062    0.0000 C   0  0  0  0  0  0  0  0  0  0  0  0
    3.4613   -1.3284    0.0000 N   0  0  0  0  0  0  0  0  0  0  0  0
    5.6878   -8.0920    0.0000 S   0  0  0  0  0  0  0  0  0  0  0  0
    3.4613   -3.9852    0.0000 C   0  0  0  0  0  0  0  0  0  0  0  0
    4.6120   -5.9778    0.0000 C   0  0  0  0  0  0  0  0  0  0  0  0
    4.6120   -3.3116    0.0000 C   0  0  0  0  0  0  0  0  0  0  0  0
    2.3107   -3.3116    0.0000 C   0  0  0  0  0  0  0  0  0  0  0  0
    5.2668   -9.3549    0.0000 C   0  0  0  0  0  0  0  0  0  0  0  0
    2.3107   -5.9778    0.0000 C   0  0  0  0  0  0  0  0  0  0  0  0
    3.5362   -8.0920    0.0000 C   0  0  0  0  0  0  0  0  0  0  0  0
    3.9384   -9.3549    0.0000 C   0  0  0  0  0  0  0  0  0  0  0  0
    4.6120   -1.9832    0.0000 C   0  0  0  0  0  0  0  0  0  0  0  0
    2.3107   -1.9832    0.0000 C   0  0  0  0  0  0  0  0  0  0  0  0
    3.4613    0.0000    0.0000 C   0  0  0  0  0  0  0  0  0  0  0  0
    2.3107   -7.3062    0.0000 C   0  0  0  0  0  0  0  0  0  0  0  0
    1.1507   -5.3136    0.0000 C   0  0  0  0  0  0  0  0  0  0  0  0
    0.0000   -5.9778    0.0000 C   0  0  0  0  0  0  0  0  0  0  0  0
    1.1507   -7.9797    0.0000 C   0  0  0  0  0  0  0  0  0  0  0  0
    0.0000   -7.3062    0.0000 C   0  0  0  0  0  0  0  0  0  0  0  0
  1  5  1  0  0  0  0
  1  6  1  0  0  0  0
  1 10  1  0  0  0  0
  2  6  1  0  0  0  0
  2  4  1  0  0  0  0
  2 11  2  0  0  0  0
  3 14  1  0  0  0  0
  3 15  1  0  0  0  0
  3 13  1  0  0  0  0
  4  9  1  0  0  0  0
  5  7  1  0  0  0  0
  5  8  1  0  0  0  0
  7 13  1  0  0  0  0
  8 14  1  0  0  0  0
  9 12  2  0  0  0  0
 10 16  1  0  0  0  0
 10 17  2  0  0  0  0
 11 12  1  0  0  0  0
 16 19  2  0  0  0  0
 17 18  1  0  0  0  0
 18 20  2  0  0  0  0
 19 20  1  0  0  0  0
M  END
> <ID>
13824

> <Formula>
C17H22N2S

> <FW>
286.435

> <DSSTox_CID>
28761

> <DSSTox_RID>
83030

> <DSSTox_GSID>
48835

> <DSSTox_FileID_Sort>
7707

> <TS_ChemName>
Thenalidine

> <TS_ChemName_Synonyms>


> <TS_CASRN>
86-12-4

> <CASRN_ChemName_Relationship>
primary

> <TS_Description>
single chemical compound

> <ChemNote>


> <STRUCTURE_Shown>
tested chemical

> <STRUCTURE_Formula>
C17H22N2S

> <STRUCTURE_MW>
286.435

> <STRUCTURE_ChemType>
defined organic

> <STRUCTURE_DefinedOrganicForm>
parent

> <STRUCTURE_IUPAC>
1-methyl-N-phenyl-N-(thiophen-2-ylmethyl)piperidin-4-amine

> <STRUCTURE_SMILES>
CN1CCC(CC1)N(Cc2cccs2)c3ccccc3

> <STRUCTURE_SMILES_Desalt>
CN1CCC(CC1)N(Cc2cccs2)c3ccccc3

> <Substance_modify_yyyymmdd>
20111204

$$$$
