86-20-4
ChemmineR-0915142007XD

 18 20  0  0  0  0  0  0  0  0  2 V2000
    2.8899   -1.7186    0.0000 N   0  0  0  0  0  0  0  0  0  0  0  0
    2.0093   -2.7104    0.0000 C   0  0  0  0  0  0  0  0  0  0  0  0
    4.1040   -2.2572    0.0000 C   0  0  0  0  0  0  0  0  0  0  0  0
    2.6591   -3.8475    0.0000 C   0  0  0  0  0  0  0  0  0  0  0  0
    3.9587   -3.5739    0.0000 C   0  0  0  0  0  0  0  0  0  0  0  0
    2.0093   -5.0018    0.0000 C   0  0  0  0  0  0  0  0  0  0  0  0
    5.0360   -4.3605    0.0000 C   0  0  0  0  0  0  0  0  0  0  0  0
    5.3267   -1.7186    0.0000 C   0  0  0  0  0  0  0  0  0  0  0  0
    0.6755   -2.7104    0.0000 C   0  0  0  0  0  0  0  0  0  0  0  0
    0.6755   -5.0018    0.0000 C   0  0  0  0  0  0  0  0  0  0  0  0
    6.2586   -3.8133    0.0000 C   0  0  0  0  0  0  0  0  0  0  0  0
    0.0000   -3.8475    0.0000 C   0  0  0  0  0  0  0  0  0  0  0  0
    6.4040   -2.4966    0.0000 C   0  0  0  0  0  0  0  0  0  0  0  0
    2.6163   -0.4190    0.0000 C   0  0  0  0  0  0  0  0  0  0  0  0
    1.3509    0.0000    0.0000 C   0  0  0  0  0  0  0  0  0  0  0  0
    7.3274   -4.5999    0.0000 N   0  3  0  0  0  0  0  0  0  0  0  0
    8.5501   -4.0527    0.0000 O   0  5  0  0  0  0  0  0  0  0  0  0
    7.1991   -5.9337    0.0000 O   0  0  0  0  0  0  0  0  0  0  0  0
  1  2  1  0  0  0  0
  1  3  1  0  0  0  0
  1 14  1  0  0  0  0
  2  4  2  0  0  0  0
  2  9  1  0  0  0  0
  3  5  2  0  0  0  0
  3  8  1  0  0  0  0
  4  5  1  0  0  0  0
  4  6  1  0  0  0  0
  5  7  1  0  0  0  0
  6 10  2  0  0  0  0
  7 11  2  0  0  0  0
  8 13  2  0  0  0  0
  9 12  2  0  0  0  0
 10 12  1  0  0  0  0
 11 13  1  0  0  0  0
 11 16  1  0  0  0  0
 14 15  1  0  0  0  0
 16 17  1  0  0  0  0
 16 18  2  0  0  0  0
M  END
> <ID>
10642

> <Formula>
C14H12N2O2

> <FW>
240.2573

> <DSSTox_CID>
24995

> <DSSTox_RID>
80640

> <DSSTox_GSID>
44995

> <DSSTox_FileID_Sort>
5322

> <TS_ChemName>
9-Ethyl-3-nitro-9H-carbazole

> <TS_ChemName_Synonyms>
9-Ethyl-3-nitro-9H-carbazole (9H-Carbazole, 9-ethyl-3-nitro-)

> <TS_CASRN>
86-20-4

> <CASRN_ChemName_Relationship>
primary

> <TS_Description>
single chemical compound

> <ChemNote>


> <STRUCTURE_Shown>
tested chemical

> <STRUCTURE_Formula>
C14H12N2O2

> <STRUCTURE_MW>
240.2573

> <STRUCTURE_ChemType>
defined organic

> <STRUCTURE_DefinedOrganicForm>
parent

> <STRUCTURE_IUPAC>
9-ethyl-3-nitro-9H-carbazole

> <STRUCTURE_SMILES>
[O-][N+](=O)c2cc3c1ccccc1n(CC)c3cc2

> <STRUCTURE_SMILES_Desalt>
[O-][N+](=O)c2cc3c1ccccc1n(CC)c3cc2

> <Substance_modify_yyyymmdd>
20091116

$$$$
