86-50-0
ChemmineR-0915142007XD

 19 20  0  0  0  0  0  0  0  0  1 V2000
    3.4502   -0.9739    0.0000 O   0  0  0  0  0  0  0  0  0  0  0  0
    3.4502   -2.3002    0.0000 C   0  0  0  0  0  0  0  0  0  0  0  0
    2.3002   -2.9736    0.0000 C   0  0  0  0  0  0  0  0  0  0  0  0
    2.3002   -4.2998    0.0000 C   0  0  0  0  0  0  0  0  0  0  0  0
    1.1501   -4.9629    0.0000 C   0  0  0  0  0  0  0  0  0  0  0  0
    0.0000   -4.2998    0.0000 C   0  0  0  0  0  0  0  0  0  0  0  0
    0.0000   -2.9736    0.0000 C   0  0  0  0  0  0  0  0  0  0  0  0
    1.1501   -2.3002    0.0000 C   0  0  0  0  0  0  0  0  0  0  0  0
    3.4502   -4.9629    0.0000 N   0  0  0  0  0  0  0  0  0  0  0  0
    4.6003   -4.2998    0.0000 N   0  0  0  0  0  0  0  0  0  0  0  0
    4.6003   -2.9736    0.0000 N   0  0  0  0  0  0  0  0  0  0  0  0
    5.7607   -2.3002    0.0000 C   0  0  0  0  0  0  0  0  0  0  0  0
    6.9108   -2.9736    0.0000 S   0  0  0  0  0  0  0  0  0  0  0  0
    8.0609   -2.3002    0.0000 P   0  0  0  0  0  0  0  0  0  0  0  0
    8.7240   -3.4606    0.0000 S   0  0  0  0  0  0  0  0  0  0  0  0
    7.3978   -1.1501    0.0000 O   0  0  0  0  0  0  0  0  0  0  0  0
    8.0609    0.0000    0.0000 C   0  0  0  0  0  0  0  0  0  0  0  0
    9.2110   -1.6370    0.0000 O   0  0  0  0  0  0  0  0  0  0  0  0
   10.3610   -2.3002    0.0000 C   0  0  0  0  0  0  0  0  0  0  0  0
  1  2  2  0  0  0  0
  2  3  1  0  0  0  0
  2 11  1  0  0  0  0
  3  4  2  0  0  0  0
  3  8  1  0  0  0  0
  4  5  1  0  0  0  0
  4  9  1  0  0  0  0
  5  6  2  0  0  0  0
  6  7  1  0  0  0  0
  7  8  2  0  0  0  0
  9 10  2  0  0  0  0
 10 11  1  0  0  0  0
 11 12  1  0  0  0  0
 12 13  1  0  0  0  0
 13 14  1  0  0  0  0
 14 15  2  0  0  0  0
 14 16  1  0  0  0  0
 14 18  1  0  0  0  0
 16 17  1  0  0  0  0
 18 19  1  0  0  0  0
M  END
> <ID>
119

> <Formula>
C10H12N3O3PS2

> <FW>
317.3243

> <DSSTox_CID>
122

> <DSSTox_RID>
75384

> <DSSTox_GSID>
20122

> <DSSTox_FileID_Sort>
68

> <TS_ChemName>
Azinphos-methyl

> <TS_ChemName_Synonyms>
Gusathion

> <TS_CASRN>
86-50-0

> <CASRN_ChemName_Relationship>
primary

> <TS_Description>
single chemical compound

> <ChemNote>


> <STRUCTURE_Shown>
tested chemical

> <STRUCTURE_Formula>
C10H12N3O3PS2

> <STRUCTURE_MW>
317.3243

> <STRUCTURE_ChemType>
defined organic

> <STRUCTURE_DefinedOrganicForm>
parent

> <STRUCTURE_IUPAC>
O,O-dimethyl S-[(4-oxo-1,2,3-benzotriazin-3(4H)-yl)methyl] phosphorodithioate

> <STRUCTURE_SMILES>
COP(=S)(OC)SCN1N=Nc2ccccc2C1=O

> <STRUCTURE_SMILES_Desalt>
COP(=S)(OC)SCN1N=Nc2ccccc2C1=O

> <Substance_modify_yyyymmdd>
20080429

$$$$
