86-75-9
ChemmineR-0915142007XD

 19 21  0  0  0  0  0  0  0  0  1 V2000
    3.4493   -1.3136    0.0000 C   0  0  0  0  0  0  0  0  0  0  0  0
    4.6097   -1.9906    0.0000 O   0  0  0  0  0  0  0  0  0  0  0  0
    4.6097   -3.3203    0.0000 C   0  0  0  0  0  0  0  0  0  0  0  0
    5.7461   -3.9811    0.0000 C   0  0  0  0  0  0  0  0  0  0  0  0
    6.9066   -3.3203    0.0000 N   0  0  0  0  0  0  0  0  0  0  0  0
    3.4493    0.0000    0.0000 O   0  0  0  0  0  0  0  0  0  0  0  0
    2.3129   -1.9906    0.0000 C   0  0  0  0  0  0  0  0  0  0  0  0
    5.7461   -5.3109    0.0000 C   0  0  0  0  0  0  0  0  0  0  0  0
    3.4493   -3.9811    0.0000 C   0  0  0  0  0  0  0  0  0  0  0  0
    3.4493   -5.3109    0.0000 C   0  0  0  0  0  0  0  0  0  0  0  0
    8.0590   -3.9811    0.0000 C   0  0  0  0  0  0  0  0  0  0  0  0
    4.6097   -5.9717    0.0000 C   0  0  0  0  0  0  0  0  0  0  0  0
    1.1524   -1.3136    0.0000 C   0  0  0  0  0  0  0  0  0  0  0  0
    2.3129   -3.3203    0.0000 C   0  0  0  0  0  0  0  0  0  0  0  0
    6.9066   -5.9717    0.0000 C   0  0  0  0  0  0  0  0  0  0  0  0
    8.0590   -5.3109    0.0000 C   0  0  0  0  0  0  0  0  0  0  0  0
    1.1524   -3.9811    0.0000 C   0  0  0  0  0  0  0  0  0  0  0  0
    0.0000   -1.9906    0.0000 C   0  0  0  0  0  0  0  0  0  0  0  0
    0.0000   -3.3203    0.0000 C   0  0  0  0  0  0  0  0  0  0  0  0
  1  2  1  0  0  0  0
  1  6  2  0  0  0  0
  1  7  1  0  0  0  0
  2  3  1  0  0  0  0
  3  4  1  0  0  0  0
  3  9  2  0  0  0  0
  4  5  1  0  0  0  0
  4  8  2  0  0  0  0
  5 11  2  0  0  0  0
  7 13  1  0  0  0  0
  7 14  2  0  0  0  0
  8 15  1  0  0  0  0
  8 12  1  0  0  0  0
  9 10  1  0  0  0  0
 10 12  2  0  0  0  0
 11 16  1  0  0  0  0
 13 18  2  0  0  0  0
 14 17  1  0  0  0  0
 15 16  2  0  0  0  0
 17 19  2  0  0  0  0
 18 19  1  0  0  0  0
M  END
> <ID>
11386

> <Formula>
C16H11NO2

> <FW>
249.264

> <DSSTox_CID>
26069

> <DSSTox_RID>
81318

> <DSSTox_GSID>
46069

> <DSSTox_FileID_Sort>
5999

> <TS_ChemName>
Benzoxiquine

> <TS_ChemName_Synonyms>


> <TS_CASRN>
86-75-9

> <CASRN_ChemName_Relationship>
primary

> <TS_Description>
single chemical compound

> <ChemNote>


> <STRUCTURE_Shown>
tested chemical

> <STRUCTURE_Formula>
C16H11NO2

> <STRUCTURE_MW>
249.264

> <STRUCTURE_ChemType>
defined organic

> <STRUCTURE_DefinedOrganicForm>
parent

> <STRUCTURE_IUPAC>
quinolin-8-yl benzoate

> <STRUCTURE_SMILES>
O=C(Oc1cccc2cccnc12)c3ccccc3

> <STRUCTURE_SMILES_Desalt>
O=C(Oc1cccc2cccnc12)c3ccccc3

> <Substance_modify_yyyymmdd>
20110819

$$$$
