86-73-7
ChemmineR-0915142007XD

 13 15  0  0  0  0  0  0  0  0  1 V2000
    2.1965   -1.9006    0.0000 C   0  0  0  0  0  0  0  0  0  0  0  0
    4.3799   -1.9006    0.0000 C   0  0  0  0  0  0  0  0  0  0  0  0
    4.3799   -0.6248    0.0000 C   0  0  0  0  0  0  0  0  0  0  0  0
    2.1965   -0.6248    0.0000 C   0  0  0  0  0  0  0  0  0  0  0  0
    3.2882    0.0000    0.0000 C   0  0  0  0  0  0  0  0  0  0  0  0
    1.1048   -2.5451    0.0000 C   0  0  0  0  0  0  0  0  0  0  0  0
    5.4716   -2.5451    0.0000 C   0  0  0  0  0  0  0  0  0  0  0  0
    1.1048    0.0000    0.0000 C   0  0  0  0  0  0  0  0  0  0  0  0
    5.4716    0.0000    0.0000 C   0  0  0  0  0  0  0  0  0  0  0  0
    6.5764   -1.9006    0.0000 C   0  0  0  0  0  0  0  0  0  0  0  0
    0.0000   -1.9006    0.0000 C   0  0  0  0  0  0  0  0  0  0  0  0
    6.5764   -0.6248    0.0000 C   0  0  0  0  0  0  0  0  0  0  0  0
    0.0000   -0.6248    0.0000 C   0  0  0  0  0  0  0  0  0  0  0  0
  1  2  1  0  0  0  0
  1  4  2  0  0  0  0
  1  6  1  0  0  0  0
  2  3  2  0  0  0  0
  2  7  1  0  0  0  0
  3  9  1  0  0  0  0
  3  5  1  0  0  0  0
  4  5  1  0  0  0  0
  4  8  1  0  0  0  0
  6 11  2  0  0  0  0
  7 10  2  0  0  0  0
  8 13  2  0  0  0  0
  9 12  2  0  0  0  0
 10 12  1  0  0  0  0
 11 13  1  0  0  0  0
M  END
> <ID>
3504

> <Formula>
C13H10

> <FW>
166.2185

> <DSSTox_CID>
4105

> <DSSTox_RID>
77291

> <DSSTox_GSID>
24105

> <DSSTox_FileID_Sort>
1974

> <TS_ChemName>
Fluorene

> <TS_ChemName_Synonyms>


> <TS_CASRN>
86-73-7

> <CASRN_ChemName_Relationship>
primary

> <TS_Description>
single chemical compound

> <ChemNote>


> <STRUCTURE_Shown>
tested chemical

> <STRUCTURE_Formula>
C13H10

> <STRUCTURE_MW>
166.2185

> <STRUCTURE_ChemType>
defined organic

> <STRUCTURE_DefinedOrganicForm>
parent

> <STRUCTURE_IUPAC>
9H-fluorene

> <STRUCTURE_SMILES>
c1cccc2Cc3ccccc3c12

> <STRUCTURE_SMILES_Desalt>
c1cccc2Cc3ccccc3c12

> <Substance_modify_yyyymmdd>
20080429

$$$$
