86-88-4
ChemmineR-0915142007XD

 14 15  0  0  0  0  0  0  0  0  1 V2000
    6.9108   -1.9972    0.0000 N   0  0  0  0  0  0  0  0  0  0  0  0
    5.7567   -2.6606    0.0000 C   0  0  0  0  0  0  0  0  0  0  0  0
    5.7567   -3.9944    0.0000 S   0  0  0  0  0  0  0  0  0  0  0  0
    4.6095   -1.9972    0.0000 N   0  0  0  0  0  0  0  0  0  0  0  0
    3.4554   -2.6606    0.0000 C   0  0  0  0  0  0  0  0  0  0  0  0
    2.3013   -1.9972    0.0000 C   0  0  0  0  0  0  0  0  0  0  0  0
    1.1541   -2.6606    0.0000 C   0  0  0  0  0  0  0  0  0  0  0  0
    1.1541   -3.9944    0.0000 C   0  0  0  0  0  0  0  0  0  0  0  0
    2.3013   -4.6579    0.0000 C   0  0  0  0  0  0  0  0  0  0  0  0
    3.4554   -3.9944    0.0000 C   0  0  0  0  0  0  0  0  0  0  0  0
    0.0000   -1.9972    0.0000 C   0  0  0  0  0  0  0  0  0  0  0  0
    0.0000   -0.6703    0.0000 C   0  0  0  0  0  0  0  0  0  0  0  0
    1.1541    0.0000    0.0000 C   0  0  0  0  0  0  0  0  0  0  0  0
    2.3013   -0.6703    0.0000 C   0  0  0  0  0  0  0  0  0  0  0  0
  1  2  1  0  0  0  0
  2  3  2  0  0  0  0
  2  4  1  0  0  0  0
  4  5  1  0  0  0  0
  5  6  2  0  0  0  0
  5 10  1  0  0  0  0
  6  7  1  0  0  0  0
  6 14  1  0  0  0  0
  7  8  2  0  0  0  0
  7 11  1  0  0  0  0
  8  9  1  0  0  0  0
  9 10  2  0  0  0  0
 11 12  2  0  0  0  0
 12 13  1  0  0  0  0
 13 14  2  0  0  0  0
M  END
> <ID>
885

> <Formula>
C11H10N2S

> <FW>
202.2755

> <DSSTox_CID>
919

> <DSSTox_RID>
75866

> <DSSTox_GSID>
20919

> <DSSTox_FileID_Sort>
550

> <TS_ChemName>
1-(1-Naphthyl)-2-thiourea

> <TS_ChemName_Synonyms>
1-(1-Naphthyl)-2-thiourea (.alpha.-Naphthylthiourea)

> <TS_CASRN>
86-88-4

> <CASRN_ChemName_Relationship>
primary

> <TS_Description>
single chemical compound

> <ChemNote>


> <STRUCTURE_Shown>
tested chemical

> <STRUCTURE_Formula>
C11H10N2S

> <STRUCTURE_MW>
202.2755

> <STRUCTURE_ChemType>
defined organic

> <STRUCTURE_DefinedOrganicForm>
parent

> <STRUCTURE_IUPAC>
1-naphthalen-1-ylthiourea

> <STRUCTURE_SMILES>
NC(=S)Nc2cccc1ccccc12

> <STRUCTURE_SMILES_Desalt>
NC(=S)Nc2cccc1ccccc12

> <Substance_modify_yyyymmdd>
20080429

$$$$
