86-86-2
ChemmineR-0915142007XD

 14 15  0  0  0  0  0  0  0  0  1 V2000
    6.9108   -1.9972    0.0000 N   0  0  0  0  0  0  0  0  0  0  0  0
    5.7567   -2.6606    0.0000 C   0  0  0  0  0  0  0  0  0  0  0  0
    5.7567   -3.9944    0.0000 O   0  0  0  0  0  0  0  0  0  0  0  0
    4.6095   -1.9972    0.0000 C   0  0  0  0  0  0  0  0  0  0  0  0
    3.4554   -2.6606    0.0000 C   0  0  0  0  0  0  0  0  0  0  0  0
    2.3013   -1.9972    0.0000 C   0  0  0  0  0  0  0  0  0  0  0  0
    1.1541   -2.6606    0.0000 C   0  0  0  0  0  0  0  0  0  0  0  0
    1.1541   -3.9944    0.0000 C   0  0  0  0  0  0  0  0  0  0  0  0
    2.3013   -4.6579    0.0000 C   0  0  0  0  0  0  0  0  0  0  0  0
    3.4554   -3.9944    0.0000 C   0  0  0  0  0  0  0  0  0  0  0  0
    0.0000   -1.9972    0.0000 C   0  0  0  0  0  0  0  0  0  0  0  0
    0.0000   -0.6703    0.0000 C   0  0  0  0  0  0  0  0  0  0  0  0
    1.1541    0.0000    0.0000 C   0  0  0  0  0  0  0  0  0  0  0  0
    2.3013   -0.6703    0.0000 C   0  0  0  0  0  0  0  0  0  0  0  0
  1  2  1  0  0  0  0
  2  3  2  0  0  0  0
  2  4  1  0  0  0  0
  4  5  1  0  0  0  0
  5  6  2  0  0  0  0
  5 10  1  0  0  0  0
  6  7  1  0  0  0  0
  6 14  1  0  0  0  0
  7  8  2  0  0  0  0
  7 11  1  0  0  0  0
  8  9  1  0  0  0  0
  9 10  2  0  0  0  0
 11 12  2  0  0  0  0
 12 13  1  0  0  0  0
 13 14  2  0  0  0  0
M  END
> <ID>
880

> <Formula>
C12H11NO

> <FW>
185.2218

> <DSSTox_CID>
914

> <DSSTox_RID>
75861

> <DSSTox_GSID>
20914

> <DSSTox_FileID_Sort>
545

> <TS_ChemName>
1-Naphthaleneacetamide

> <TS_ChemName_Synonyms>


> <TS_CASRN>
86-86-2

> <CASRN_ChemName_Relationship>
primary

> <TS_Description>
single chemical compound

> <ChemNote>


> <STRUCTURE_Shown>
tested chemical

> <STRUCTURE_Formula>
C12H11NO

> <STRUCTURE_MW>
185.2218

> <STRUCTURE_ChemType>
defined organic

> <STRUCTURE_DefinedOrganicForm>
parent

> <STRUCTURE_IUPAC>
2-(naphthalen-1-yl)acetamide

> <STRUCTURE_SMILES>
NC(=O)Cc2cccc1ccccc12

> <STRUCTURE_SMILES_Desalt>
NC(=O)Cc2cccc1ccccc12

> <Substance_modify_yyyymmdd>
20080429

$$$$
