860-22-0
ChemmineR-0915142007XD

 30 31  0  0  0  0  0  0  0  0  2 V2000
    5.8451  -12.1017    0.0000 Na   0  3  0  0  0  0  0  0  0  0  0  0
    4.5260  -12.1017    0.0000 Na   0  3  0  0  0  0  0  0  0  0  0  0
    6.4018   -5.7241    0.0000 C    0  0  0  0  0  0  0  0  0  0  0  0
    5.2522   -5.0585    0.0000 C    0  0  0  0  0  0  0  0  0  0  0  0
    5.1069   -3.7273    0.0000 C    0  0  0  0  0  0  0  0  0  0  0  0
    3.8120   -3.4490    0.0000 C    0  0  0  0  0  0  0  0  0  0  0  0
    3.1464   -2.2993    0.0000 C    0  0  0  0  0  0  0  0  0  0  0  0
    1.8153   -2.2993    0.0000 C    0  0  0  0  0  0  0  0  0  0  0  0
    1.1497   -1.1497    0.0000 S    0  0  0  0  0  0  0  0  0  0  0  0
    0.0000   -1.8153    0.0000 O    0  0  0  0  0  0  0  0  0  0  0  0
    2.2993   -0.4841    0.0000 O    0  0  0  0  0  0  0  0  0  0  0  0
    0.4841    0.0000    0.0000 O    0  5  0  0  0  0  0  0  0  0  0  0
    1.1497   -3.4490    0.0000 C    0  0  0  0  0  0  0  0  0  0  0  0
    1.8153   -4.6108    0.0000 C    0  0  0  0  0  0  0  0  0  0  0  0
    3.1464   -4.6108    0.0000 C    0  0  0  0  0  0  0  0  0  0  0  0
    4.0299   -5.5910    0.0000 N    0  0  0  0  0  0  0  0  0  0  0  0
    6.0993   -2.8439    0.0000 O    0  0  0  0  0  0  0  0  0  0  0  0
    6.5470   -7.0432    0.0000 C    0  0  0  0  0  0  0  0  0  0  0  0
    7.8419   -7.3215    0.0000 C    0  0  0  0  0  0  0  0  0  0  0  0
    8.5075   -8.4712    0.0000 C    0  0  0  0  0  0  0  0  0  0  0  0
    9.8387   -8.4712    0.0000 C    0  0  0  0  0  0  0  0  0  0  0  0
   10.5043   -9.6209    0.0000 S    0  0  0  0  0  0  0  0  0  0  0  0
    9.3546  -10.2865    0.0000 O    0  0  0  0  0  0  0  0  0  0  0  0
   11.6540   -8.9553    0.0000 O    0  0  0  0  0  0  0  0  0  0  0  0
   11.1699  -10.7705    0.0000 O    0  5  0  0  0  0  0  0  0  0  0  0
   10.5043   -7.3215    0.0000 C    0  0  0  0  0  0  0  0  0  0  0  0
    9.8387   -6.1598    0.0000 C    0  0  0  0  0  0  0  0  0  0  0  0
    8.5075   -6.1598    0.0000 C    0  0  0  0  0  0  0  0  0  0  0  0
    7.6120   -5.1795    0.0000 N    0  0  0  0  0  0  0  0  0  0  0  0
    5.5547   -7.9266    0.0000 O    0  0  0  0  0  0  0  0  0  0  0  0
  3  4  2  0  0  0  0
  3 18  1  0  0  0  0
  3 29  1  0  0  0  0
  4  5  1  0  0  0  0
  4 16  1  0  0  0  0
  5  6  1  0  0  0  0
  5 17  2  0  0  0  0
  6  7  2  0  0  0  0
  6 15  1  0  0  0  0
  7  8  1  0  0  0  0
  8  9  1  0  0  0  0
  8 13  2  0  0  0  0
  9 10  2  0  0  0  0
  9 11  2  0  0  0  0
  9 12  1  0  0  0  0
 13 14  1  0  0  0  0
 14 15  2  0  0  0  0
 15 16  1  0  0  0  0
 18 19  1  0  0  0  0
 18 30  2  0  0  0  0
 19 20  2  0  0  0  0
 19 28  1  0  0  0  0
 20 21  1  0  0  0  0
 21 22  1  0  0  0  0
 21 26  2  0  0  0  0
 22 23  2  0  0  0  0
 22 24  2  0  0  0  0
 22 25  1  0  0  0  0
 26 27  1  0  0  0  0
 27 28  2  0  0  0  0
 28 29  1  0  0  0  0
M  END
> <ID>
187

> <Formula>
C16H8N2Na2O8S2

> <FW>
466.3529 (22.9892+22.9892+420.3744)

> <DSSTox_CID>
190

> <DSSTox_RID>
75423

> <DSSTox_GSID>
20190

> <DSSTox_FileID_Sort>
107

> <TS_ChemName>
C.I. Acid Blue 74

> <TS_ChemName_Synonyms>
C.I. Acid Blue 74 (Indigo carmine) (FD & C Blue No. 2)

> <TS_CASRN>
860-22-0

> <CASRN_ChemName_Relationship>
primary

> <TS_Description>
single chemical compound

> <ChemNote>
parent [483-20-5]

> <STRUCTURE_Shown>
tested chemical

> <STRUCTURE_Formula>
C16H8N2Na2O8S2

> <STRUCTURE_MW>
466.3529

> <STRUCTURE_ChemType>
defined organic

> <STRUCTURE_DefinedOrganicForm>
salt

> <STRUCTURE_IUPAC>
disodium (2E)-3-oxo-2-(3-oxo-5-sulfonato-1,3-dihydro-2H-indol-2-ylidene)-2,3-dihydro-1H-indole-5-sulfonate

> <STRUCTURE_SMILES>
[Na+].[Na+].[O-]S(=O)(=O)c1cc2C(=O)C(\Nc2cc1)=C4/Nc3ccc(cc3C4=O)S([O-])(=O)=O

> <STRUCTURE_SMILES_Desalt>
O=S(=O)(O)c1cc2C(=O)C(\Nc2cc1)=C4/Nc3ccc(cc3C4=O)S(=O)(=O)O

> <Substance_modify_yyyymmdd>
20080429

$$$$
