86197-47-9
ChemmineR-0915142007XD

 26 27  0  0  0  0  0  0  0  0  1 V2000
    2.2927   -2.0277    0.0000 C   0  0  0  0  0  0  0  0  0  0  0  0
    1.1982   -2.6844    0.0000 C   0  0  0  0  0  0  0  0  0  0  0  0
    3.4909   -2.6844    0.0000 C   0  0  0  0  0  0  0  0  0  0  0  0
    1.1982   -3.9863    0.0000 C   0  0  0  0  0  0  0  0  0  0  0  0
    3.4909   -4.0208    0.0000 C   0  0  0  0  0  0  0  0  0  0  0  0
    2.2927   -0.6913    0.0000 O   0  0  0  0  0  0  0  0  0  0  0  0
    2.2927   -4.6775    0.0000 C   0  0  0  0  0  0  0  0  0  0  0  0
   10.3689   -3.9863    0.0000 N   0  0  0  0  0  0  0  0  0  0  0  0
    5.7605   -6.6707    0.0000 N   0  0  0  0  0  0  0  0  0  0  0  0
    0.0000   -2.0277    0.0000 O   0  0  0  0  0  0  0  0  0  0  0  0
    8.0532   -2.6498    0.0000 C   0  0  0  0  0  0  0  0  0  0  0  0
    4.6084   -6.0140    0.0000 C   0  0  0  0  0  0  0  0  0  0  0  0
    9.2283   -4.6430    0.0000 C   0  0  0  0  0  0  0  0  0  0  0  0
   11.5210   -4.6430    0.0000 C   0  0  0  0  0  0  0  0  0  0  0  0
    6.9126   -6.0140    0.0000 C   0  0  0  0  0  0  0  0  0  0  0  0
    4.6084   -4.6775    0.0000 C   0  0  0  0  0  0  0  0  0  0  0  0
    8.0532   -3.9863    0.0000 C   0  0  0  0  0  0  0  0  0  0  0  0
    6.9126   -1.9931    0.0000 C   0  0  0  0  0  0  0  0  0  0  0  0
    9.2283   -1.9931    0.0000 C   0  0  0  0  0  0  0  0  0  0  0  0
   11.5210   -5.9794    0.0000 C   0  0  0  0  0  0  0  0  0  0  0  0
    8.0532   -6.6707    0.0000 C   0  0  0  0  0  0  0  0  0  0  0  0
   10.3689   -6.6361    0.0000 C   0  0  0  0  0  0  0  0  0  0  0  0
    9.2283   -5.9794    0.0000 C   0  0  0  0  0  0  0  0  0  0  0  0
    9.2283   -0.6567    0.0000 C   0  0  0  0  0  0  0  0  0  0  0  0
    6.9126   -0.6567    0.0000 C   0  0  0  0  0  0  0  0  0  0  0  0
    8.0532    0.0000    0.0000 C   0  0  0  0  0  0  0  0  0  0  0  0
  1  2  2  0  0  0  0
  1  3  1  0  0  0  0
  1  6  1  0  0  0  0
  2  4  1  0  0  0  0
  2 10  1  0  0  0  0
  3  5  2  0  0  0  0
  4  7  2  0  0  0  0
  5  7  1  0  0  0  0
  5 16  1  0  0  0  0
  8 14  1  0  0  0  0
  8 13  1  0  0  0  0
  9 12  1  0  0  0  0
  9 15  1  0  0  0  0
 11 17  1  0  0  0  0
 11 18  2  0  0  0  0
 11 19  1  0  0  0  0
 12 16  1  0  0  0  0
 13 17  1  0  0  0  0
 14 20  1  0  0  0  0
 15 21  1  0  0  0  0
 18 25  1  0  0  0  0
 19 24  2  0  0  0  0
 20 22  1  0  0  0  0
 21 23  1  0  0  0  0
 22 23  1  0  0  0  0
 24 26  1  0  0  0  0
 25 26  2  0  0  0  0
M  END
> <ID>
13661

> <Formula>
C22H32N2O2

> <FW>
356.5017

> <DSSTox_CID>
28592

> <DSSTox_RID>
82863

> <DSSTox_GSID>
48666

> <DSSTox_FileID_Sort>
7540

> <TS_ChemName>
Dopexamine

> <TS_ChemName_Synonyms>


> <TS_CASRN>
86197-47-9

> <CASRN_ChemName_Relationship>
primary

> <TS_Description>
single chemical compound

> <ChemNote>


> <STRUCTURE_Shown>
tested chemical

> <STRUCTURE_Formula>
C22H32N2O2

> <STRUCTURE_MW>
356.5017

> <STRUCTURE_ChemType>
defined organic

> <STRUCTURE_DefinedOrganicForm>
parent

> <STRUCTURE_IUPAC>
4-[2-({6-[(2-phenylethyl)amino]hexyl}amino)ethyl]benzene-1,2-diol

> <STRUCTURE_SMILES>
Oc2ccc(CCNCCCCCCNCCc1ccccc1)cc2O

> <STRUCTURE_SMILES_Desalt>
Oc2ccc(CCNCCCCCCNCCc1ccccc1)cc2O

> <Substance_modify_yyyymmdd>
20111204

$$$$
