862243-29-6
ChemmineR-0915142007XD

 34 37  0  0  0  0  0  0  0  0  1 V2000
    4.6157   -5.9908    0.0000 C    0  0  0  0  0  0  0  0  0  0  0  0
    4.6157   -7.3182    0.0000 C    0  0  0  0  0  0  0  0  0  0  0  0
    3.4558   -5.3092    0.0000 C    0  0  0  0  0  0  0  0  0  0  0  0
    3.4558   -7.9758    0.0000 N    0  0  0  0  0  0  0  0  0  0  0  0
    2.3078   -5.9908    0.0000 C    0  0  0  0  0  0  0  0  0  0  0  0
    2.3078   -7.3182    0.0000 C    0  0  0  0  0  0  0  0  0  0  0  0
    5.7636   -5.3092    0.0000 C    0  0  0  0  0  0  0  0  0  0  0  0
    6.9116   -5.9908    0.0000 C    0  0  0  0  0  0  0  0  0  0  0  0
    5.7636   -7.9758    0.0000 C    0  0  0  0  0  0  0  0  0  0  0  0
    6.9116   -7.3182    0.0000 C    0  0  0  0  0  0  0  0  0  0  0  0
    3.4558   -3.9819    0.0000 O    0  0  0  0  0  0  0  0  0  0  0  0
    1.1479   -5.3092    0.0000 C    0  0  0  0  0  0  0  0  0  0  0  0
    1.1479   -3.9819    0.0000 O    0  0  0  0  0  0  0  0  0  0  0  0
    0.0000   -5.9908    0.0000 O    0  0  0  0  0  0  0  0  0  0  0  0
    3.4558   -9.3031    0.0000 C    0  0  0  0  0  0  0  0  0  0  0  0
    8.0715   -7.9758    0.0000 Cl   0  0  0  0  0  0  0  0  0  0  0  0
    8.0715   -5.3092    0.0000 N    0  0  0  0  0  0  0  0  0  0  0  0
    8.0715   -3.9819    0.0000 C    0  0  0  0  0  0  0  0  0  0  0  0
    4.6157   -9.9728    0.0000 C    0  0  0  0  0  0  0  0  0  0  0  0
    4.6157  -11.3001    0.0000 C    0  0  0  0  0  0  0  0  0  0  0  0
    3.4558  -11.9578    0.0000 C    0  0  0  0  0  0  0  0  0  0  0  0
    2.3078   -9.9728    0.0000 C    0  0  0  0  0  0  0  0  0  0  0  0
    2.3078  -11.3001    0.0000 C    0  0  0  0  0  0  0  0  0  0  0  0
    1.1479   -9.3031    0.0000 C    0  0  0  0  0  0  0  0  0  0  0  0
    1.1479   -7.9758    0.0000 O    0  0  0  0  0  0  0  0  0  0  0  0
    0.0000   -9.9728    0.0000 O    0  0  0  0  0  0  0  0  0  0  0  0
    9.2075   -1.9969    0.0000 C    0  0  0  0  0  0  0  0  0  0  0  0
    9.2075   -3.3243    0.0000 C    0  0  0  0  0  0  0  0  0  0  0  0
    8.0715   -1.3273    0.0000 C    0  0  0  0  0  0  0  0  0  0  0  0
    6.9116   -1.9969    0.0000 C    0  0  0  0  0  0  0  0  0  0  0  0
    6.9116   -3.3243    0.0000 C    0  0  0  0  0  0  0  0  0  0  0  0
    5.7636   -3.9819    0.0000 Cl   0  0  0  0  0  0  0  0  0  0  0  0
    8.0715    0.0000    0.0000 F    0  0  0  0  0  0  0  0  0  0  0  0
   10.3554   -3.9819    0.0000 F    0  0  0  0  0  0  0  0  0  0  0  0
  1  3  1  0  0  0  0
  1  7  1  0  0  0  0
  1  2  2  0  0  0  0
  2  4  1  0  0  0  0
  2  9  1  0  0  0  0
  3  5  1  0  0  0  0
  3 11  2  0  0  0  0
  4  6  1  0  0  0  0
  4 15  1  0  0  0  0
  5  6  2  0  0  0  0
  5 12  1  0  0  0  0
  7  8  2  0  0  0  0
  8 10  1  0  0  0  0
  8 17  1  0  0  0  0
  9 10  2  0  0  0  0
 10 16  1  0  0  0  0
 12 13  1  0  0  0  0
 12 14  2  0  0  0  0
 15 19  2  0  0  0  0
 15 22  1  0  0  0  0
 17 18  1  0  0  0  0
 18 28  2  0  0  0  0
 18 31  1  0  0  0  0
 19 20  1  0  0  0  0
 20 21  2  0  0  0  0
 21 23  1  0  0  0  0
 22 23  2  0  0  0  0
 22 24  1  0  0  0  0
 24 25  1  0  0  0  0
 24 26  2  0  0  0  0
 27 28  1  0  0  0  0
 27 29  2  0  0  0  0
 28 34  1  0  0  0  0
 29 30  1  0  0  0  0
 29 33  1  0  0  0  0
 30 31  2  0  0  0  0
 31 32  1  0  0  0  0
M  END
> <ID>
12517

> <Formula>
C23H12Cl2F2N2O5

> <FW>
505.2546

> <DSSTox_CID>
27375

> <DSSTox_RID>
82306

> <DSSTox_GSID>
47375

> <DSSTox_FileID_Sort>
6987

> <TS_ChemName>
AVE9423

> <TS_ChemName_Synonyms>


> <TS_CASRN>
862243-29-6

> <CASRN_ChemName_Relationship>
primary

> <TS_Description>
single chemical compound

> <ChemNote>


> <STRUCTURE_Shown>
tested chemical

> <STRUCTURE_Formula>
C23H12Cl2F2N2O5

> <STRUCTURE_MW>
505.2546

> <STRUCTURE_ChemType>
defined organic

> <STRUCTURE_DefinedOrganicForm>
parent

> <STRUCTURE_IUPAC>
1-(2-carboxyphenyl)-7-chloro-6-[(2-chloro-4,6-difluorophenyl)amino]-4-oxo-1,4-dihydroquinoline-3-carboxylic acid

> <STRUCTURE_SMILES>
O=C(O)c1ccccc1N4C=C(C(=O)c3cc(Nc2c(F)cc(F)cc2Cl)c(Cl)cc34)C(=O)O

> <STRUCTURE_SMILES_Desalt>
O=C(O)c1ccccc1N4C=C(C(=O)c3cc(Nc2c(F)cc(F)cc2Cl)c(Cl)cc34)C(=O)O

> <Substance_modify_yyyymmdd>
20130910

$$$$
