863-61-6
ChemmineR-0915142007XD

 33 34  0  0  0  0  0  0  0  0  1 V2000
    2.2312   -3.3813    0.0000 C   0  0  0  0  0  0  0  0  0  0  0  0
    2.2312   -1.9782    0.0000 C   0  0  0  0  0  0  0  0  0  0  0  0
    3.4503   -4.0483    0.0000 C   0  0  0  0  0  0  0  0  0  0  0  0
    1.1501   -4.0483    0.0000 C   0  0  0  0  0  0  0  0  0  0  0  0
    3.4503   -1.3801    0.0000 C   0  0  0  0  0  0  0  0  0  0  0  0
    1.1501   -1.3801    0.0000 C   0  0  0  0  0  0  0  0  0  0  0  0
    4.6004   -3.3813    0.0000 C   0  0  0  0  0  0  0  0  0  0  0  0
    3.4503   -5.3595    0.0000 O   0  0  0  0  0  0  0  0  0  0  0  0
    0.0000   -3.3813    0.0000 C   0  0  0  0  0  0  0  0  0  0  0  0
    4.6004   -1.9782    0.0000 C   0  0  0  0  0  0  0  0  0  0  0  0
    3.4503    0.0000    0.0000 O   0  0  0  0  0  0  0  0  0  0  0  0
    0.0000   -1.9782    0.0000 C   0  0  0  0  0  0  0  0  0  0  0  0
    5.7505   -4.0483    0.0000 C   0  0  0  0  0  0  0  0  0  0  0  0
    5.7505   -1.3801    0.0000 C   0  0  0  0  0  0  0  0  0  0  0  0
    6.9006   -3.3813    0.0000 C   0  0  0  0  0  0  0  0  0  0  0  0
    8.0507   -4.0483    0.0000 C   0  0  0  0  0  0  0  0  0  0  0  0
    9.1318   -3.3813    0.0000 C   0  0  0  0  0  0  0  0  0  0  0  0
    8.0507   -5.3595    0.0000 C   0  0  0  0  0  0  0  0  0  0  0  0
   10.2819   -4.0483    0.0000 C   0  0  0  0  0  0  0  0  0  0  0  0
   11.5010   -3.3813    0.0000 C   0  0  0  0  0  0  0  0  0  0  0  0
   12.6511   -4.0483    0.0000 C   0  0  0  0  0  0  0  0  0  0  0  0
   13.8012   -3.3813    0.0000 C   0  0  0  0  0  0  0  0  0  0  0  0
   12.6511   -5.3595    0.0000 C   0  0  0  0  0  0  0  0  0  0  0  0
   14.9513   -4.0483    0.0000 C   0  0  0  0  0  0  0  0  0  0  0  0
   16.1014   -3.3813    0.0000 C   0  0  0  0  0  0  0  0  0  0  0  0
   17.2515   -4.0483    0.0000 C   0  0  0  0  0  0  0  0  0  0  0  0
   18.4016   -3.3813    0.0000 C   0  0  0  0  0  0  0  0  0  0  0  0
   17.2515   -5.3595    0.0000 C   0  0  0  0  0  0  0  0  0  0  0  0
   19.5517   -4.0483    0.0000 C   0  0  0  0  0  0  0  0  0  0  0  0
   20.7018   -3.3813    0.0000 C   0  0  0  0  0  0  0  0  0  0  0  0
   21.8518   -4.0483    0.0000 C   0  0  0  0  0  0  0  0  0  0  0  0
   23.0019   -3.3813    0.0000 C   0  0  0  0  0  0  0  0  0  0  0  0
   21.8518   -5.3595    0.0000 C   0  0  0  0  0  0  0  0  0  0  0  0
  1  2  2  0  0  0  0
  1  3  1  0  0  0  0
  1  4  1  0  0  0  0
  2  5  1  0  0  0  0
  2  6  1  0  0  0  0
  3  7  1  0  0  0  0
  3  8  2  0  0  0  0
  4  9  2  0  0  0  0
  5 10  1  0  0  0  0
  5 11  2  0  0  0  0
  6 12  2  0  0  0  0
  7 13  1  0  0  0  0
  7 10  2  0  0  0  0
  9 12  1  0  0  0  0
 10 14  1  0  0  0  0
 13 15  1  0  0  0  0
 15 16  2  0  0  0  0
 16 17  1  0  0  0  0
 16 18  1  0  0  0  0
 17 19  1  0  0  0  0
 19 20  1  0  0  0  0
 20 21  2  0  0  0  0
 21 22  1  0  0  0  0
 21 23  1  0  0  0  0
 22 24  1  0  0  0  0
 24 25  1  0  0  0  0
 25 26  2  0  0  0  0
 26 27  1  0  0  0  0
 26 28  1  0  0  0  0
 27 29  1  0  0  0  0
 29 30  1  0  0  0  0
 30 31  2  0  0  0  0
 31 32  1  0  0  0  0
 31 33  1  0  0  0  0
M  END
> <ID>
13957

> <Formula>
C31H40O2

> <FW>
444.6481

> <DSSTox_CID>
28895

> <DSSTox_RID>
83163

> <DSSTox_GSID>
48969

> <DSSTox_FileID_Sort>
7840

> <TS_ChemName>
Menatetrenone

> <TS_ChemName_Synonyms>
Vitamin K2

> <TS_CASRN>
863-61-6

> <CASRN_ChemName_Relationship>
primary

> <TS_Description>
single chemical compound

> <ChemNote>


> <STRUCTURE_Shown>
tested chemical

> <STRUCTURE_Formula>
C31H40O2

> <STRUCTURE_MW>
444.6481

> <STRUCTURE_ChemType>
defined organic

> <STRUCTURE_DefinedOrganicForm>
parent

> <STRUCTURE_IUPAC>
2-methyl-3-[(2E,6E,10E)-3,7,11,15-tetramethylhexadeca-2,6,10,14-tetraen-1-yl]naphthalene-1,4-dione

> <STRUCTURE_SMILES>
C/C(C)=C\CCC(\C)=C\CCC(\C)=C\CCC(\C)=C\CC2=C(C)C(=O)c1ccccc1C2=O

> <STRUCTURE_SMILES_Desalt>
C/C(C)=C\CCC(\C)=C\CCC(\C)=C\CCC(\C)=C\CC2=C(C)C(=O)c1ccccc1C2=O

> <Substance_modify_yyyymmdd>
20111204

$$$$
