86329-79-5
ChemmineR-0915142007XD

 41 42  0  0  1  0  0  0  0  0  2 V2000
    6.3316   -5.5447    0.0000 N    0  0  0  0  0  0  0  0  0  0  0  0
    4.8062   -5.5447    0.0000 C    0  0  0  0  0  0  0  0  0  0  0  0
    4.8062   -4.0919    0.0000 C    0  0  0  0  0  0  0  0  0  0  0  0
    6.3316   -4.0919    0.0000 C    0  0  0  0  0  0  0  0  0  0  0  0
    7.4696   -6.1984    0.0000 C    0  0  0  0  0  0  0  0  0  0  0  0
    1.4649   -5.2541    0.0000 C    0  0  0  0  0  0  0  0  0  0  0  0
    1.4649   -3.9224    0.0000 C    0  0  0  0  0  0  0  0  0  0  0  0
    0.3269   -5.9563    0.0000 N    0  0  0  0  0  0  0  0  0  0  0  0
    3.6803   -4.0919    0.0000 N    0  0  0  0  0  0  0  0  0  0  0  0
   12.1063   -3.3898    0.0000 N    0  0  0  0  0  0  0  0  0  0  0  0
   11.0531   -4.1161    0.0000 C    0  0  0  0  0  0  0  0  0  0  0  0
   10.3993   -2.1065    0.0000 C    0  0  0  0  0  0  0  0  0  0  0  0
    2.5786   -3.2929    0.0000 C    0  0  0  0  0  0  0  0  0  0  0  0
    7.4696   -3.3898    0.0000 S    0  0  0  0  0  0  0  0  0  0  0  0
    8.7044   -5.4963    0.0000 C    0  0  0  0  0  0  0  0  0  0  0  0
    9.9877   -3.3777    0.0000 S    0  0  0  0  0  0  0  0  0  0  0  0
    0.7748   -7.3364    0.0000 C    0  0  0  0  0  0  0  0  0  0  0  0
   11.7189   -2.1065    0.0000 C    0  0  0  0  0  0  0  0  0  0  0  0
    9.8909   -1.1501    0.0000 C    0  0  0  0  0  0  0  0  0  0  0  0
    2.5786   -6.1016    0.0000 C    0  0  0  0  0  0  0  0  0  0  0  0
    2.0944   -7.3364    0.0000 S    0  0  0  0  0  0  0  0  0  0  0  0
    7.4696   -7.5301    0.0000 C    0  0  0  0  0  0  0  0  0  0  0  0
    8.7044   -4.0919    0.0000 C    0  0  0  0  0  0  0  0  0  0  0  0
    8.5107   -1.1622    0.0000 C    0  0  0  0  0  0  0  0  0  0  0  0
    0.3027   -3.3413    0.0000 N    0  0  0  0  0  0  0  0  0  0  0  0
    4.0072   -6.4648    0.0000 O    0  0  0  0  0  0  0  0  0  0  0  0
   11.0531   -5.4478    0.0000 S    0  0  0  0  0  0  0  0  0  0  0  0
    9.8909   -6.1016    0.0000 C    0  0  0  0  0  0  0  0  0  0  0  0
    2.5786   -1.9370    0.0000 O    0  0  0  0  0  0  0  0  0  0  0  0
    8.6318   -8.2202    0.0000 O    0  0  0  0  0  0  0  0  0  0  0  0
    7.8086   -2.2760    0.0000 O    0  0  0  0  0  0  0  0  0  0  0  0
    0.0000   -8.4502    0.0000 N    0  0  0  0  0  0  0  0  0  0  0  0
    6.3800   -8.2202    0.0000 O    0  5  0  0  0  0  0  0  0  0  0  0
    7.8328    0.0000    0.0000 O    0  5  0  0  0  0  0  0  0  0  0  0
    0.3027   -1.7796    0.0000 O    0  0  0  0  0  0  0  0  0  0  0  0
   12.1063   -1.0654    0.0000 C    0  0  0  0  0  0  0  0  0  0  0  0
    1.4649   -1.1138    0.0000 C    0  0  0  0  0  0  0  0  0  0  0  0
    4.8062   -2.9782    0.0000 H    0  0  0  0  0  0  0  0  0  0  0  0
    6.3316   -3.0387    0.0000 H    0  0  0  0  0  0  0  0  0  0  0  0
    7.4938   -9.3824    0.0000 Na   0  3  0  0  0  0  0  0  0  0  0  0
    6.5253   -0.9564    0.0000 Na   0  3  0  0  0  0  0  0  0  0  0  0
  1  2  1  0  0  0  0
  1  4  1  0  0  0  0
  1  5  1  0  0  0  0
  2 26  2  0  0  0  0
  2  3  1  0  0  0  0
  3  4  1  0  0  0  0
  3  9  1  1  0  0  0
  3 38  1  6  0  0  0
  4 14  1  0  0  0  0
  4 39  1  6  0  0  0
  5 15  2  0  0  0  0
  5 22  1  0  0  0  0
  6  7  1  0  0  0  0
  6  8  1  0  0  0  0
  6 20  2  0  0  0  0
  7 13  1  0  0  0  0
  7 25  2  0  0  0  0
  8 17  2  0  0  0  0
  9 13  1  0  0  0  0
 10 11  2  0  0  0  0
 10 18  1  0  0  0  0
 11 27  1  0  0  0  0
 11 16  1  0  0  0  0
 12 16  1  0  0  0  0
 12 19  1  0  0  0  0
 12 18  2  0  0  0  0
 13 29  2  0  0  0  0
 14 23  1  0  0  0  0
 15 23  1  0  0  0  0
 15 28  1  0  0  0  0
 17 32  1  0  0  0  0
 17 21  1  0  0  0  0
 18 36  1  0  0  0  0
 19 24  1  0  0  0  0
 20 21  1  0  0  0  0
 22 30  2  0  0  0  0
 22 33  1  0  0  0  0
 24 31  2  0  0  0  0
 24 34  1  0  0  0  0
 25 35  1  0  0  0  0
 27 28  1  0  0  0  0
 35 37  1  0  0  0  0
M  END
> <ID>
11924

> <Formula>
C20H18N6Na2O7S4

> <FW>
628.6325 (582.6540+22.9892+22.9892)

> <DSSTox_CID>
26730

> <DSSTox_RID>
81860

> <DSSTox_GSID>
46730

> <DSSTox_FileID_Sort>
6541

> <TS_ChemName>
Cefodizime sodium

> <TS_ChemName_Synonyms>


> <TS_CASRN>
86329-79-5

> <CASRN_ChemName_Relationship>
primary

> <TS_Description>
single chemical compound

> <ChemNote>
stereochem; parent [69739-16-8]

> <STRUCTURE_Shown>
tested chemical

> <STRUCTURE_Formula>
C20H18N6Na2O7S4

> <STRUCTURE_MW>
628.6325

> <STRUCTURE_ChemType>
defined organic

> <STRUCTURE_DefinedOrganicForm>
salt

> <STRUCTURE_IUPAC>
disodium (6R,7R)-7-{[(2Z)-2-(2-amino-1,3-thiazol-4-yl)-2-(methoxyimino)acetyl]amino}-3-({[5-(carboxylatomethyl)-4-methyl-1,3-thiazol-2-yl]sulfanyl}methyl)-8-oxo-5-thia-1-azabicyclo[4.2.0]oct-2-ene-2-carboxylate

> <STRUCTURE_SMILES>
[Na+].[Na+].Nc1scc(n1)\C(=N\OC)C(=O)N[C@@H]4C(=O)N3C(=C(CSc2nc(C)c(CC([O-])=O)s2)CS[C@@H]34)C([O-])=O

> <STRUCTURE_SMILES_Desalt>
Nc1scc(n1)\C(=N\OC)C(=O)N[C@@H]4C(=O)N3C(=C(CSc2nc(C)c(CC(=O)O)s2)CS[C@@H]34)C(=O)O

> <Substance_modify_yyyymmdd>
20110804

$$$$
