86386-73-4
ChemmineR-0915142007XD

 22 24  0  0  0  0  0  0  0  0  1 V2000
    4.0564    0.0000    0.0000 N   0  0  0  0  0  0  0  0  0  0  0  0
    2.9389   -0.6511    0.0000 C   0  0  0  0  0  0  0  0  0  0  0  0
    3.2029   -1.9182    0.0000 N   0  0  0  0  0  0  0  0  0  0  0  0
    4.4964   -2.0502    0.0000 N   0  0  0  0  0  0  0  0  0  0  0  0
    5.0244   -0.8711    0.0000 C   0  0  0  0  0  0  0  0  0  0  0  0
    5.3411   -3.5109    0.0000 C   0  0  0  0  0  0  0  0  0  0  0  0
    4.4964   -4.9716    0.0000 C   0  0  0  0  0  0  0  0  0  0  0  0
    5.6227   -5.6227    0.0000 C   0  0  0  0  0  0  0  0  0  0  0  0
    6.7490   -4.9716    0.0000 N   0  0  0  0  0  0  0  0  0  0  0  0
    6.8810   -3.6869    0.0000 N   0  0  0  0  0  0  0  0  0  0  0  0
    8.1481   -3.4141    0.0000 C   0  0  0  0  0  0  0  0  0  0  0  0
    8.7992   -4.5404    0.0000 N   0  0  0  0  0  0  0  0  0  0  0  0
    7.9281   -5.4995    0.0000 C   0  0  0  0  0  0  0  0  0  0  0  0
    3.3701   -4.3292    0.0000 C   0  0  0  0  0  0  0  0  0  0  0  0
    2.2526   -4.9716    0.0000 C   0  0  0  0  0  0  0  0  0  0  0  0
    1.1263   -4.3292    0.0000 C   0  0  0  0  0  0  0  0  0  0  0  0
    1.1263   -3.0269    0.0000 C   0  0  0  0  0  0  0  0  0  0  0  0
    2.2526   -2.3758    0.0000 C   0  0  0  0  0  0  0  0  0  0  0  0
    3.3701   -3.0269    0.0000 C   0  0  0  0  0  0  0  0  0  0  0  0
    0.0000   -2.3758    0.0000 F   0  0  0  0  0  0  0  0  0  0  0  0
    2.2526   -6.2738    0.0000 F   0  0  0  0  0  0  0  0  0  0  0  0
    3.8453   -6.0979    0.0000 O   0  0  0  0  0  0  0  0  0  0  0  0
  1  2  1  0  0  0  0
  1  5  2  0  0  0  0
  2  3  2  0  0  0  0
  3  4  1  0  0  0  0
  4  5  1  0  0  0  0
  4  6  1  0  0  0  0
  6  7  1  0  0  0  0
  7  8  1  0  0  0  0
  7 14  1  0  0  0  0
  7 22  1  0  0  0  0
  8  9  1  0  0  0  0
  9 10  1  0  0  0  0
  9 13  1  0  0  0  0
 10 11  2  0  0  0  0
 11 12  1  0  0  0  0
 12 13  2  0  0  0  0
 14 15  2  0  0  0  0
 14 19  1  0  0  0  0
 15 16  1  0  0  0  0
 15 21  1  0  0  0  0
 16 17  2  0  0  0  0
 17 18  1  0  0  0  0
 17 20  1  0  0  0  0
 18 19  2  0  0  0  0
M  END
> <ID>
602

> <Formula>
C13H12F2N6O

> <FW>
306.2708

> <DSSTox_CID>
627

> <DSSTox_RID>
75701

> <DSSTox_GSID>
20627

> <DSSTox_FileID_Sort>
385

> <TS_ChemName>
Fluconazole

> <TS_ChemName_Synonyms>
Fluconazole (FLC)

> <TS_CASRN>
86386-73-4

> <CASRN_ChemName_Relationship>
primary

> <TS_Description>
single chemical compound

> <ChemNote>


> <STRUCTURE_Shown>
tested chemical

> <STRUCTURE_Formula>
C13H12F2N6O

> <STRUCTURE_MW>
306.2708

> <STRUCTURE_ChemType>
defined organic

> <STRUCTURE_DefinedOrganicForm>
parent

> <STRUCTURE_IUPAC>
2-(2,4-difluorophenyl)-1,3-di(1H-1,2,4-triazol-1-yl)propan-2-ol

> <STRUCTURE_SMILES>
OC(Cn1cncn1)(Cn2cncn2)c3ccc(F)cc3F

> <STRUCTURE_SMILES_Desalt>
OC(Cn1cncn1)(Cn2cncn2)c3ccc(F)cc3F

> <Substance_modify_yyyymmdd>
20080429

$$$$
