86393-33-1
ChemmineR-0915142007XD

 19 21  0  0  0  0  0  0  0  0  1 V2000
    1.1526    0.0000    0.0000 O    0  0  0  0  0  0  0  0  0  0  0  0
    1.1526   -1.3300    0.0000 C    0  0  0  0  0  0  0  0  0  0  0  0
    0.0000   -1.9990    0.0000 O    0  0  0  0  0  0  0  0  0  0  0  0
    2.3053   -1.9990    0.0000 C    0  0  0  0  0  0  0  0  0  0  0  0
    2.3053   -3.3290    0.0000 C    0  0  0  0  0  0  0  0  0  0  0  0
    3.4579   -3.9899    0.0000 N    0  0  0  0  0  0  0  0  0  0  0  0
    3.4579   -5.3199    0.0000 C    0  0  0  0  0  0  0  0  0  0  0  0
    2.7889   -6.4726    0.0000 C    0  0  0  0  0  0  0  0  0  0  0  0
    4.1189   -6.4726    0.0000 C    0  0  0  0  0  0  0  0  0  0  0  0
    4.6025   -3.3290    0.0000 C    0  0  0  0  0  0  0  0  0  0  0  0
    4.6025   -1.9990    0.0000 C    0  0  0  0  0  0  0  0  0  0  0  0
    5.7552   -1.3300    0.0000 C    0  0  0  0  0  0  0  0  0  0  0  0
    6.9078   -1.9990    0.0000 C    0  0  0  0  0  0  0  0  0  0  0  0
    8.0605   -1.3300    0.0000 F    0  0  0  0  0  0  0  0  0  0  0  0
    6.9078   -3.3290    0.0000 C    0  0  0  0  0  0  0  0  0  0  0  0
    5.7552   -3.9899    0.0000 C    0  0  0  0  0  0  0  0  0  0  0  0
    8.0605   -3.9899    0.0000 Cl   0  0  0  0  0  0  0  0  0  0  0  0
    3.4579   -1.3300    0.0000 C    0  0  0  0  0  0  0  0  0  0  0  0
    3.4579    0.0000    0.0000 O    0  0  0  0  0  0  0  0  0  0  0  0
  1  2  1  0  0  0  0
  2  3  2  0  0  0  0
  2  4  1  0  0  0  0
  4  5  2  0  0  0  0
  4 18  1  0  0  0  0
  5  6  1  0  0  0  0
  6  7  1  0  0  0  0
  6 10  1  0  0  0  0
  7  8  1  0  0  0  0
  7  9  1  0  0  0  0
  8  9  1  0  0  0  0
 10 11  2  0  0  0  0
 10 16  1  0  0  0  0
 11 12  1  0  0  0  0
 11 18  1  0  0  0  0
 12 13  2  0  0  0  0
 13 14  1  0  0  0  0
 13 15  1  0  0  0  0
 15 16  2  0  0  0  0
 15 17  1  0  0  0  0
 18 19  2  0  0  0  0
M  END
> <ID>
16244

> <Formula>
C13H9ClFNO3

> <FW>
281.6669

> <DSSTox_CID>
31635

> <DSSTox_RID>
97519

> <DSSTox_GSID>
57846

> <DSSTox_FileID_Sort>
8586

> <TS_ChemName>
Fluoroquinolonic acid

> <TS_ChemName_Synonyms>
7-Chloro-1-cyclopropyl-6-fluoro-4-oxo-1,4-dihydroquinoline-3-carboxylic acid

> <TS_CASRN>
86393-33-1

> <CASRN_ChemName_Relationship>
primary

> <TS_Description>
single chemical compound

> <ChemNote>


> <STRUCTURE_Shown>
tested chemical

> <STRUCTURE_Formula>
C13H9ClFNO3

> <STRUCTURE_MW>
281.6669

> <STRUCTURE_ChemType>
defined organic

> <STRUCTURE_DefinedOrganicForm>
parent

> <STRUCTURE_IUPAC>
7-chloro-1-cyclopropyl-6-fluoro-4-oxo-1,4-dihydroquinoline-3-carboxylic acid

> <STRUCTURE_SMILES>
O=C(O)C2=CN(c1cc(Cl)c(F)cc1C2=O)C3CC3

> <STRUCTURE_SMILES_Desalt>
O=C(O)C2=CN(c1cc(Cl)c(F)cc1C2=O)C3CC3

> <Substance_modify_yyyymmdd>
20131121

$$$$
