86408-72-2
ChemmineR-0915142007XD

 28 29  0  0  1  0  0  0  0  0  2 V2000
    0.0000   -7.2215    0.0000 Na   0  3  0  0  0  0  0  0  0  0  0  0
    7.0926   -3.3367    0.0000 C    0  0  0  0  0  0  0  0  0  0  0  0
    7.0926   -4.6908    0.0000 C    0  0  0  0  0  0  0  0  0  0  0  0
    8.2532   -5.3678    0.0000 C    0  0  0  0  0  0  0  0  0  0  0  0
    9.4138   -4.6908    0.0000 C    0  0  0  0  0  0  0  0  0  0  0  0
    9.4138   -3.3367    0.0000 C    0  0  0  0  0  0  0  0  0  0  0  0
    8.2532   -2.6758    0.0000 C    0  0  0  0  0  0  0  0  0  0  0  0
    3.6108   -5.3678    0.0000 C    0  0  0  0  0  0  0  0  0  0  0  0
    3.6108   -6.7218    0.0000 C    0  0  0  0  0  0  0  0  0  0  0  0
    4.7714   -7.3827    0.0000 C    0  0  0  0  0  0  0  0  0  0  0  0
    4.7714   -4.6908    0.0000 C    0  0  0  0  0  0  0  0  0  0  0  0
    5.9481   -5.3678    0.0000 C    0  0  0  0  0  0  0  0  0  0  0  0
    5.9481   -6.7218    0.0000 C    0  0  0  0  0  0  0  0  0  0  0  0
    7.0926   -7.3827    0.0000 C    0  0  0  0  0  0  0  0  0  0  0  0
    8.2532   -6.7218    0.0000 C    0  0  0  0  0  0  0  0  0  0  0  0
    8.2532   -1.3379    0.0000 S    0  0  0  0  0  0  0  0  0  0  0  0
    6.9152   -1.3379    0.0000 O    0  0  0  0  0  0  0  0  0  0  0  0
    9.5911   -1.3379    0.0000 O    0  0  0  0  0  0  0  0  0  0  0  0
    8.2532    0.0000    0.0000 O    0  0  0  0  0  0  0  0  0  0  0  0
   10.5744   -2.6758    0.0000 C    0  0  0  0  0  0  0  0  0  0  0  0
   10.5744   -1.3379    0.0000 C    0  0  0  0  0  0  0  0  0  0  0  0
   11.7350   -3.3367    0.0000 C    0  0  0  0  0  0  0  0  0  0  0  0
    5.1905   -8.5756    0.0000 C    0  0  0  0  0  0  0  0  0  0  0  0
    4.0943   -8.5272    0.0000 C    0  0  0  0  0  0  0  0  0  0  0  0
    6.4639   -7.8179    0.0000 H    0  0  0  0  0  0  0  0  0  0  0  0
    5.9481   -4.0299    0.0000 C    0  0  0  0  0  0  0  0  0  0  0  0
    2.7725   -8.5272    0.0000 O    0  5  0  0  0  0  0  0  0  0  0  0
    4.1427   -9.7684    0.0000 O    0  0  0  0  0  0  0  0  0  0  0  0
  2  3  2  0  0  0  0
  2  7  1  0  0  0  0
  3 12  1  0  0  0  0
  3  4  1  0  0  0  0
  4 15  1  0  0  0  0
  4  5  2  0  0  0  0
  5  6  1  0  0  0  0
  6 20  1  0  0  0  0
  6  7  2  0  0  0  0
  7 16  1  0  0  0  0
  8 11  1  0  0  0  0
  8  9  1  0  0  0  0
  9 10  1  0  0  0  0
 10 13  1  0  0  0  0
 10 23  1  1  0  0  0
 10 24  1  6  0  0  0
 11 12  1  0  0  0  0
 12 13  1  0  0  0  0
 12 26  1  1  0  0  0
 13 14  1  0  0  0  0
 13 25  1  6  0  0  0
 14 15  1  0  0  0  0
 16 17  2  0  0  0  0
 16 18  1  0  0  0  0
 16 19  2  0  0  0  0
 20 21  1  0  0  0  0
 20 22  1  0  0  0  0
 24 27  1  0  0  0  0
 24 28  2  0  0  0  0
M  END
> <ID>
16245

> <Formula>
C20H27NaO5S

> <FW>
402.4801 (22.9892+379.4909)

> <DSSTox_CID>
31636

> <DSSTox_RID>
97520

> <DSSTox_GSID>
57847

> <DSSTox_FileID_Sort>
8587

> <TS_ChemName>
Ecabet sodium

> <TS_ChemName_Synonyms>


> <TS_CASRN>
86408-72-2

> <CASRN_ChemName_Relationship>
primary

> <TS_Description>
single chemical compound

> <ChemNote>


> <STRUCTURE_Shown>
tested chemical

> <STRUCTURE_Formula>
C20H27NaO5S

> <STRUCTURE_MW>
402.4801

> <STRUCTURE_ChemType>
defined organic

> <STRUCTURE_DefinedOrganicForm>
salt

> <STRUCTURE_IUPAC>
sodium 12-sulfoabieta-8(14),9(11),12-trien-18-oate

> <STRUCTURE_SMILES>
[Na+].CC(C)c2cc3CC[C@@H]1[C@](C)(CCC[C@@]1(C)C(=O)O)c3cc2S(=O)(=O)O

> <STRUCTURE_SMILES_Desalt>
CC(C)c2cc3CC[C@@H]1[C@](C)(CCC[C@@]1(C)C(=O)O)c3cc2S(=O)(=O)O

> <Substance_modify_yyyymmdd>
20131121

$$$$
