864283-48-7
ChemmineR-0915142007XD

 22 22  0  0  0  0  0  0  0  0  1 V2000
    0.0000   -5.7551    0.0000 N   0  0  0  0  0  0  0  0  0  0  0  0
    0.6705   -4.6003    0.0000 C   0  0  0  0  0  0  0  0  0  0  0  0
    0.0000   -3.4456    0.0000 O   0  0  0  0  0  0  0  0  0  0  0  0
    2.0022   -4.6003    0.0000 C   0  0  0  0  0  0  0  0  0  0  0  0
    2.6634   -3.4456    0.0000 N   0  0  0  0  0  0  0  0  0  0  0  0
    2.0022   -2.3095    0.0000 C   0  0  0  0  0  0  0  0  0  0  0  0
    2.6634   -1.1547    0.0000 C   0  0  0  0  0  0  0  0  0  0  0  0
    1.5086   -0.4842    0.0000 F   0  0  0  0  0  0  0  0  0  0  0  0
    3.8181   -1.8159    0.0000 F   0  0  0  0  0  0  0  0  0  0  0  0
    3.3339    0.0000    0.0000 F   0  0  0  0  0  0  0  0  0  0  0  0
    3.9950   -3.4456    0.0000 C   0  0  0  0  0  0  0  0  0  0  0  0
    4.6655   -4.6003    0.0000 C   0  0  0  0  0  0  0  0  0  0  0  0
    5.9972   -4.6003    0.0000 C   0  0  0  0  0  0  0  0  0  0  0  0
    6.6491   -3.4456    0.0000 C   0  0  0  0  0  0  0  0  0  0  0  0
    7.9808   -3.4456    0.0000 C   0  0  0  0  0  0  0  0  0  0  0  0
    9.3124   -3.4456    0.0000 N   0  0  0  0  0  0  0  0  0  0  0  0
    5.9972   -2.3095    0.0000 C   0  0  0  0  0  0  0  0  0  0  0  0
    4.6655   -2.3095    0.0000 C   0  0  0  0  0  0  0  0  0  0  0  0
    6.6491   -1.1547    0.0000 C   0  0  0  0  0  0  0  0  0  0  0  0
    5.4943   -0.4842    0.0000 F   0  0  0  0  0  0  0  0  0  0  0  0
    7.8038   -1.8159    0.0000 F   0  0  0  0  0  0  0  0  0  0  0  0
    7.3289    0.0000    0.0000 F   0  0  0  0  0  0  0  0  0  0  0  0
  1  2  1  0  0  0  0
  2  3  2  0  0  0  0
  2  4  1  0  0  0  0
  4  5  1  0  0  0  0
  5  6  1  0  0  0  0
  5 11  1  0  0  0  0
  6  7  1  0  0  0  0
  7  8  1  0  0  0  0
  7  9  1  0  0  0  0
  7 10  1  0  0  0  0
 11 12  1  0  0  0  0
 11 18  2  0  0  0  0
 12 13  2  0  0  0  0
 13 14  1  0  0  0  0
 14 15  1  0  0  0  0
 14 17  2  0  0  0  0
 15 16  3  0  0  0  0
 17 18  1  0  0  0  0
 17 19  1  0  0  0  0
 19 20  1  0  0  0  0
 19 21  1  0  0  0  0
 19 22  1  0  0  0  0
M  END
> <ID>
12454

> <Formula>
C12H9F6N3O

> <FW>
325.2098

> <DSSTox_CID>
27312

> <DSSTox_RID>
82262

> <DSSTox_GSID>
47312

> <DSSTox_FileID_Sort>
6943

> <TS_ChemName>
GSK232420A

> <TS_ChemName_Synonyms>


> <TS_CASRN>
864283-48-7

> <CASRN_ChemName_Relationship>
primary

> <TS_Description>
single chemical compound

> <ChemNote>


> <STRUCTURE_Shown>
tested chemical

> <STRUCTURE_Formula>
C12H9F6N3O

> <STRUCTURE_MW>
325.2098

> <STRUCTURE_ChemType>
defined organic

> <STRUCTURE_DefinedOrganicForm>
parent

> <STRUCTURE_IUPAC>
N~2~-[4-cyano-3-(trifluoromethyl)phenyl]-N~2~-(2,2,2-trifluoroethyl)glycinamide

> <STRUCTURE_SMILES>
NC(=O)CN(CC(F)(F)F)c1cc(c(cc1)C#N)C(F)(F)F

> <STRUCTURE_SMILES_Desalt>
NC(=O)CN(CC(F)(F)F)c1cc(c(cc1)C#N)C(F)(F)F

> <Substance_modify_yyyymmdd>
20130910

$$$$
