86479-06-3
ChemmineR-0915142007XD

 29 30  0  0  0  0  0  0  0  0  1 V2000
   11.5330   -5.9915    0.0000 Cl   0  0  0  0  0  0  0  0  0  0  0  0
   10.3759   -5.3229    0.0000 C    0  0  0  0  0  0  0  0  0  0  0  0
    9.2187   -5.9915    0.0000 C    0  0  0  0  0  0  0  0  0  0  0  0
    8.0615   -5.3229    0.0000 C    0  0  0  0  0  0  0  0  0  0  0  0
    8.0615   -3.9986    0.0000 C    0  0  0  0  0  0  0  0  0  0  0  0
    9.2187   -3.3300    0.0000 C    0  0  0  0  0  0  0  0  0  0  0  0
   10.3759   -3.9986    0.0000 C    0  0  0  0  0  0  0  0  0  0  0  0
   11.5330   -3.3300    0.0000 O    0  0  0  0  0  0  0  0  0  0  0  0
   11.5330   -2.0057    0.0000 C    0  0  0  0  0  0  0  0  0  0  0  0
   12.8573   -2.0057    0.0000 F    0  0  0  0  0  0  0  0  0  0  0  0
   10.1959   -2.0057    0.0000 F    0  0  0  0  0  0  0  0  0  0  0  0
   11.5330   -0.6686    0.0000 C    0  0  0  0  0  0  0  0  0  0  0  0
   12.6773    0.0000    0.0000 F    0  0  0  0  0  0  0  0  0  0  0  0
   10.3759    0.0000    0.0000 F    0  0  0  0  0  0  0  0  0  0  0  0
    9.2187   -2.0057    0.0000 Cl   0  0  0  0  0  0  0  0  0  0  0  0
    6.9044   -5.9915    0.0000 N    0  0  0  0  0  0  0  0  0  0  0  0
    5.7601   -5.3229    0.0000 C    0  0  0  0  0  0  0  0  0  0  0  0
    5.7601   -3.9986    0.0000 O    0  0  0  0  0  0  0  0  0  0  0  0
    4.6029   -5.9787    0.0000 N    0  0  0  0  0  0  0  0  0  0  0  0
    3.4458   -5.3229    0.0000 C    0  0  0  0  0  0  0  0  0  0  0  0
    3.4458   -3.9986    0.0000 O    0  0  0  0  0  0  0  0  0  0  0  0
    2.2886   -5.9787    0.0000 C    0  0  0  0  0  0  0  0  0  0  0  0
    2.2886   -7.3158    0.0000 C    0  0  0  0  0  0  0  0  0  0  0  0
    1.1572   -7.9844    0.0000 C    0  0  0  0  0  0  0  0  0  0  0  0
    0.0000   -7.3158    0.0000 C    0  0  0  0  0  0  0  0  0  0  0  0
    0.0000   -5.9787    0.0000 C    0  0  0  0  0  0  0  0  0  0  0  0
    1.1572   -5.3229    0.0000 C    0  0  0  0  0  0  0  0  0  0  0  0
    1.1572   -3.9986    0.0000 F    0  0  0  0  0  0  0  0  0  0  0  0
    3.4458   -7.9844    0.0000 F    0  0  0  0  0  0  0  0  0  0  0  0
  1  2  1  0  0  0  0
  2  3  1  0  0  0  0
  2  7  2  0  0  0  0
  3  4  2  0  0  0  0
  4  5  1  0  0  0  0
  4 16  1  0  0  0  0
  5  6  2  0  0  0  0
  6  7  1  0  0  0  0
  6 15  1  0  0  0  0
  7  8  1  0  0  0  0
  8  9  1  0  0  0  0
  9 10  1  0  0  0  0
  9 11  1  0  0  0  0
  9 12  1  0  0  0  0
 12 13  1  0  0  0  0
 12 14  1  0  0  0  0
 16 17  1  0  0  0  0
 17 18  2  0  0  0  0
 17 19  1  0  0  0  0
 19 20  1  0  0  0  0
 20 21  2  0  0  0  0
 20 22  1  0  0  0  0
 22 23  1  0  0  0  0
 22 27  2  0  0  0  0
 23 24  2  0  0  0  0
 23 29  1  0  0  0  0
 24 25  1  0  0  0  0
 25 26  2  0  0  0  0
 26 27  1  0  0  0  0
 27 28  1  0  0  0  0
M  END
> <ID>
6545

> <Formula>
C16H8Cl2F6N2O3

> <FW>
461.1427

> <DSSTox_CID>
12620

> <DSSTox_RID>
79008

> <DSSTox_GSID>
32620

> <DSSTox_FileID_Sort>
3690

> <TS_ChemName>
Hexaflumuron

> <TS_ChemName_Synonyms>


> <TS_CASRN>
86479-06-3

> <CASRN_ChemName_Relationship>
primary

> <TS_Description>
single chemical compound

> <ChemNote>


> <STRUCTURE_Shown>
tested chemical

> <STRUCTURE_Formula>
C16H8Cl2F6N2O3

> <STRUCTURE_MW>
461.1427

> <STRUCTURE_ChemType>
defined organic

> <STRUCTURE_DefinedOrganicForm>
parent

> <STRUCTURE_IUPAC>
N-{[3,5-dichloro-4-(1,1,2,2-tetrafluoroethoxy)phenyl]carbamoyl}-2,6-difluorobenzamide

> <STRUCTURE_SMILES>
Clc1cc(cc(Cl)c1OC(F)(F)C(F)F)NC(=O)NC(=O)c2c(F)cccc2F

> <STRUCTURE_SMILES_Desalt>
Clc1cc(cc(Cl)c1OC(F)(F)C(F)F)NC(=O)NC(=O)c2c(F)cccc2F

> <Substance_modify_yyyymmdd>
20080429

$$$$
