86487-64-1
ChemmineR-0915142007XD

 28 31  0  0  0  0  0  0  0  0  1 V2000
    1.1599   -2.6535    0.0000 C   0  0  0  0  0  0  0  0  0  0  0  0
    1.1599   -3.9882    0.0000 C   0  0  0  0  0  0  0  0  0  0  0  0
    2.3040   -4.6556    0.0000 C   0  0  0  0  0  0  0  0  0  0  0  0
    3.4639   -3.9882    0.0000 C   0  0  0  0  0  0  0  0  0  0  0  0
    3.4639   -2.6535    0.0000 C   0  0  0  0  0  0  0  0  0  0  0  0
    2.3040   -2.0021    0.0000 C   0  0  0  0  0  0  0  0  0  0  0  0
    0.0000   -2.0021    0.0000 F   0  0  0  0  0  0  0  0  0  0  0  0
    5.7679   -3.9882    0.0000 C   0  0  0  0  0  0  0  0  0  0  0  0
    6.9278   -4.6556    0.0000 C   0  0  0  0  0  0  0  0  0  0  0  0
    8.0877   -3.9882    0.0000 C   0  0  0  0  0  0  0  0  0  0  0  0
    8.0877   -2.6535    0.0000 N   0  0  0  0  0  0  0  0  0  0  0  0
    6.9278   -2.0021    0.0000 C   0  0  0  0  0  0  0  0  0  0  0  0
    5.7679   -2.6535    0.0000 C   0  0  0  0  0  0  0  0  0  0  0  0
    4.6079   -4.6556    0.0000 C   0  0  0  0  0  0  0  0  0  0  0  0
    4.6079   -5.9903    0.0000 O   0  0  0  0  0  0  0  0  0  0  0  0
    9.2318   -2.0021    0.0000 C   0  0  0  0  0  0  0  0  0  0  0  0
   10.3758   -2.6535    0.0000 C   0  0  0  0  0  0  0  0  0  0  0  0
   11.5357   -2.0021    0.0000 C   0  0  0  0  0  0  0  0  0  0  0  0
   11.5357   -0.6674    0.0000 C   0  0  0  0  0  0  0  0  0  0  0  0
   12.6798    0.0000    0.0000 N   0  0  0  0  0  0  0  0  0  0  0  0
   12.6798   -2.6535    0.0000 C   0  0  0  0  0  0  0  0  0  0  0  0
   12.6798   -3.9882    0.0000 O   0  0  0  0  0  0  0  0  0  0  0  0
   10.3758    0.0000    0.0000 C   0  0  0  0  0  0  0  0  0  0  0  0
   13.8397   -2.0021    0.0000 N   0  0  0  0  0  0  0  0  0  0  0  0
   13.8397   -0.6674    0.0000 C   0  0  0  0  0  0  0  0  0  0  0  0
   15.1109   -0.2701    0.0000 S   0  0  0  0  0  0  0  0  0  0  0  0
   15.8894   -1.3188    0.0000 C   0  0  0  0  0  0  0  0  0  0  0  0
   15.1109   -2.3993    0.0000 C   0  0  0  0  0  0  0  0  0  0  0  0
  1  7  1  0  0  0  0
  1  2  1  0  0  0  0
  1  6  2  0  0  0  0
  2  3  2  0  0  0  0
  3  4  1  0  0  0  0
  4  5  2  0  0  0  0
  4 14  1  0  0  0  0
  5  6  1  0  0  0  0
  8 14  1  0  0  0  0
  8  9  1  0  0  0  0
  8 13  1  0  0  0  0
  9 10  1  0  0  0  0
 10 11  1  0  0  0  0
 11 16  1  0  0  0  0
 11 12  1  0  0  0  0
 12 13  1  0  0  0  0
 14 15  2  0  0  0  0
 16 17  1  0  0  0  0
 17 18  1  0  0  0  0
 18 19  2  0  0  0  0
 18 21  1  0  0  0  0
 19 20  1  0  0  0  0
 19 23  1  0  0  0  0
 20 25  2  0  0  0  0
 21 24  1  0  0  0  0
 21 22  2  0  0  0  0
 24 25  1  0  0  0  0
 24 28  1  0  0  0  0
 25 26  1  0  0  0  0
 26 27  1  0  0  0  0
 27 28  1  0  0  0  0
M  END
> <ID>
16246

> <Formula>
C21H24FN3O2S

> <FW>
401.4976

> <DSSTox_CID>
31637

> <DSSTox_RID>
97521

> <DSSTox_GSID>
57848

> <DSSTox_FileID_Sort>
8588

> <TS_ChemName>
Setoperone

> <TS_ChemName_Synonyms>


> <TS_CASRN>
86487-64-1

> <CASRN_ChemName_Relationship>
primary

> <TS_Description>
single chemical compound

> <ChemNote>


> <STRUCTURE_Shown>
tested chemical

> <STRUCTURE_Formula>
C21H24FN3O2S

> <STRUCTURE_MW>
401.4976

> <STRUCTURE_ChemType>
defined organic

> <STRUCTURE_DefinedOrganicForm>
parent

> <STRUCTURE_IUPAC>
6-{2-[4-(4-fluorobenzoyl)piperidin-1-yl]ethyl}-7-methyl-2,3-dihydro-5H-[1,3]thiazolo[3,2-a]pyrimidin-5-one

> <STRUCTURE_SMILES>
Fc1ccc(cc1)C(=O)C2CCN(CC2)CCC4=C(C)N=C3SCCN3C4=O

> <STRUCTURE_SMILES_Desalt>
Fc1ccc(cc1)C(=O)C2CCN(CC2)CCC4=C(C)N=C3SCCN3C4=O

> <Substance_modify_yyyymmdd>
20131018

$$$$
