86508-42-1
ChemmineR-0915142007XD

 32 31  0  0  0  0  0  0  0  0  1 V2000
    1.1970   -1.2097    0.0000 C   0  0  0  0  0  0  0  0  0  0  0  0
    2.4067   -1.9101    0.0000 C   0  0  0  0  0  0  0  0  0  0  0  0
    3.6037   -1.2097    0.0000 C   0  0  0  0  0  0  0  0  0  0  0  0
    4.8007   -1.9101    0.0000 C   0  0  0  0  0  0  0  0  0  0  0  0
    6.0104   -1.2097    0.0000 C   0  0  0  0  0  0  0  0  0  0  0  0
    0.0000   -1.9101    0.0000 F   0  0  0  0  0  0  0  0  0  0  0  0
    7.2074   -1.9101    0.0000 C   0  0  0  0  0  0  0  0  0  0  0  0
    0.5094    0.0000    0.0000 F   0  0  0  0  0  0  0  0  0  0  0  0
    1.9101    0.0000    0.0000 F   0  0  0  0  0  0  0  0  0  0  0  0
    1.6936   -3.1071    0.0000 F   0  0  0  0  0  0  0  0  0  0  0  0
    3.0944   -3.1071    0.0000 F   0  0  0  0  0  0  0  0  0  0  0  0
    2.9288    0.0000    0.0000 F   0  0  0  0  0  0  0  0  0  0  0  0
    4.3041    0.0000    0.0000 F   0  0  0  0  0  0  0  0  0  0  0  0
    4.1131   -3.1071    0.0000 F   0  0  0  0  0  0  0  0  0  0  0  0
    5.5138   -3.1071    0.0000 F   0  0  0  0  0  0  0  0  0  0  0  0
    5.3355    0.0000    0.0000 F   0  0  0  0  0  0  0  0  0  0  0  0
    6.6981    0.0000    0.0000 F   0  0  0  0  0  0  0  0  0  0  0  0
    8.4172   -1.2097    0.0000 C   0  0  0  0  0  0  0  0  0  0  0  0
    6.5071   -3.1071    0.0000 F   0  0  0  0  0  0  0  0  0  0  0  0
    7.8951   -3.1071    0.0000 F   0  0  0  0  0  0  0  0  0  0  0  0
    9.4232   -1.7828    0.0000 C   0  0  0  0  0  0  0  0  0  0  0  0
   10.4037   -1.1970    0.0000 C   0  0  0  0  0  0  0  0  0  0  0  0
   11.4097   -1.7700    0.0000 C   0  0  0  0  0  0  0  0  0  0  0  0
    7.7932   -0.2292    0.0000 F   0  0  0  0  0  0  0  0  0  0  0  0
    9.0029   -0.1783    0.0000 F   0  0  0  0  0  0  0  0  0  0  0  0
    8.9647   -3.0944    0.0000 F   0  0  0  0  0  0  0  0  0  0  0  0
   10.0089   -2.9670    0.0000 F   0  0  0  0  0  0  0  0  0  0  0  0
    9.7415   -0.1401    0.0000 F   0  0  0  0  0  0  0  0  0  0  0  0
   11.0531   -0.2674    0.0000 F   0  0  0  0  0  0  0  0  0  0  0  0
   11.7407   -2.8906    0.0000 F   0  0  0  0  0  0  0  0  0  0  0  0
   12.7340   -1.5281    0.0000 F   0  0  0  0  0  0  0  0  0  0  0  0
   12.2756   -0.6622    0.0000 F   0  0  0  0  0  0  0  0  0  0  0  0
  1  2  1  0  0  0  0
  1  6  1  0  0  0  0
  1  8  1  0  0  0  0
  1  9  1  0  0  0  0
  2  3  1  0  0  0  0
  2 10  1  0  0  0  0
  2 11  1  0  0  0  0
  3  4  1  0  0  0  0
  3 12  1  0  0  0  0
  3 13  1  0  0  0  0
  4  5  1  0  0  0  0
  4 14  1  0  0  0  0
  4 15  1  0  0  0  0
  5  7  1  0  0  0  0
  5 16  1  0  0  0  0
  5 17  1  0  0  0  0
  7 18  1  0  0  0  0
  7 19  1  0  0  0  0
  7 20  1  0  0  0  0
 18 21  1  0  0  0  0
 18 24  1  0  0  0  0
 18 25  1  0  0  0  0
 21 22  1  0  0  0  0
 21 26  1  0  0  0  0
 21 27  1  0  0  0  0
 22 23  1  0  0  0  0
 22 28  1  0  0  0  0
 22 29  1  0  0  0  0
 23 30  1  0  0  0  0
 23 31  1  0  0  0  0
 23 32  1  0  0  0  0
M  END
> <ID>
5778

> <Formula>
C10F22

> <FW>
538.0719

> <DSSTox_CID>
9059

> <DSSTox_RID>
78664

> <DSSTox_GSID>
29059

> <DSSTox_FileID_Sort>
3346

> <TS_ChemName>
Perfluoro compounds, C5-18

> <TS_ChemName_Synonyms>


> <TS_CASRN>
86508-42-1

> <CASRN_ChemName_Relationship>
primary

> <TS_Description>
mixture or formulation

> <ChemNote>
mixture of perfluorodated alkanes; structure shown C10

> <STRUCTURE_Shown>
representative component

> <STRUCTURE_Formula>
C10F22

> <STRUCTURE_MW>
538.0719

> <STRUCTURE_ChemType>
defined organic

> <STRUCTURE_DefinedOrganicForm>
parent

> <STRUCTURE_IUPAC>
docosafluorodecane

> <STRUCTURE_SMILES>
FC(F)(C(F)(F)C(F)(F)F)C(F)(F)C(F)(F)C(F)(F)C(F)(F)C(F)(F)C(F)(F)C(F)(F)F

> <STRUCTURE_SMILES_Desalt>
FC(F)(C(F)(F)C(F)(F)F)C(F)(F)C(F)(F)C(F)(F)C(F)(F)C(F)(F)C(F)(F)C(F)(F)F

> <Substance_modify_yyyymmdd>
20080429

$$$$
