86541-74-4
ChemmineR-0915142007XD

 32 33  0  0  1  0  0  0  0  0  1 V2000
   10.6036   -5.5537    0.0000 C    0  0  0  0  0  0  0  0  0  0  0  0
    9.4542   -4.8821    0.0000 C    0  0  0  0  0  0  0  0  0  0  0  0
    8.3047   -5.5537    0.0000 O    0  0  0  0  0  0  0  0  0  0  0  0
    7.1423   -4.8821    0.0000 C    0  0  0  0  0  0  0  0  0  0  0  0
    6.0057   -5.5537    0.0000 O    0  0  0  0  0  0  0  0  0  0  0  0
    7.1423   -3.5518    0.0000 C    0  0  0  0  0  0  0  0  0  0  0  0
    8.3047   -2.8931    0.0000 C    0  0  0  0  0  0  0  0  0  0  0  0
    9.4542   -3.5518    0.0000 C    0  0  0  0  0  0  0  0  0  0  0  0
   10.6036   -2.8931    0.0000 C    0  0  0  0  0  0  0  0  0  0  0  0
   10.6036   -1.5628    0.0000 C    0  0  0  0  0  0  0  0  0  0  0  0
   11.7660   -0.8912    0.0000 C    0  0  0  0  0  0  0  0  0  0  0  0
   12.9155   -1.5628    0.0000 C    0  0  0  0  0  0  0  0  0  0  0  0
   12.9155   -2.8931    0.0000 C    0  0  0  0  0  0  0  0  0  0  0  0
   11.7660   -3.5518    0.0000 C    0  0  0  0  0  0  0  0  0  0  0  0
    6.0057   -2.8931    0.0000 N    0  0  0  0  0  0  0  0  0  0  0  0
    4.8562   -3.5518    0.0000 C    0  0  0  0  0  0  0  0  0  0  0  0
    4.9337   -4.8692    0.0000 C    0  0  0  0  0  0  0  0  0  0  0  0
    3.9909   -5.8120    0.0000 C    0  0  0  0  0  0  0  0  0  0  0  0
    2.6606   -5.5924    0.0000 C    0  0  0  0  0  0  0  0  0  0  0  0
    1.9890   -6.7419    0.0000 C    0  0  0  0  0  0  0  0  0  0  0  0
    0.6587   -6.7419    0.0000 C    0  0  0  0  0  0  0  0  0  0  0  0
    0.0000   -5.5924    0.0000 C    0  0  0  0  0  0  0  0  0  0  0  0
    0.6587   -4.4559    0.0000 C    0  0  0  0  0  0  0  0  0  0  0  0
    1.9890   -4.4559    0.0000 C    0  0  0  0  0  0  0  0  0  0  0  0
    2.5056   -3.1901    0.0000 N    0  0  0  0  0  0  0  0  0  0  0  0
    1.5757   -2.2602    0.0000 C    0  0  0  0  0  0  0  0  0  0  0  0
    1.9244   -0.9428    0.0000 C    0  0  0  0  0  0  0  0  0  0  0  0
    0.9816    0.0000    0.0000 O    0  0  0  0  0  0  0  0  0  0  0  0
    3.2030   -0.5941    0.0000 O    0  0  0  0  0  0  0  0  0  0  0  0
    3.7455   -2.8027    0.0000 C    0  0  0  0  0  0  0  0  0  0  0  0
    3.9521   -1.4982    0.0000 O    0  0  0  0  0  0  0  0  0  0  0  0
    6.8711   -0.8137    0.0000 Cl   0  0  0  0  0  0  0  0  0  0  0  0
  1  2  1  0  0  0  0
  2  3  1  0  0  0  0
  3  4  1  0  0  0  0
  4  5  2  0  0  0  0
  4  6  1  0  0  0  0
  6  7  1  0  0  0  0
  6 15  1  1  0  0  0
  7  8  1  0  0  0  0
  8  9  1  0  0  0  0
  9 10  2  0  0  0  0
  9 14  1  0  0  0  0
 10 11  1  0  0  0  0
 11 12  2  0  0  0  0
 12 13  1  0  0  0  0
 13 14  2  0  0  0  0
 16 15  1  1  0  0  0
 16 17  1  0  0  0  0
 16 30  1  0  0  0  0
 17 18  1  0  0  0  0
 18 19  1  0  0  0  0
 19 20  2  0  0  0  0
 19 24  1  0  0  0  0
 20 21  1  0  0  0  0
 21 22  2  0  0  0  0
 22 23  1  0  0  0  0
 23 24  2  0  0  0  0
 24 25  1  0  0  0  0
 25 26  1  0  0  0  0
 25 30  1  0  0  0  0
 26 27  1  0  0  0  0
 27 28  1  0  0  0  0
 27 29  2  0  0  0  0
 30 31  2  0  0  0  0
M  END
> <ID>
11293

> <Formula>
C24H29ClN2O5

> <FW>
460.9505 (424.4895+36.4609)

> <DSSTox_CID>
25922

> <DSSTox_RID>
81225

> <DSSTox_GSID>
45922

> <DSSTox_FileID_Sort>
5906

> <TS_ChemName>
Benazepril hydrochloride

> <TS_ChemName_Synonyms>


> <TS_CASRN>
86541-74-4

> <CASRN_ChemName_Relationship>
primary

> <TS_Description>
single chemical compound

> <ChemNote>
stereochem; parent [86541-75-5]

> <STRUCTURE_Shown>
tested chemical

> <STRUCTURE_Formula>
C24H29ClN2O5

> <STRUCTURE_MW>
460.9505

> <STRUCTURE_ChemType>
defined organic

> <STRUCTURE_DefinedOrganicForm>
complex

> <STRUCTURE_IUPAC>
[(3S)-3-{[(2S)-1-ethoxy-1-oxo-4-phenylbutan-2-yl]amino}-2-oxo-2,3,4,5-tetrahydro-1H-1-benzazepin-1-yl]acetic acid hydrochloride (1:1)

> <STRUCTURE_SMILES>
Cl.O=C(OCC)[C@H](CCc1ccccc1)N[C@H]3CCc2ccccc2N(CC(=O)O)C3=O

> <STRUCTURE_SMILES_Desalt>
O=C(OCC)[C@H](CCc1ccccc1)N[C@H]3CCc2ccccc2N(CC(=O)O)C3=O

> <Substance_modify_yyyymmdd>
20110930

$$$$
