867-13-0
ChemmineR-0915142007XD

 14 13  0  0  0  0  0  0  0  0  1 V2000
    4.9670   -2.6564    0.0000 C   0  0  0  0  0  0  0  0  0  0  0  0
    4.9670   -1.3408    0.0000 O   0  0  0  0  0  0  0  0  0  0  0  0
    6.1223   -3.3310    0.0000 O   0  0  0  0  0  0  0  0  0  0  0  0
    3.8032   -3.3310    0.0000 C   0  0  0  0  0  0  0  0  0  0  0  0
    2.6648   -2.6732    0.0000 P   0  0  0  0  0  0  0  0  0  0  0  0
    3.3226   -1.5095    0.0000 O   0  0  0  0  0  0  0  0  0  0  0  0
    1.9902   -3.8117    0.0000 O   0  0  0  0  0  0  0  0  0  0  0  0
    0.6578   -3.8285    0.0000 C   0  0  0  0  0  0  0  0  0  0  0  0
    0.0000   -4.9670    0.0000 C   0  0  0  0  0  0  0  0  0  0  0  0
    1.5095   -2.0155    0.0000 O   0  0  0  0  0  0  0  0  0  0  0  0
    1.5095   -0.6746    0.0000 C   0  0  0  0  0  0  0  0  0  0  0  0
    0.3710    0.0000    0.0000 C   0  0  0  0  0  0  0  0  0  0  0  0
    7.2776   -2.6564    0.0000 C   0  0  0  0  0  0  0  0  0  0  0  0
    8.4329   -3.3310    0.0000 C   0  0  0  0  0  0  0  0  0  0  0  0
  1  2  2  0  0  0  0
  1  3  1  0  0  0  0
  1  4  1  0  0  0  0
  3 13  1  0  0  0  0
  4  5  1  0  0  0  0
  5  6  2  0  0  0  0
  5  7  1  0  0  0  0
  5 10  1  0  0  0  0
  7  8  1  0  0  0  0
  8  9  1  0  0  0  0
 10 11  1  0  0  0  0
 11 12  1  0  0  0  0
 13 14  1  0  0  0  0
M  END
> <ID>
8538

> <Formula>
C8H17O5P

> <FW>
224.1913

> <DSSTox_CID>
21573

> <DSSTox_RID>
79778

> <DSSTox_GSID>
41573

> <DSSTox_FileID_Sort>
4460

> <TS_ChemName>
Acetic acid, (diethoxyphosphinyl)-, ethyl ester

> <TS_ChemName_Synonyms>


> <TS_CASRN>
867-13-0

> <CASRN_ChemName_Relationship>
primary

> <TS_Description>
single chemical compound

> <ChemNote>


> <STRUCTURE_Shown>
tested chemical

> <STRUCTURE_Formula>
C8H17O5P

> <STRUCTURE_MW>
224.1913

> <STRUCTURE_ChemType>
defined organic

> <STRUCTURE_DefinedOrganicForm>
parent

> <STRUCTURE_IUPAC>
ethyl (diethoxyphosphoryl)acetate

> <STRUCTURE_SMILES>
O=P(CC(=O)OCC)(OCC)OCC

> <STRUCTURE_SMILES_Desalt>
O=P(CC(=O)OCC)(OCC)OCC

> <Substance_modify_yyyymmdd>
20080825

$$$$
