86780-90-7
ChemmineR-0915142007XD

 28 29  0  0  0  0  0  0  0  0  2 V2000
    3.2667   -0.6274    0.0000 C   0  0  0  0  0  0  0  0  0  0  0  0
    3.2667   -1.8605    0.0000 C   0  0  0  0  0  0  0  0  0  0  0  0
    4.3376   -2.4987    0.0000 C   0  0  0  0  0  0  0  0  0  0  0  0
    5.4410   -1.8605    0.0000 C   0  0  0  0  0  0  0  0  0  0  0  0
    5.4410   -0.6274    0.0000 C   0  0  0  0  0  0  0  0  0  0  0  0
    4.3593    0.0000    0.0000 C   0  0  0  0  0  0  0  0  0  0  0  0
    6.5119   -2.4987    0.0000 N   0  3  0  0  0  0  0  0  0  0  0  0
    7.5936   -1.8930    0.0000 O   0  0  0  0  0  0  0  0  0  0  0  0
    6.5119   -3.7643    0.0000 O   0  5  0  0  0  0  0  0  0  0  0  0
    4.3376   -6.1441    0.0000 C   0  0  0  0  0  0  0  0  0  0  0  0
    3.2559   -6.7607    0.0000 C   0  0  0  0  0  0  0  0  0  0  0  0
    3.2559   -8.0154    0.0000 C   0  0  0  0  0  0  0  0  0  0  0  0
    4.3268   -8.6320    0.0000 N   0  0  0  0  0  0  0  0  0  0  0  0
    5.4085   -8.0154    0.0000 C   0  0  0  0  0  0  0  0  0  0  0  0
    5.4085   -6.7607    0.0000 C   0  0  0  0  0  0  0  0  0  0  0  0
    6.4902   -6.1441    0.0000 C   0  0  0  0  0  0  0  0  0  0  0  0
    7.5827   -6.7715    0.0000 O   0  0  0  0  0  0  0  0  0  0  0  0
    8.6428   -6.1765    0.0000 C   0  0  0  0  0  0  0  0  0  0  0  0
    9.7353   -6.7715    0.0000 C   0  0  0  0  0  0  0  0  0  0  0  0
   10.8170   -6.1765    0.0000 C   0  0  0  0  0  0  0  0  0  0  0  0
    2.1742   -6.1224    0.0000 C   0  0  0  0  0  0  0  0  0  0  0  0
    2.1850   -4.8785    0.0000 O   0  0  0  0  0  0  0  0  0  0  0  0
    2.1742   -8.6320    0.0000 C   0  0  0  0  0  0  0  0  0  0  0  0
    6.4902   -8.6428    0.0000 C   0  0  0  0  0  0  0  0  0  0  0  0
    6.4902   -4.9109    0.0000 O   0  0  0  0  0  0  0  0  0  0  0  0
    9.7353   -8.0371    0.0000 O   0  0  0  0  0  0  0  0  0  0  0  0
    1.0817   -6.7498    0.0000 O   0  0  0  0  0  0  0  0  0  0  0  0
    0.0000   -6.1224    0.0000 C   0  0  0  0  0  0  0  0  0  0  0  0
  1  6  1  0  0  0  0
  1  2  2  0  0  0  0
  2  3  1  0  0  0  0
  3  4  2  0  0  0  0
  3 10  1  0  0  0  0
  4  5  1  0  0  0  0
  4  7  1  0  0  0  0
  5  6  2  0  0  0  0
  7  8  2  0  0  0  0
  7  9  1  0  0  0  0
 10 11  1  0  0  0  0
 10 15  1  0  0  0  0
 11 21  1  0  0  0  0
 11 12  2  0  0  0  0
 12 13  1  0  0  0  0
 12 23  1  0  0  0  0
 13 14  1  0  0  0  0
 14 15  2  0  0  0  0
 14 24  1  0  0  0  0
 15 16  1  0  0  0  0
 16 17  1  0  0  0  0
 16 25  2  0  0  0  0
 17 18  1  0  0  0  0
 18 19  1  0  0  0  0
 19 20  1  0  0  0  0
 19 26  2  0  0  0  0
 21 22  2  0  0  0  0
 21 27  1  0  0  0  0
 27 28  1  0  0  0  0
M  END
> <ID>
13645

> <Formula>
C19H20N2O7

> <FW>
388.3713

> <DSSTox_CID>
28575

> <DSSTox_RID>
82847

> <DSSTox_GSID>
48649

> <DSSTox_FileID_Sort>
7524

> <TS_ChemName>
Aranidipine

> <TS_ChemName_Synonyms>


> <TS_CASRN>
86780-90-7

> <CASRN_ChemName_Relationship>
primary

> <TS_Description>
single chemical compound

> <ChemNote>
tautomers

> <STRUCTURE_Shown>
tested chemical

> <STRUCTURE_Formula>
C19H20N2O7

> <STRUCTURE_MW>
388.3713

> <STRUCTURE_ChemType>
defined organic

> <STRUCTURE_DefinedOrganicForm>
parent

> <STRUCTURE_IUPAC>
methyl 2-oxopropyl 2,6-dimethyl-4-(2-nitrophenyl)-1,4-dihydropyridine-3,5-dicarboxylate

> <STRUCTURE_SMILES>
CC=1NC(C)=C(C(C=1C(=O)OCC(C)=O)c2ccccc2[N+]([O-])=O)C(=O)OC

> <STRUCTURE_SMILES_Desalt>
CC=1NC(C)=C(C(C=1C(=O)OCC(C)=O)c2ccccc2[N+]([O-])=O)C(=O)OC

> <Substance_modify_yyyymmdd>
20111016

$$$$
