868-59-7
ChemmineR-0915142007XD

 10  8  0  0  1  0  0  0  0  0  1 V2000
    0.0000   -1.9893    0.0000 C    0  0  0  0  0  0  0  0  0  0  0  0
    1.1575   -1.3308    0.0000 C    0  0  0  0  0  0  0  0  0  0  0  0
    2.3081   -1.9893    0.0000 O    0  0  0  0  0  0  0  0  0  0  0  0
    3.4657   -1.3308    0.0000 C    0  0  0  0  0  0  0  0  0  0  0  0
    3.4657    0.0000    0.0000 O    0  0  0  0  0  0  0  0  0  0  0  0
    4.6024   -1.9893    0.0000 C    0  0  0  0  0  0  0  0  0  0  0  0
    4.6024   -3.3201    0.0000 N    0  0  0  0  0  0  0  0  0  0  0  0
    5.7738   -1.3308    0.0000 C    0  0  0  0  0  0  0  0  0  0  0  0
    6.9314   -1.9893    0.0000 S    0  0  0  0  0  0  0  0  0  0  0  0
    1.3932   -3.0290    0.0000 Cl   0  0  0  0  0  0  0  0  0  0  0  0
  1  2  1  0  0  0  0
  2  3  1  0  0  0  0
  3  4  1  0  0  0  0
  4  5  2  0  0  0  0
  4  6  1  0  0  0  0
  6  7  1  6  0  0  0
  6  8  1  0  0  0  0
  8  9  1  0  0  0  0
M  END
> <ID>
11758

> <Formula>
C5H12ClNO2S

> <FW>
185.6723 (149.2113+36.4609)

> <DSSTox_CID>
26527

> <DSSTox_RID>
81692

> <DSSTox_GSID>
46527

> <DSSTox_FileID_Sort>
6373

> <TS_ChemName>
Ethyl L-cysteinate hydrochloride

> <TS_ChemName_Synonyms>


> <TS_CASRN>
868-59-7

> <CASRN_ChemName_Relationship>
primary

> <TS_Description>
single chemical compound

> <ChemNote>
stereochem; parent [3411-58-3]

> <STRUCTURE_Shown>
tested chemical

> <STRUCTURE_Formula>
C5H12ClNO2S

> <STRUCTURE_MW>
185.6723

> <STRUCTURE_ChemType>
defined organic

> <STRUCTURE_DefinedOrganicForm>
complex

> <STRUCTURE_IUPAC>
ethyl L-cysteinate hydrochloride (1:1)

> <STRUCTURE_SMILES>
Cl.O=C(OCC)[C@@H](N)CS

> <STRUCTURE_SMILES_Desalt>
O=C(OCC)[C@@H](N)CS

> <Substance_modify_yyyymmdd>
20110811

$$$$
