868-85-9
ChemmineR-0915142007XD

  7  6  0  0  0  0  0  0  0  0  1 V2000
    1.6373    0.0000    0.0000 O   0  0  0  0  0  0  0  0  0  0  0  0
    2.3034   -1.1517    0.0000 P   0  0  0  0  0  0  0  0  0  0  0  0
    3.4550   -0.4856    0.0000 H   0  0  0  0  0  0  0  0  0  0  0  0
    2.9694   -2.3034    0.0000 O   0  0  0  0  0  0  0  0  0  0  0  0
    4.2973   -2.3034    0.0000 C   0  0  0  0  0  0  0  0  0  0  0  0
    1.1517   -1.8178    0.0000 O   0  0  0  0  0  0  0  0  0  0  0  0
    0.0000   -1.1517    0.0000 C   0  0  0  0  0  0  0  0  0  0  0  0
  1  2  2  0  0  0  0
  2  3  1  0  0  0  0
  2  4  1  0  0  0  0
  2  6  1  0  0  0  0
  4  5  1  0  0  0  0
  6  7  1  0  0  0  0
M  END
> <ID>
476

> <Formula>
C2H7O3P

> <FW>
110.0489

> <DSSTox_CID>
493

> <DSSTox_RID>
75621

> <DSSTox_GSID>
20493

> <DSSTox_FileID_Sort>
305

> <TS_ChemName>
Dimethyl hydrogen phosphite

> <TS_ChemName_Synonyms>
Dimethyl hydrogen phosphite (Phosphonic acid, dimethyl ester) (Dimethyl phosphite)

> <TS_CASRN>
868-85-9

> <CASRN_ChemName_Relationship>
primary

> <TS_Description>
single chemical compound

> <ChemNote>


> <STRUCTURE_Shown>
tested chemical

> <STRUCTURE_Formula>
C2H7O3P

> <STRUCTURE_MW>
110.0489

> <STRUCTURE_ChemType>
defined organic

> <STRUCTURE_DefinedOrganicForm>
parent

> <STRUCTURE_IUPAC>
dimethyl phosphonate

> <STRUCTURE_SMILES>
O=P(OC)OC

> <STRUCTURE_SMILES_Desalt>
O=P(OC)OC

> <Substance_modify_yyyymmdd>
20080429

$$$$
