868-77-9
ChemmineR-0915142007XD

  9  8  0  0  0  0  0  0  0  0  1 V2000
    1.1530    0.0000    0.0000 C   0  0  0  0  0  0  0  0  0  0  0  0
    1.1530   -1.3257    0.0000 C   0  0  0  0  0  0  0  0  0  0  0  0
    0.0000   -1.9954    0.0000 C   0  0  0  0  0  0  0  0  0  0  0  0
    2.2992   -1.9954    0.0000 C   0  0  0  0  0  0  0  0  0  0  0  0
    2.2992   -3.3210    0.0000 O   0  0  0  0  0  0  0  0  0  0  0  0
    3.4522   -1.3257    0.0000 O   0  0  0  0  0  0  0  0  0  0  0  0
    4.6053   -1.9954    0.0000 C   0  0  0  0  0  0  0  0  0  0  0  0
    5.7514   -1.3257    0.0000 C   0  0  0  0  0  0  0  0  0  0  0  0
    6.9045   -1.9954    0.0000 O   0  0  0  0  0  0  0  0  0  0  0  0
  1  2  2  0  0  0  0
  2  3  1  0  0  0  0
  2  4  1  0  0  0  0
  4  5  2  0  0  0  0
  4  6  1  0  0  0  0
  6  7  1  0  0  0  0
  7  8  1  0  0  0  0
  8  9  1  0  0  0  0
M  END
> <ID>
1969

> <Formula>
C6H10O3

> <FW>
130.1418

> <DSSTox_CID>
2128

> <DSSTox_RID>
76499

> <DSSTox_GSID>
22128

> <DSSTox_FileID_Sort>
1183

> <TS_ChemName>
2-Hydroxyethyl methacrylate

> <TS_ChemName_Synonyms>
2-Hydroxyethyl methacrylate (2-propenoic acid, 2-methyl-, 2-hydroxyethyl ester)

> <TS_CASRN>
868-77-9

> <CASRN_ChemName_Relationship>
primary

> <TS_Description>
single chemical compound

> <ChemNote>


> <STRUCTURE_Shown>
tested chemical

> <STRUCTURE_Formula>
C6H10O3

> <STRUCTURE_MW>
130.1418

> <STRUCTURE_ChemType>
defined organic

> <STRUCTURE_DefinedOrganicForm>
parent

> <STRUCTURE_IUPAC>
2-hydroxyethyl 2-methylprop-2-enoate

> <STRUCTURE_SMILES>
C=C(C)C(=O)OCCO

> <STRUCTURE_SMILES_Desalt>
C=C(C)C(=O)OCCO

> <Substance_modify_yyyymmdd>
20080429

$$$$
