86811-58-7
ChemmineR-0915142007XD

 33 35  0  0  0  0  0  0  0  0  1 V2000
    3.3610   -1.5839    0.0000 C    0  0  0  0  0  0  0  0  0  0  0  0
    3.3610    0.0000    0.0000 O    0  0  0  0  0  0  0  0  0  0  0  0
    2.2149   -2.2149    0.0000 C    0  0  0  0  0  0  0  0  0  0  0  0
    1.1332   -1.5839    0.0000 C    0  0  0  0  0  0  0  0  0  0  0  0
    2.2149   -3.4898    0.0000 C    0  0  0  0  0  0  0  0  0  0  0  0
    0.0000   -2.2149    0.0000 C    0  0  0  0  0  0  0  0  0  0  0  0
    1.1332   -4.1207    0.0000 C    0  0  0  0  0  0  0  0  0  0  0  0
    0.0000   -3.4898    0.0000 C    0  0  0  0  0  0  0  0  0  0  0  0
    4.5843   -2.2922    0.0000 N    0  0  0  0  0  0  0  0  0  0  0  0
    5.7304   -1.5839    0.0000 C    0  0  0  0  0  0  0  0  0  0  0  0
    5.7304   -0.2447    0.0000 O    0  0  0  0  0  0  0  0  0  0  0  0
    6.8636   -2.2922    0.0000 N    0  0  0  0  0  0  0  0  0  0  0  0
    6.8636   -3.6185    0.0000 C    0  0  0  0  0  0  0  0  0  0  0  0
    5.7304   -4.2495    0.0000 C    0  0  0  0  0  0  0  0  0  0  0  0
    8.0097   -4.2495    0.0000 C    0  0  0  0  0  0  0  0  0  0  0  0
    5.7304   -5.5888    0.0000 C    0  0  0  0  0  0  0  0  0  0  0  0
    8.0097   -5.5888    0.0000 C    0  0  0  0  0  0  0  0  0  0  0  0
    6.8636   -6.2713    0.0000 C    0  0  0  0  0  0  0  0  0  0  0  0
    6.8636   -7.6105    0.0000 Cl   0  0  0  0  0  0  0  0  0  0  0  0
    4.5843   -6.2713    0.0000 O    0  0  0  0  0  0  0  0  0  0  0  0
    5.7304   -8.2157    0.0000 N    0  0  0  0  0  0  0  0  0  0  0  0
    5.7304   -9.5550    0.0000 C    0  0  0  0  0  0  0  0  0  0  0  0
    4.5843   -7.5461    0.0000 C    0  0  0  0  0  0  0  0  0  0  0  0
    3.4254   -8.2157    0.0000 C    0  0  0  0  0  0  0  0  0  0  0  0
    4.5843  -10.2117    0.0000 C    0  0  0  0  0  0  0  0  0  0  0  0
    3.4254   -9.5550    0.0000 C    0  0  0  0  0  0  0  0  0  0  0  0
    2.2535   -7.5461    0.0000 Cl   0  0  0  0  0  0  0  0  0  0  0  0
    4.5843  -11.5510    0.0000 C    0  0  0  0  0  0  0  0  0  0  0  0
    4.5843  -12.8773    0.0000 F    0  0  0  0  0  0  0  0  0  0  0  0
    5.9107  -11.5510    0.0000 F    0  0  0  0  0  0  0  0  0  0  0  0
    3.2451  -11.5510    0.0000 F    0  0  0  0  0  0  0  0  0  0  0  0
    1.1332   -0.2447    0.0000 F    0  0  0  0  0  0  0  0  0  0  0  0
    3.3610   -4.1851    0.0000 F    0  0  0  0  0  0  0  0  0  0  0  0
  1  2  2  0  0  0  0
  1  3  1  0  0  0  0
  1  9  1  0  0  0  0
  3  4  2  0  0  0  0
  3  5  1  0  0  0  0
  4  6  1  0  0  0  0
  4 32  1  0  0  0  0
  5  7  2  0  0  0  0
  5 33  1  0  0  0  0
  6  8  2  0  0  0  0
  7  8  1  0  0  0  0
  9 10  1  0  0  0  0
 10 11  2  0  0  0  0
 10 12  1  0  0  0  0
 12 13  1  0  0  0  0
 13 14  2  0  0  0  0
 13 15  1  0  0  0  0
 14 16  1  0  0  0  0
 15 17  2  0  0  0  0
 16 18  2  0  0  0  0
 16 20  1  0  0  0  0
 17 18  1  0  0  0  0
 18 19  1  0  0  0  0
 20 23  1  0  0  0  0
 21 22  1  0  0  0  0
 21 23  2  0  0  0  0
 22 25  2  0  0  0  0
 23 24  1  0  0  0  0
 24 26  2  0  0  0  0
 24 27  1  0  0  0  0
 25 26  1  0  0  0  0
 25 28  1  0  0  0  0
 28 29  1  0  0  0  0
 28 30  1  0  0  0  0
 28 31  1  0  0  0  0
M  END
> <ID>
11782

> <Formula>
C20H10Cl2F5N3O3

> <FW>
506.2097

> <DSSTox_CID>
26556

> <DSSTox_RID>
81716

> <DSSTox_GSID>
46556

> <DSSTox_FileID_Sort>
6397

> <TS_ChemName>
Fluazuron

> <TS_ChemName_Synonyms>


> <TS_CASRN>
86811-58-7

> <CASRN_ChemName_Relationship>
primary

> <TS_Description>
single chemical compound

> <ChemNote>


> <STRUCTURE_Shown>
tested chemical

> <STRUCTURE_Formula>
C20H10Cl2F5N3O3

> <STRUCTURE_MW>
506.2097

> <STRUCTURE_ChemType>
defined organic

> <STRUCTURE_DefinedOrganicForm>
parent

> <STRUCTURE_IUPAC>
N-[(4-chloro-3-{[3-chloro-5-(trifluoromethyl)pyridin-2-yl]oxy}phenyl)carbamoyl]-2,6-difluorobenzamide

> <STRUCTURE_SMILES>
Fc1cccc(F)c1C(=O)NC(=O)Nc3cc(Oc2ncc(cc2Cl)C(F)(F)F)c(Cl)cc3

> <STRUCTURE_SMILES_Desalt>
Fc1cccc(F)c1C(=O)NC(=O)Nc3cc(Oc2ncc(cc2Cl)C(F)(F)F)c(Cl)cc3

> <Substance_modify_yyyymmdd>
20110811

$$$$
