86832-68-0
ChemmineR-0915142007XD

 34 33  0  0  1  0  0  0  0  0  2 V2000
    9.1711   -5.6127    0.0000 N    0  0  0  0  0  0  0  0  0  0  0  0
    7.8417   -5.6127    0.0000 C    0  0  0  0  0  0  0  0  0  0  0  0
    7.8417   -4.2834    0.0000 C    0  0  0  0  0  0  0  0  0  0  0  0
    9.1711   -4.2834    0.0000 C    0  0  0  0  0  0  0  0  0  0  0  0
   10.0976   -6.5661    0.0000 S    0  0  0  0  0  0  0  0  0  0  0  0
    3.3838   -3.9880    0.0000 C    0  0  0  0  0  0  0  0  0  0  0  0
    4.5385   -3.3301    0.0000 C    0  0  0  0  0  0  0  0  0  0  0  0
    2.1216   -3.5852    0.0000 N    0  0  0  0  0  0  0  0  0  0  0  0
    6.8481   -3.3301    0.0000 N    0  0  0  0  0  0  0  0  0  0  0  0
    5.7067   -3.9880    0.0000 C    0  0  0  0  0  0  0  0  0  0  0  0
    1.3293   -4.6594    0.0000 C    0  0  0  0  0  0  0  0  0  0  0  0
    3.3838   -5.3308    0.0000 C    0  0  0  0  0  0  0  0  0  0  0  0
    2.1216   -5.7470    0.0000 S    0  0  0  0  0  0  0  0  0  0  0  0
   10.0976   -3.3301    0.0000 C    0  0  0  0  0  0  0  0  0  0  0  0
   12.0983   -2.1753    0.0000 C    0  0  0  0  0  0  0  0  0  0  0  0
    4.5385   -2.0007    0.0000 N    0  0  0  0  0  0  0  0  0  0  0  0
    6.8884   -6.5661    0.0000 O    0  0  0  0  0  0  0  0  0  0  0  0
   11.0375   -5.6127    0.0000 O    0  0  0  0  0  0  0  0  0  0  0  0
    9.1711   -7.4926    0.0000 O    0  0  0  0  0  0  0  0  0  0  0  0
    8.0163   -1.3293    0.0000 C    0  0  0  0  0  0  0  0  0  0  0  0
    5.7067   -5.3308    0.0000 O    0  0  0  0  0  0  0  0  0  0  0  0
   11.4403   -3.3301    0.0000 O    0  0  0  0  0  0  0  0  0  0  0  0
    6.8481   -2.0007    0.0000 C    0  0  0  0  0  0  0  0  0  0  0  0
   11.0375   -7.4926    0.0000 O    0  5  0  0  0  0  0  0  0  0  0  0
   11.4403   -1.0339    0.0000 O    0  0  0  0  0  0  0  0  0  0  0  0
    5.7067   -1.3293    0.0000 O    0  0  0  0  0  0  0  0  0  0  0  0
    8.0163    0.0000    0.0000 O    0  0  0  0  0  0  0  0  0  0  0  0
    0.0000   -4.6594    0.0000 N    0  0  0  0  0  0  0  0  0  0  0  0
   13.4276   -2.1753    0.0000 N    0  0  0  0  0  0  0  0  0  0  0  0
    9.1711   -2.0007    0.0000 O    0  5  0  0  0  0  0  0  0  0  0  0
    7.8552   -3.0078    0.0000 H    0  0  0  0  0  0  0  0  0  0  0  0
    9.1711   -3.0078    0.0000 H    0  0  0  0  0  0  0  0  0  0  0  0
   12.3266   -6.4184    0.0000 Na   0  3  0  0  0  0  0  0  0  0  0  0
    9.1711   -0.6177    0.0000 Na   0  3  0  0  0  0  0  0  0  0  0  0
  1  2  1  0  0  0  0
  1  4  1  0  0  0  0
  1  5  1  0  0  0  0
  2 17  2  0  0  0  0
  2  3  1  0  0  0  0
  3  4  1  0  0  0  0
  3  9  1  1  0  0  0
  3 31  1  6  0  0  0
  4 14  1  1  0  0  0
  4 32  1  6  0  0  0
  5 18  2  0  0  0  0
  5 19  2  0  0  0  0
  5 24  1  0  0  0  0
  6  7  1  0  0  0  0
  6  8  1  0  0  0  0
  6 12  2  0  0  0  0
  7 10  1  0  0  0  0
  7 16  2  0  0  0  0
  8 11  2  0  0  0  0
  9 10  1  0  0  0  0
 10 21  2  0  0  0  0
 11 28  1  0  0  0  0
 11 13  1  0  0  0  0
 12 13  1  0  0  0  0
 14 22  1  0  0  0  0
 15 22  1  0  0  0  0
 15 25  2  0  0  0  0
 15 29  1  0  0  0  0
 16 26  1  0  0  0  0
 20 23  1  0  0  0  0
 20 27  2  0  0  0  0
 20 30  1  0  0  0  0
 23 26  1  0  0  0  0
M  END
> <ID>
11908

> <Formula>
C12H12N6Na2O10S2

> <FW>
510.3674 (464.3890+22.9892+22.9892)

> <DSSTox_CID>
26712

> <DSSTox_RID>
81844

> <DSSTox_GSID>
46712

> <DSSTox_FileID_Sort>
6525

> <TS_ChemName>
Carumonam sodium

> <TS_ChemName_Synonyms>


> <TS_CASRN>
86832-68-0

> <CASRN_ChemName_Relationship>
primary

> <TS_Description>
single chemical compound

> <ChemNote>
stereochem; parent [87638-04-8]

> <STRUCTURE_Shown>
tested chemical

> <STRUCTURE_Formula>
C12H12N6Na2O10S2

> <STRUCTURE_MW>
510.3674

> <STRUCTURE_ChemType>
defined organic

> <STRUCTURE_DefinedOrganicForm>
salt

> <STRUCTURE_IUPAC>
disodium ({(Z)-[1-(2-amino-1,3-thiazol-4-yl)-2-({(2S,3S)-2-[(carbamoyloxy)methyl]-4-oxo-1-sulfonatoazetidin-3-yl}amino)-2-oxoethylidene]amino}oxy)acetate

> <STRUCTURE_SMILES>
[Na+].[Na+].Nc1nc(cs1)\C(=N\OCC([O-])=O)C(=O)N[C@@H]2C(=O)N(S([O-])(=O)=O)[C@@H]2COC(N)=O

> <STRUCTURE_SMILES_Desalt>
Nc1nc(cs1)\C(=N\OCC(=O)O)C(=O)N[C@@H]2C(=O)N(S(=O)(=O)O)[C@@H]2COC(N)=O

> <Substance_modify_yyyymmdd>
20110804

$$$$
