868540-17-4
ChemmineR-0915142007XD

 52 55  0  0  1  0  0  0  0  0  1 V2000
    2.2990   -4.0964    0.0000 N   0  0  0  0  0  0  0  0  0  0  0  0
    2.2990   -5.4340    0.0000 C   0  0  0  0  0  0  0  0  0  0  0  0
    1.1495   -3.4276    0.0000 C   0  0  0  0  0  0  0  0  0  0  0  0
    1.1495   -6.0819    0.0000 C   0  0  0  0  0  0  0  0  0  0  0  0
    0.0000   -4.0964    0.0000 C   0  0  0  0  0  0  0  0  0  0  0  0
    0.0000   -5.4340    0.0000 O   0  0  0  0  0  0  0  0  0  0  0  0
    3.4694   -3.4276    0.0000 C   0  0  0  0  0  0  0  0  0  0  0  0
    4.6189   -4.0755    0.0000 C   0  0  0  0  0  0  0  0  0  0  0  0
    5.7684   -3.4276    0.0000 N   0  0  0  0  0  0  0  0  0  0  0  0
    4.6189   -5.4131    0.0000 O   0  0  0  0  0  0  0  0  0  0  0  0
    6.8970   -4.0755    0.0000 C   0  0  0  0  0  0  0  0  0  0  0  0
    8.0465   -3.4276    0.0000 C   0  0  0  0  0  0  0  0  0  0  0  0
    6.8970   -5.4131    0.0000 C   0  0  0  0  0  0  0  0  0  0  0  0
    5.7684   -6.0819    0.0000 C   0  0  0  0  0  0  0  0  0  0  0  0
    5.7684   -7.4195    0.0000 C   0  0  0  0  0  0  0  0  0  0  0  0
    6.8970   -8.0674    0.0000 C   0  0  0  0  0  0  0  0  0  0  0  0
    4.6189   -8.0883    0.0000 C   0  0  0  0  0  0  0  0  0  0  0  0
    6.8970   -9.4259    0.0000 C   0  0  0  0  0  0  0  0  0  0  0  0
    4.6189   -9.4050    0.0000 C   0  0  0  0  0  0  0  0  0  0  0  0
    5.7684  -10.0738    0.0000 C   0  0  0  0  0  0  0  0  0  0  0  0
    9.2169   -4.0755    0.0000 N   0  0  0  0  0  0  0  0  0  0  0  0
    8.0465   -2.0900    0.0000 O   0  0  0  0  0  0  0  0  0  0  0  0
   10.3664   -3.4276    0.0000 C   0  0  0  0  0  0  0  0  0  0  0  0
   11.5159   -4.0755    0.0000 C   0  0  0  0  0  0  0  0  0  0  0  0
   10.3664   -2.0900    0.0000 C   0  0  0  0  0  0  0  0  0  0  0  0
   11.5159   -1.4212    0.0000 C   0  0  0  0  0  0  0  0  0  0  0  0
   11.5159   -0.1045    0.0000 C   0  0  0  0  0  0  0  0  0  0  0  0
   12.6654   -2.0900    0.0000 C   0  0  0  0  0  0  0  0  0  0  0  0
   11.5159   -5.4131    0.0000 O   0  0  0  0  0  0  0  0  0  0  0  0
   12.6654   -3.4276    0.0000 N   0  0  0  0  0  0  0  0  0  0  0  0
   13.8149   -4.0755    0.0000 C   0  0  0  0  0  0  0  0  0  0  0  0
   14.9644   -3.4276    0.0000 C   0  0  0  0  0  0  0  0  0  0  0  0
   13.9194   -5.6221    0.0000 C   0  0  0  0  0  0  0  0  0  0  0  0
   15.0689   -6.2909    0.0000 C   0  0  0  0  0  0  0  0  0  0  0  0
   16.1975   -5.6430    0.0000 C   0  0  0  0  0  0  0  0  0  0  0  0
   15.0689   -7.6285    0.0000 C   0  0  0  0  0  0  0  0  0  0  0  0
   17.3679   -6.2909    0.0000 C   0  0  0  0  0  0  0  0  0  0  0  0
   16.1975   -8.2973    0.0000 C   0  0  0  0  0  0  0  0  0  0  0  0
   17.3679   -7.6285    0.0000 C   0  0  0  0  0  0  0  0  0  0  0  0
   16.1139   -4.0964    0.0000 N   0  0  0  0  0  0  0  0  0  0  0  0
   14.9644   -2.0900    0.0000 O   0  0  0  0  0  0  0  0  0  0  0  0
   17.2634   -3.4276    0.0000 C   0  0  0  0  0  0  0  0  0  0  0  0
   18.4129   -4.0964    0.0000 C   0  0  0  0  0  0  0  0  0  0  0  0
   17.3052   -2.2154    0.0000 C   0  0  0  0  0  0  0  0  0  0  0  0
   18.2666   -1.2958    0.0000 C   0  0  0  0  0  0  0  0  0  0  0  0
   17.9322    0.0000    0.0000 C   0  0  0  0  0  0  0  0  0  0  0  0
   19.5415   -1.6720    0.0000 C   0  0  0  0  0  0  0  0  0  0  0  0
   18.4129   -5.4340    0.0000 O   0  0  0  0  0  0  0  0  0  0  0  0
   19.5624   -3.4276    0.0000 C   0  0  0  0  0  0  0  0  0  0  0  0
   20.2521   -2.2781    0.0000 C   0  0  0  0  0  0  0  0  0  0  0  0
   20.9000   -3.4276    0.0000 O   0  0  0  0  0  0  0  0  0  0  0  0
   19.9177   -4.7025    0.0000 C   0  0  0  0  0  0  0  0  0  0  0  0
  1  2  1  0  0  0  0
  1  3  1  0  0  0  0
  1  7  1  0  0  0  0
  2  4  1  0  0  0  0
  3  5  1  0  0  0  0
  4  6  1  0  0  0  0
  5  6  1  0  0  0  0
  7  8  1  0  0  0  0
  8  9  1  0  0  0  0
  8 10  2  0  0  0  0
  9 11  1  0  0  0  0
 11 12  1  0  0  0  0
 11 13  1  6  0  0  0
 12 21  1  0  0  0  0
 12 22  2  0  0  0  0
 13 14  1  0  0  0  0
 14 15  1  0  0  0  0
 15 16  1  0  0  0  0
 15 17  2  0  0  0  0
 16 18  2  0  0  0  0
 17 19  1  0  0  0  0
 18 20  1  0  0  0  0
 19 20  2  0  0  0  0
 21 23  1  0  0  0  0
 23 24  1  0  0  0  0
 23 25  1  1  0  0  0
 24 29  2  0  0  0  0
 24 30  1  0  0  0  0
 25 26  1  0  0  0  0
 26 27  1  0  0  0  0
 26 28  1  0  0  0  0
 30 31  1  0  0  0  0
 31 32  1  0  0  0  0
 31 33  1  6  0  0  0
 32 40  1  0  0  0  0
 32 41  2  0  0  0  0
 33 34  1  0  0  0  0
 34 35  1  0  0  0  0
 34 36  2  0  0  0  0
 35 37  2  0  0  0  0
 36 38  1  0  0  0  0
 37 39  1  0  0  0  0
 38 39  2  0  0  0  0
 40 42  1  0  0  0  0
 42 43  1  0  0  0  0
 42 44  1  1  0  0  0
 43 48  2  0  0  0  0
 43 49  1  0  0  0  0
 44 45  1  0  0  0  0
 45 46  1  0  0  0  0
 45 47  1  0  0  0  0
 49 50  1  0  0  0  0
 49 51  1  1  0  0  0
 49 52  1  0  0  0  0
 50 51  1  0  0  0  0
M  END
> <ID>
13683

> <Formula>
C40H57N5O7

> <FW>
719.9099

> <DSSTox_CID>
28616

> <DSSTox_RID>
82886

> <DSSTox_GSID>
48690

> <DSSTox_FileID_Sort>
7563

> <TS_ChemName>
Carfilzomib

> <TS_ChemName_Synonyms>


> <TS_CASRN>
868540-17-4

> <CASRN_ChemName_Relationship>
primary

> <TS_Description>
single chemical compound

> <ChemNote>


> <STRUCTURE_Shown>
tested chemical

> <STRUCTURE_Formula>
C40H57N5O7

> <STRUCTURE_MW>
719.9099

> <STRUCTURE_ChemType>
defined organic

> <STRUCTURE_DefinedOrganicForm>
parent

> <STRUCTURE_IUPAC>
N-{(2S)-2-[(morpholin-4-ylacetyl)amino]-4-phenylbutanoyl}-L-leucyl-N-{(2S)-4-methyl-1-[(2R)-2-methyloxiran-2-yl]-1-oxopentan-2-yl}-L-phenylalaninamide

> <STRUCTURE_SMILES>
C[C@@]1(CO1)C(=O)[C@@H](NC(=O)[C@H](Cc2ccccc2)NC(=O)[C@H](CC(C)C)NC(=O)[C@H](CCc3ccccc3)NC(=O)CN4CCOCC4)CC(C)C

> <STRUCTURE_SMILES_Desalt>
C[C@@]1(CO1)C(=O)[C@@H](NC(=O)[C@H](Cc2ccccc2)NC(=O)[C@H](CC(C)C)NC(=O)[C@H](CCc3ccccc3)NC(=O)CN4CCOCC4)CC(C)C

> <Substance_modify_yyyymmdd>
20111204

$$$$
