87-00-3
ChemmineR-0915142007XD

 20 22  0  0  1  0  0  0  0  0  1 V2000
    4.4048   -5.2616    0.0000 C   0  0  0  0  0  0  0  0  0  0  0  0
    4.4048   -6.6119    0.0000 C   0  0  0  0  0  0  0  0  0  0  0  0
    5.5596   -4.6283    0.0000 O   0  0  0  0  0  0  0  0  0  0  0  0
    5.5596   -7.3010    0.0000 C   0  0  0  0  0  0  0  0  0  0  0  0
    3.2501   -7.3010    0.0000 O   0  0  0  0  0  0  0  0  0  0  0  0
    6.7329   -6.6119    0.0000 C   0  0  0  0  0  0  0  0  0  0  0  0
    5.5596   -8.6420    0.0000 C   0  0  0  0  0  0  0  0  0  0  0  0
    6.7329   -9.3125    0.0000 C   0  0  0  0  0  0  0  0  0  0  0  0
    7.8970   -7.3010    0.0000 C   0  0  0  0  0  0  0  0  0  0  0  0
    7.8970   -8.6420    0.0000 C   0  0  0  0  0  0  0  0  0  0  0  0
    1.5086   -2.0487    0.0000 C   0  0  0  0  0  0  0  0  0  0  0  0
    3.2501   -3.3339    0.0000 C   0  0  0  0  0  0  0  0  0  0  0  0
    2.4026   -2.6447    0.0000 C   0  0  0  0  0  0  0  0  0  0  0  0
    0.8288   -2.6447    0.0000 C   0  0  0  0  0  0  0  0  0  0  0  0
    0.6146   -1.3503    0.0000 N   0  0  0  0  0  0  0  0  0  0  0  0
    3.2221   -2.0674    0.0000 C   0  0  0  0  0  0  0  0  0  0  0  0
    0.0000   -3.8181    0.0000 C   0  0  0  0  0  0  0  0  0  0  0  0
    1.0057   -3.2035    0.0000 C   0  0  0  0  0  0  0  0  0  0  0  0
    3.2501   -4.3676    0.0000 O   0  0  0  0  0  0  0  0  0  0  0  0
    0.5681    0.0000    0.0000 C   0  0  0  0  0  0  0  0  0  0  0  0
  1  2  1  0  0  0  0
  1  3  2  0  0  0  0
  1 19  1  0  0  0  0
  2  4  1  0  0  0  0
  2  5  1  0  0  0  0
  4  6  1  0  0  0  0
  4  7  2  0  0  0  0
  6  9  2  0  0  0  0
  7  8  1  0  0  0  0
  8 10  2  0  0  0  0
  9 10  1  0  0  0  0
 11 15  1  6  0  0  0
 11 16  1  0  0  0  0
 11 18  1  0  0  0  0
 12 13  1  0  0  0  0
 12 16  1  0  0  0  0
 12 19  1  1  0  0  0
 13 14  1  0  0  0  0
 14 15  1  1  0  0  0
 14 17  1  0  0  0  0
 15 20  1  0  0  0  0
 17 18  1  0  0  0  0
M  END
> <ID>
9824

> <Formula>
C16H21NO3

> <FW>
275.3428

> <DSSTox_CID>
24014

> <DSSTox_RID>
80098

> <DSSTox_GSID>
44014

> <DSSTox_FileID_Sort>
4780

> <TS_ChemName>
dl-Homatropine

> <TS_ChemName_Synonyms>
Homatropine, dl

> <TS_CASRN>
87-00-3

> <CASRN_ChemName_Relationship>
primary

> <TS_Description>
single chemical compound

> <ChemNote>
relative stereochem

> <STRUCTURE_Shown>
tested chemical

> <STRUCTURE_Formula>
C16H21NO3

> <STRUCTURE_MW>
275.3428

> <STRUCTURE_ChemType>
defined organic

> <STRUCTURE_DefinedOrganicForm>
parent

> <STRUCTURE_IUPAC>
(3-endo)-8-methyl-8-azabicyclo[3.2.1]oct-3-yl hydroxy(phenyl)acetate

> <STRUCTURE_SMILES>
CN3[C@@H]1CC[C@H]3C[C@H](C1)OC(=O)C(O)c2ccccc2

> <STRUCTURE_SMILES_Desalt>
CN3[C@@H]1CC[C@H]3C[C@H](C1)OC(=O)C(O)c2ccccc2

> <Substance_modify_yyyymmdd>
20110608

$$$$
