87-19-4
ChemmineR-0915142007XD

 14 14  0  0  0  0  0  0  0  0  1 V2000
    3.4474   -1.3290    0.0000 C   0  0  0  0  0  0  0  0  0  0  0  0
    3.4474    0.0000    0.0000 O   0  0  0  0  0  0  0  0  0  0  0  0
    2.3117   -1.9895    0.0000 C   0  0  0  0  0  0  0  0  0  0  0  0
    4.5911   -1.9895    0.0000 O   0  0  0  0  0  0  0  0  0  0  0  0
    1.1518   -1.3129    0.0000 C   0  0  0  0  0  0  0  0  0  0  0  0
    2.2956   -3.3024    0.0000 C   0  0  0  0  0  0  0  0  0  0  0  0
    0.0000   -1.9895    0.0000 C   0  0  0  0  0  0  0  0  0  0  0  0
    1.1357   -3.9790    0.0000 C   0  0  0  0  0  0  0  0  0  0  0  0
    0.0000   -3.3185    0.0000 C   0  0  0  0  0  0  0  0  0  0  0  0
    5.7429   -1.3129    0.0000 C   0  0  0  0  0  0  0  0  0  0  0  0
    6.9028   -1.9895    0.0000 C   0  0  0  0  0  0  0  0  0  0  0  0
    6.9028   -3.3185    0.0000 C   0  0  0  0  0  0  0  0  0  0  0  0
    8.0546   -1.3129    0.0000 C   0  0  0  0  0  0  0  0  0  0  0  0
    3.4474   -3.9790    0.0000 O   0  0  0  0  0  0  0  0  0  0  0  0
  1  2  2  0  0  0  0
  1  3  1  0  0  0  0
  1  4  1  0  0  0  0
  3  5  2  0  0  0  0
  3  6  1  0  0  0  0
  4 10  1  0  0  0  0
  5  7  1  0  0  0  0
  6  8  2  0  0  0  0
  6 14  1  0  0  0  0
  7  9  2  0  0  0  0
  8  9  1  0  0  0  0
 10 11  1  0  0  0  0
 11 12  1  0  0  0  0
 11 13  1  0  0  0  0
M  END
> <ID>
12333

> <Formula>
C11H14O3

> <FW>
194.2271

> <DSSTox_CID>
27186

> <DSSTox_RID>
82182

> <DSSTox_GSID>
47186

> <DSSTox_FileID_Sort>
6863

> <TS_ChemName>
Isobutyl salicylate

> <TS_ChemName_Synonyms>


> <TS_CASRN>
87-19-4

> <CASRN_ChemName_Relationship>
primary

> <TS_Description>
single chemical compound

> <ChemNote>


> <STRUCTURE_Shown>
tested chemical

> <STRUCTURE_Formula>
C11H14O3

> <STRUCTURE_MW>
194.2271

> <STRUCTURE_ChemType>
defined organic

> <STRUCTURE_DefinedOrganicForm>
parent

> <STRUCTURE_IUPAC>
2-methylpropyl 2-hydroxybenzoate

> <STRUCTURE_SMILES>
Oc1ccccc1C(=O)OCC(C)C

> <STRUCTURE_SMILES_Desalt>
Oc1ccccc1C(=O)OCC(C)C

> <Substance_modify_yyyymmdd>
20100503

$$$$
