87-18-3
ChemmineR-0915142007XD

 20 21  0  0  0  0  0  0  0  0  1 V2000
    2.3066   -3.7961    0.0000 C   0  0  0  0  0  0  0  0  0  0  0  0
    3.4444   -3.1341    0.0000 C   0  0  0  0  0  0  0  0  0  0  0  0
    3.4444   -1.7894    0.0000 O   0  0  0  0  0  0  0  0  0  0  0  0
    2.3066   -5.1408    0.0000 C   0  0  0  0  0  0  0  0  0  0  0  0
    4.6236   -3.7961    0.0000 O   0  0  0  0  0  0  0  0  0  0  0  0
    3.4444   -5.7924    0.0000 O   0  0  0  0  0  0  0  0  0  0  0  0
    1.1378   -3.1341    0.0000 C   0  0  0  0  0  0  0  0  0  0  0  0
    1.1378   -5.7924    0.0000 C   0  0  0  0  0  0  0  0  0  0  0  0
    0.0000   -3.7961    0.0000 C   0  0  0  0  0  0  0  0  0  0  0  0
    0.0000   -5.1408    0.0000 C   0  0  0  0  0  0  0  0  0  0  0  0
    5.7614   -3.1341    0.0000 C   0  0  0  0  0  0  0  0  0  0  0  0
    6.8992   -3.7961    0.0000 C   0  0  0  0  0  0  0  0  0  0  0  0
    5.7614   -1.7894    0.0000 C   0  0  0  0  0  0  0  0  0  0  0  0
    8.0680   -3.1341    0.0000 C   0  0  0  0  0  0  0  0  0  0  0  0
    6.9302   -1.1378    0.0000 C   0  0  0  0  0  0  0  0  0  0  0  0
    8.0680   -1.7894    0.0000 C   0  0  0  0  0  0  0  0  0  0  0  0
    9.2058   -1.1378    0.0000 C   0  0  0  0  0  0  0  0  0  0  0  0
    9.8988   -2.3066    0.0000 C   0  0  0  0  0  0  0  0  0  0  0  0
   10.3436   -0.4861    0.0000 C   0  0  0  0  0  0  0  0  0  0  0  0
    8.5541    0.0000    0.0000 C   0  0  0  0  0  0  0  0  0  0  0  0
  1  2  1  0  0  0  0
  1  4  2  0  0  0  0
  1  7  1  0  0  0  0
  2  3  2  0  0  0  0
  2  5  1  0  0  0  0
  4  6  1  0  0  0  0
  4  8  1  0  0  0  0
  5 11  1  0  0  0  0
  7  9  2  0  0  0  0
  8 10  2  0  0  0  0
  9 10  1  0  0  0  0
 11 12  2  0  0  0  0
 11 13  1  0  0  0  0
 12 14  1  0  0  0  0
 13 15  2  0  0  0  0
 14 16  2  0  0  0  0
 15 16  1  0  0  0  0
 16 17  1  0  0  0  0
 17 18  1  0  0  0  0
 17 19  1  0  0  0  0
 17 20  1  0  0  0  0
M  END
> <ID>
7424

> <Formula>
C17H18O3

> <FW>
270.323

> <DSSTox_CID>
17745

> <DSSTox_RID>
79371

> <DSSTox_GSID>
37745

> <DSSTox_FileID_Sort>
4053

> <TS_ChemName>
4-tert-Butylphenyl salicylate

> <TS_ChemName_Synonyms>
4-tert-Butylphenyl salicylate (benzoic acid,2-hydroxy-,4-(1,1-dimethylethyl)-phenyl ester)

> <TS_CASRN>
87-18-3

> <CASRN_ChemName_Relationship>
primary

> <TS_Description>
single chemical compound

> <ChemNote>


> <STRUCTURE_Shown>
tested chemical

> <STRUCTURE_Formula>
C17H18O3

> <STRUCTURE_MW>
270.323

> <STRUCTURE_ChemType>
defined organic

> <STRUCTURE_DefinedOrganicForm>
parent

> <STRUCTURE_IUPAC>
4-tert-butylphenyl 2-hydroxybenzoate

> <STRUCTURE_SMILES>
Oc2ccccc2C(=O)Oc1ccc(cc1)C(C)(C)C

> <STRUCTURE_SMILES_Desalt>
Oc2ccccc2C(=O)Oc1ccc(cc1)C(C)(C)C

> <Substance_modify_yyyymmdd>
20080429

$$$$
