87-10-5
ChemmineR-0915142007XD

 19 20  0  0  0  0  0  0  0  0  1 V2000
    5.9856   -2.3044    0.0000 C    0  0  0  0  0  0  0  0  0  0  0  0
    5.3172   -1.1572    0.0000 O    0  0  0  0  0  0  0  0  0  0  0  0
    5.3172   -3.4617    0.0000 N    0  0  0  0  0  0  0  0  0  0  0  0
    3.9904   -3.4617    0.0000 C    0  0  0  0  0  0  0  0  0  0  0  0
    3.3220   -4.6089    0.0000 C    0  0  0  0  0  0  0  0  0  0  0  0
    1.9952   -4.6089    0.0000 C    0  0  0  0  0  0  0  0  0  0  0  0
    1.3268   -3.4617    0.0000 C    0  0  0  0  0  0  0  0  0  0  0  0
    0.0000   -3.4617    0.0000 Br   0  0  0  0  0  0  0  0  0  0  0  0
    1.9952   -2.3044    0.0000 C    0  0  0  0  0  0  0  0  0  0  0  0
    3.3220   -2.3044    0.0000 C    0  0  0  0  0  0  0  0  0  0  0  0
    7.3124   -2.3044    0.0000 C    0  0  0  0  0  0  0  0  0  0  0  0
    7.9808   -1.1572    0.0000 C    0  0  0  0  0  0  0  0  0  0  0  0
    9.3076   -1.1572    0.0000 C    0  0  0  0  0  0  0  0  0  0  0  0
    9.9760    0.0000    0.0000 Br   0  0  0  0  0  0  0  0  0  0  0  0
    9.9760   -2.3044    0.0000 C    0  0  0  0  0  0  0  0  0  0  0  0
    9.3076   -3.4617    0.0000 C    0  0  0  0  0  0  0  0  0  0  0  0
    9.9760   -4.6089    0.0000 Br   0  0  0  0  0  0  0  0  0  0  0  0
    7.9808   -3.4617    0.0000 C    0  0  0  0  0  0  0  0  0  0  0  0
    7.3124   -4.6089    0.0000 O    0  0  0  0  0  0  0  0  0  0  0  0
  1  2  2  0  0  0  0
  1  3  1  0  0  0  0
  1 11  1  0  0  0  0
  3  4  1  0  0  0  0
  4  5  2  0  0  0  0
  4 10  1  0  0  0  0
  5  6  1  0  0  0  0
  6  7  2  0  0  0  0
  7  8  1  0  0  0  0
  7  9  1  0  0  0  0
  9 10  2  0  0  0  0
 11 12  2  0  0  0  0
 11 18  1  0  0  0  0
 12 13  1  0  0  0  0
 13 14  1  0  0  0  0
 13 15  2  0  0  0  0
 15 16  1  0  0  0  0
 16 17  1  0  0  0  0
 16 18  2  0  0  0  0
 18 19  1  0  0  0  0
M  END
> <ID>
4582

> <Formula>
C13H8Br3NO2

> <FW>
449.9201

> <DSSTox_CID>
6181

> <DSSTox_RID>
78049

> <DSSTox_GSID>
26181

> <DSSTox_FileID_Sort>
2732

> <TS_ChemName>
Tribromsalan

> <TS_ChemName_Synonyms>
Tribromosalan

> <TS_CASRN>
87-10-5

> <CASRN_ChemName_Relationship>
primary

> <TS_Description>
single chemical compound

> <ChemNote>


> <STRUCTURE_Shown>
tested chemical

> <STRUCTURE_Formula>
C13H8Br3NO2

> <STRUCTURE_MW>
449.9201

> <STRUCTURE_ChemType>
defined organic

> <STRUCTURE_DefinedOrganicForm>
parent

> <STRUCTURE_IUPAC>
3,5-dibromo-N-(4-bromophenyl)-2-hydroxybenzamide

> <STRUCTURE_SMILES>
Oc1c(cc(Br)cc1Br)C(=O)Nc2ccc(Br)cc2

> <STRUCTURE_SMILES_Desalt>
Oc1c(cc(Br)cc1Br)C(=O)Nc2ccc(Br)cc2

> <Substance_modify_yyyymmdd>
20080429

$$$$
