87-26-3
ChemmineR-0915142007XD

 12 12  0  0  0  0  0  0  0  0  1 V2000
    1.1526   -1.3312    0.0000 C   0  0  0  0  0  0  0  0  0  0  0  0
    1.1526    0.0000    0.0000 O   0  0  0  0  0  0  0  0  0  0  0  0
    2.3051   -2.0055    0.0000 C   0  0  0  0  0  0  0  0  0  0  0  0
    0.0000   -2.0055    0.0000 C   0  0  0  0  0  0  0  0  0  0  0  0
    0.0000   -3.3309    0.0000 C   0  0  0  0  0  0  0  0  0  0  0  0
    2.3051   -3.3309    0.0000 C   0  0  0  0  0  0  0  0  0  0  0  0
    1.1526   -3.9879    0.0000 C   0  0  0  0  0  0  0  0  0  0  0  0
    3.4577    0.0000    0.0000 C   0  0  0  0  0  0  0  0  0  0  0  0
    3.4577   -1.3312    0.0000 C   0  0  0  0  0  0  0  0  0  0  0  0
    4.6103   -2.0055    0.0000 C   0  0  0  0  0  0  0  0  0  0  0  0
    4.6103   -3.3309    0.0000 C   0  0  0  0  0  0  0  0  0  0  0  0
    5.7629   -3.9879    0.0000 C   0  0  0  0  0  0  0  0  0  0  0  0
  1  2  1  0  0  0  0
  1  3  2  0  0  0  0
  1  4  1  0  0  0  0
  3  6  1  0  0  0  0
  3  9  1  0  0  0  0
  4  5  2  0  0  0  0
  5  7  1  0  0  0  0
  6  7  2  0  0  0  0
  8  9  1  0  0  0  0
  9 10  1  0  0  0  0
 10 11  1  0  0  0  0
 11 12  1  0  0  0  0
M  END
> <ID>
8418

> <Formula>
C11H16O

> <FW>
164.2441

> <DSSTox_CID>
21452

> <DSSTox_RID>
79740

> <DSSTox_GSID>
41452

> <DSSTox_FileID_Sort>
4422

> <TS_ChemName>
2-(1-Methylbutyl)phenol

> <TS_ChemName_Synonyms>
2-sec-Amylphenol

> <TS_CASRN>
87-26-3

> <CASRN_ChemName_Relationship>
primary

> <TS_Description>
single chemical compound

> <ChemNote>


> <STRUCTURE_Shown>
tested chemical

> <STRUCTURE_Formula>
C11H16O

> <STRUCTURE_MW>
164.2441

> <STRUCTURE_ChemType>
defined organic

> <STRUCTURE_DefinedOrganicForm>
parent

> <STRUCTURE_IUPAC>
2-(pentan-2-yl)phenol

> <STRUCTURE_SMILES>
Oc1ccccc1C(C)CCC

> <STRUCTURE_SMILES_Desalt>
Oc1ccccc1C(C)CCC

> <Substance_modify_yyyymmdd>
20080825

$$$$
