87-25-2
ChemmineR-0915142007XD

 12 12  0  0  0  0  0  0  0  0  1 V2000
    3.4554   -3.9875    0.0000 O   0  0  0  0  0  0  0  0  0  0  0  0
    3.4554   -2.6607    0.0000 C   0  0  0  0  0  0  0  0  0  0  0  0
    4.6095   -1.9903    0.0000 O   0  0  0  0  0  0  0  0  0  0  0  0
    5.7567   -2.6607    0.0000 C   0  0  0  0  0  0  0  0  0  0  0  0
    6.9108   -1.9903    0.0000 C   0  0  0  0  0  0  0  0  0  0  0  0
    2.3013   -1.9903    0.0000 C   0  0  0  0  0  0  0  0  0  0  0  0
    1.1541   -2.6607    0.0000 C   0  0  0  0  0  0  0  0  0  0  0  0
    1.1541   -3.9875    0.0000 N   0  0  0  0  0  0  0  0  0  0  0  0
    0.0000   -1.9903    0.0000 C   0  0  0  0  0  0  0  0  0  0  0  0
    0.0000   -0.6634    0.0000 C   0  0  0  0  0  0  0  0  0  0  0  0
    1.1541    0.0000    0.0000 C   0  0  0  0  0  0  0  0  0  0  0  0
    2.3013   -0.6634    0.0000 C   0  0  0  0  0  0  0  0  0  0  0  0
  1  2  2  0  0  0  0
  2  3  1  0  0  0  0
  2  6  1  0  0  0  0
  3  4  1  0  0  0  0
  4  5  1  0  0  0  0
  6  7  2  0  0  0  0
  6 12  1  0  0  0  0
  7  8  1  0  0  0  0
  7  9  1  0  0  0  0
  9 10  2  0  0  0  0
 10 11  1  0  0  0  0
 11 12  2  0  0  0  0
M  END
> <ID>
4114

> <Formula>
C9H11NO2

> <FW>
165.1891

> <DSSTox_CID>
5272

> <DSSTox_RID>
77722

> <DSSTox_GSID>
25272

> <DSSTox_FileID_Sort>
2405

> <TS_ChemName>
Ethyl anthranilate

> <TS_ChemName_Synonyms>
Ethyl anthranilate (2-Amino-benzoic acid ethyl ester)

> <TS_CASRN>
87-25-2

> <CASRN_ChemName_Relationship>
primary

> <TS_Description>
single chemical compound

> <ChemNote>


> <STRUCTURE_Shown>
tested chemical

> <STRUCTURE_Formula>
C9H11NO2

> <STRUCTURE_MW>
165.1891

> <STRUCTURE_ChemType>
defined organic

> <STRUCTURE_DefinedOrganicForm>
parent

> <STRUCTURE_IUPAC>
ethyl 2-aminobenzoate

> <STRUCTURE_SMILES>
Nc1ccccc1C(=O)OCC

> <STRUCTURE_SMILES_Desalt>
Nc1ccccc1C(=O)OCC

> <Substance_modify_yyyymmdd>
20080429

$$$$
