87-24-1
ChemmineR-0915142007XD

 12 12  0  0  0  0  0  0  0  0  1 V2000
    3.4615   -1.3327    0.0000 C   0  0  0  0  0  0  0  0  0  0  0  0
    3.4615    0.0000    0.0000 O   0  0  0  0  0  0  0  0  0  0  0  0
    2.3076   -1.9903    0.0000 C   0  0  0  0  0  0  0  0  0  0  0  0
    4.6153   -1.9903    0.0000 O   0  0  0  0  0  0  0  0  0  0  0  0
    1.1538   -1.3327    0.0000 C   0  0  0  0  0  0  0  0  0  0  0  0
    2.3076   -3.3230    0.0000 C   0  0  0  0  0  0  0  0  0  0  0  0
    0.0000   -1.9903    0.0000 C   0  0  0  0  0  0  0  0  0  0  0  0
    1.1538   -3.9807    0.0000 C   0  0  0  0  0  0  0  0  0  0  0  0
    0.0000   -3.3230    0.0000 C   0  0  0  0  0  0  0  0  0  0  0  0
    1.1538    0.0000    0.0000 C   0  0  0  0  0  0  0  0  0  0  0  0
    5.7691   -1.3327    0.0000 C   0  0  0  0  0  0  0  0  0  0  0  0
    5.7691    0.0000    0.0000 C   0  0  0  0  0  0  0  0  0  0  0  0
  1  2  2  0  0  0  0
  1  3  1  0  0  0  0
  1  4  1  0  0  0  0
  3  5  2  0  0  0  0
  3  6  1  0  0  0  0
  4 11  1  0  0  0  0
  5  7  1  0  0  0  0
  5 10  1  0  0  0  0
  6  8  2  0  0  0  0
  7  9  2  0  0  0  0
  8  9  1  0  0  0  0
 11 12  1  0  0  0  0
M  END
> <ID>
7907

> <Formula>
C10H12O2

> <FW>
164.2011

> <DSSTox_CID>
20711

> <DSSTox_RID>
79559

> <DSSTox_GSID>
40711

> <DSSTox_FileID_Sort>
4241

> <TS_ChemName>
Ethyl 2-methylbenzoate

> <TS_ChemName_Synonyms>


> <TS_CASRN>
87-24-1

> <CASRN_ChemName_Relationship>
primary

> <TS_Description>
single chemical compound

> <ChemNote>


> <STRUCTURE_Shown>
tested chemical

> <STRUCTURE_Formula>
C10H12O2

> <STRUCTURE_MW>
164.2011

> <STRUCTURE_ChemType>
defined organic

> <STRUCTURE_DefinedOrganicForm>
parent

> <STRUCTURE_IUPAC>
ethyl 2-methylbenzoate

> <STRUCTURE_SMILES>
O=C(OCC)c1ccccc1C

> <STRUCTURE_SMILES_Desalt>
O=C(OCC)c1ccccc1C

> <Substance_modify_yyyymmdd>
20080429

$$$$
