87-28-5
ChemmineR-0915142007XD

 13 13  0  0  0  0  0  0  0  0  1 V2000
    2.2978   -1.9903    0.0000 C   0  0  0  0  0  0  0  0  0  0  0  0
    3.4547   -2.6457    0.0000 C   0  0  0  0  0  0  0  0  0  0  0  0
    2.2978   -0.6553    0.0000 C   0  0  0  0  0  0  0  0  0  0  0  0
    3.4547   -3.9806    0.0000 O   0  0  0  0  0  0  0  0  0  0  0  0
    4.6036   -1.9741    0.0000 O   0  0  0  0  0  0  0  0  0  0  0  0
    3.4547    0.0000    0.0000 O   0  0  0  0  0  0  0  0  0  0  0  0
    1.1570   -2.6457    0.0000 C   0  0  0  0  0  0  0  0  0  0  0  0
    8.0907   -2.5486    0.0000 O   0  0  0  0  0  0  0  0  0  0  0  0
    1.1570    0.0000    0.0000 C   0  0  0  0  0  0  0  0  0  0  0  0
    5.7767   -2.6295    0.0000 C   0  0  0  0  0  0  0  0  0  0  0  0
    6.9175   -1.9256    0.0000 C   0  0  0  0  0  0  0  0  0  0  0  0
    0.0000   -1.9741    0.0000 C   0  0  0  0  0  0  0  0  0  0  0  0
    0.0000   -0.6553    0.0000 C   0  0  0  0  0  0  0  0  0  0  0  0
  1  2  1  0  0  0  0
  1  3  1  0  0  0  0
  1  7  2  0  0  0  0
  2  4  2  0  0  0  0
  2  5  1  0  0  0  0
  3  6  1  0  0  0  0
  3  9  2  0  0  0  0
  5 10  1  0  0  0  0
  7 12  1  0  0  0  0
  8 11  1  0  0  0  0
  9 13  1  0  0  0  0
 10 11  1  0  0  0  0
 12 13  2  0  0  0  0
M  END
> <ID>
13974

> <Formula>
C9H10O4

> <FW>
182.1733

> <DSSTox_CID>
28913

> <DSSTox_RID>
83181

> <DSSTox_GSID>
48987

> <DSSTox_FileID_Sort>
7857

> <TS_ChemName>
2-Hydroxyethyl salicylate

> <TS_ChemName_Synonyms>


> <TS_CASRN>
87-28-5

> <CASRN_ChemName_Relationship>
primary

> <TS_Description>
single chemical compound

> <ChemNote>


> <STRUCTURE_Shown>
tested chemical

> <STRUCTURE_Formula>
C9H10O4

> <STRUCTURE_MW>
182.1733

> <STRUCTURE_ChemType>
defined organic

> <STRUCTURE_DefinedOrganicForm>
parent

> <STRUCTURE_IUPAC>
2-hydroxyethyl 2-hydroxybenzoate

> <STRUCTURE_SMILES>
Oc1ccccc1C(=O)OCCO

> <STRUCTURE_SMILES_Desalt>
Oc1ccccc1C(=O)OCCO

> <Substance_modify_yyyymmdd>
20111204

$$$$
