87-33-2
ChemmineR-0915142007XD

 18 19  0  0  1  0  0  0  0  0  2 V2000
    6.8419   -6.6217    0.0000 N   0  3  0  0  0  0  0  0  0  0  0  0
    0.9201   -1.3369    0.0000 N   0  3  0  0  0  0  0  0  0  0  0  0
    3.9478   -4.6320    0.0000 C   0  0  0  0  0  0  0  0  0  0  0  0
    3.9478   -3.3423    0.0000 C   0  0  0  0  0  0  0  0  0  0  0  0
    5.2061   -5.0803    0.0000 C   0  0  0  0  0  0  0  0  0  0  0  0
    2.7053   -2.9098    0.0000 C   0  0  0  0  0  0  0  0  0  0  0  0
    5.2061   -2.9098    0.0000 O   0  0  0  0  0  0  0  0  0  0  0  0
    2.7053   -5.0803    0.0000 O   0  0  0  0  0  0  0  0  0  0  0  0
    5.6072   -6.3228    0.0000 O   0  0  0  0  0  0  0  0  0  0  0  0
    2.3121   -1.6594    0.0000 O   0  0  0  0  0  0  0  0  0  0  0  0
    5.9532   -3.9793    0.0000 C   0  0  0  0  0  0  0  0  0  0  0  0
    1.9267   -3.9793    0.0000 C   0  0  0  0  0  0  0  0  0  0  0  0
    0.0000   -2.3435    0.0000 O   0  5  0  0  0  0  0  0  0  0  0  0
    7.3059   -7.8642    0.0000 O   0  5  0  0  0  0  0  0  0  0  0  0
    7.7699   -5.6701    0.0000 O   0  0  0  0  0  0  0  0  0  0  0  0
    0.5269    0.0000    0.0000 O   0  0  0  0  0  0  0  0  0  0  0  0
    3.9478   -2.0211    0.0000 H   0  0  0  0  0  0  0  0  0  0  0  0
    3.9478   -5.9532    0.0000 H   0  0  0  0  0  0  0  0  0  0  0  0
  1  9  1  0  0  0  0
  1 14  1  0  0  0  0
  1 15  2  0  0  0  0
  2 10  1  0  0  0  0
  2 13  1  0  0  0  0
  2 16  2  0  0  0  0
  3  5  1  0  0  0  0
  3  4  1  0  0  0  0
  3  8  1  0  0  0  0
  3 18  1  6  0  0  0
  4  6  1  0  0  0  0
  4 17  1  6  0  0  0
  4  7  1  0  0  0  0
  5  9  1  1  0  0  0
  5 11  1  0  0  0  0
  6 10  1  6  0  0  0
  6 12  1  0  0  0  0
  7 11  1  0  0  0  0
  8 12  1  0  0  0  0
M  END
> <ID>
11228

> <Formula>
C6H8N2O8

> <FW>
236.1363

> <DSSTox_CID>
25832

> <DSSTox_RID>
81160

> <DSSTox_GSID>
45832

> <DSSTox_FileID_Sort>
5841

> <TS_ChemName>
Isosorbide dinitrate

> <TS_ChemName_Synonyms>


> <TS_CASRN>
87-33-2

> <CASRN_ChemName_Relationship>
primary

> <TS_Description>
single chemical compound

> <ChemNote>
stereochem

> <STRUCTURE_Shown>
tested chemical

> <STRUCTURE_Formula>
C6H8N2O8

> <STRUCTURE_MW>
236.1363

> <STRUCTURE_ChemType>
defined organic

> <STRUCTURE_DefinedOrganicForm>
parent

> <STRUCTURE_IUPAC>
1,4:3,6-dianhydro-2,5-di-O-nitro-D-glucitol

> <STRUCTURE_SMILES>
[O-][N+](=O)O[C@H]1CO[C@@H]2[C@H](O[N+]([O-])=O)CO[C@H]12

> <STRUCTURE_SMILES_Desalt>
[O-][N+](=O)O[C@H]1CO[C@@H]2[C@H](O[N+]([O-])=O)CO[C@H]12

> <Substance_modify_yyyymmdd>
20110922

$$$$
