87-51-4
ChemmineR-0915142007XD

 13 14  0  0  0  0  0  0  0  0  1 V2000
    6.5598   -1.0587    0.0000 O   0  0  0  0  0  0  0  0  0  0  0  0
    6.2164   -2.3392    0.0000 C   0  0  0  0  0  0  0  0  0  0  0  0
    7.1535   -3.2835    0.0000 O   0  0  0  0  0  0  0  0  0  0  0  0
    4.9502   -2.7541    0.0000 C   0  0  0  0  0  0  0  0  0  0  0  0
    3.9631   -1.8599    0.0000 C   0  0  0  0  0  0  0  0  0  0  0  0
    4.0990   -0.5365    0.0000 C   0  0  0  0  0  0  0  0  0  0  0  0
    2.8829    0.0000    0.0000 N   0  0  0  0  0  0  0  0  0  0  0  0
    1.9958   -0.9872    0.0000 C   0  0  0  0  0  0  0  0  0  0  0  0
    2.6611   -2.1389    0.0000 C   0  0  0  0  0  0  0  0  0  0  0  0
    1.9958   -3.2906    0.0000 C   0  0  0  0  0  0  0  0  0  0  0  0
    0.6653   -3.2906    0.0000 C   0  0  0  0  0  0  0  0  0  0  0  0
    0.0000   -2.1389    0.0000 C   0  0  0  0  0  0  0  0  0  0  0  0
    0.6653   -0.9872    0.0000 C   0  0  0  0  0  0  0  0  0  0  0  0
  1  2  1  0  0  0  0
  2  3  2  0  0  0  0
  2  4  1  0  0  0  0
  4  5  1  0  0  0  0
  5  6  2  0  0  0  0
  5  9  1  0  0  0  0
  6  7  1  0  0  0  0
  7  8  1  0  0  0  0
  8  9  2  0  0  0  0
  8 13  1  0  0  0  0
  9 10  1  0  0  0  0
 10 11  2  0  0  0  0
 11 12  1  0  0  0  0
 12 13  2  0  0  0  0
M  END
> <ID>
708

> <Formula>
C10H9NO2

> <FW>
175.184

> <DSSTox_CID>
738

> <DSSTox_RID>
75762

> <DSSTox_GSID>
20738

> <DSSTox_FileID_Sort>
446

> <TS_ChemName>
Indole-3-acetic acid

> <TS_ChemName_Synonyms>
Indole-3-acetic acid (IAA) (auxin)

> <TS_CASRN>
87-51-4

> <CASRN_ChemName_Relationship>
primary

> <TS_Description>
single chemical compound

> <ChemNote>


> <STRUCTURE_Shown>
tested chemical

> <STRUCTURE_Formula>
C10H9NO2

> <STRUCTURE_MW>
175.184

> <STRUCTURE_ChemType>
defined organic

> <STRUCTURE_DefinedOrganicForm>
parent

> <STRUCTURE_IUPAC>
1H-indol-3-ylacetic acid

> <STRUCTURE_SMILES>
O=C(O)Cc2cnc1ccccc12

> <STRUCTURE_SMILES_Desalt>
O=C(O)Cc2cnc1ccccc12

> <Substance_modify_yyyymmdd>
20080429

$$$$
