87-62-7
ChemmineR-0915142007XD

  9  9  0  0  0  0  0  0  0  0  1 V2000
    0.0000   -2.3037    0.0000 N   0  0  0  0  0  0  0  0  0  0  0  0
    1.3315   -2.3037    0.0000 C   0  0  0  0  0  0  0  0  0  0  0  0
    1.9950   -1.1518    0.0000 C   0  0  0  0  0  0  0  0  0  0  0  0
    3.3265   -1.1518    0.0000 C   0  0  0  0  0  0  0  0  0  0  0  0
    3.9899   -2.3037    0.0000 C   0  0  0  0  0  0  0  0  0  0  0  0
    3.3265   -3.4555    0.0000 C   0  0  0  0  0  0  0  0  0  0  0  0
    1.3315    0.0000    0.0000 C   0  0  0  0  0  0  0  0  0  0  0  0
    1.9950   -3.4555    0.0000 C   0  0  0  0  0  0  0  0  0  0  0  0
    1.3315   -4.6073    0.0000 C   0  0  0  0  0  0  0  0  0  0  0  0
  1  2  1  0  0  0  0
  2  3  2  0  0  0  0
  2  8  1  0  0  0  0
  3  4  1  0  0  0  0
  3  7  1  0  0  0  0
  4  5  2  0  0  0  0
  5  6  1  0  0  0  0
  6  8  2  0  0  0  0
  8  9  1  0  0  0  0
M  END
> <ID>
4646

> <Formula>
C8H11N

> <FW>
121.1796

> <DSSTox_CID>
6307

> <DSSTox_RID>
78097

> <DSSTox_GSID>
26307

> <DSSTox_FileID_Sort>
2780

> <TS_ChemName>
2,6-Dimethylaniline

> <TS_ChemName_Synonyms>
2,6-Dimethylaniline (2,6-Xylidine)

> <TS_CASRN>
87-62-7

> <CASRN_ChemName_Relationship>
primary

> <TS_Description>
single chemical compound

> <ChemNote>


> <STRUCTURE_Shown>
tested chemical

> <STRUCTURE_Formula>
C8H11N

> <STRUCTURE_MW>
121.1796

> <STRUCTURE_ChemType>
defined organic

> <STRUCTURE_DefinedOrganicForm>
parent

> <STRUCTURE_IUPAC>
2,6-dimethylaniline

> <STRUCTURE_SMILES>
Cc1cccc(C)c1N

> <STRUCTURE_SMILES_Desalt>
Cc1cccc(C)c1N

> <Substance_modify_yyyymmdd>
20080429

$$$$
