87-81-0
ChemmineR-0915142007XD

 12 12  0  0  1  0  0  0  0  0  1 V2000
    2.0115    0.0000    0.0000 C   0  0  0  0  0  0  0  0  0  0  0  0
    3.3423    0.0000    0.0000 O   0  0  0  0  0  0  0  0  0  0  0  0
    1.3369   -1.1546    0.0000 C   0  0  0  0  0  0  0  0  0  0  0  0
    4.0047   -1.1546    0.0000 C   0  0  0  0  0  0  0  0  0  0  0  0
    2.0115   -2.3153    0.0000 C   0  0  0  0  0  0  0  0  0  0  0  0
    3.3423   -2.3153    0.0000 C   0  0  0  0  0  0  0  0  0  0  0  0
    4.8068   -0.0790    0.0000 C   0  0  0  0  0  0  0  0  0  0  0  0
    4.8555   -2.1816    0.0000 O   0  0  0  0  0  0  0  0  0  0  0  0
    4.0047   -3.4699    0.0000 O   0  0  0  0  0  0  0  0  0  0  0  0
    1.3369   -3.4699    0.0000 O   0  0  0  0  0  0  0  0  0  0  0  0
    0.0000   -1.1546    0.0000 O   0  0  0  0  0  0  0  0  0  0  0  0
    6.0769   -0.0486    0.0000 O   0  0  0  0  0  0  0  0  0  0  0  0
  1  2  1  0  0  0  0
  1  3  1  0  0  0  0
  2  4  1  0  0  0  0
  3  5  1  0  0  0  0
  3 11  1  6  0  0  0
  4  6  1  0  0  0  0
  4  7  1  1  0  0  0
  4  8  1  6  0  0  0
  5  6  1  0  0  0  0
  5 10  1  1  0  0  0
  6  9  1  1  0  0  0
  7 12  1  0  0  0  0
M  END
> <ID>
12972

> <Formula>
C6H12O6

> <FW>
180.1559

> <DSSTox_CID>
27873

> <DSSTox_RID>
82626

> <DSSTox_GSID>
47897

> <DSSTox_FileID_Sort>
7303

> <TS_ChemName>
D-Tagatose

> <TS_ChemName_Synonyms>


> <TS_CASRN>
87-81-0

> <CASRN_ChemName_Relationship>
primary

> <TS_Description>
single chemical compound

> <ChemNote>
stereochem

> <STRUCTURE_Shown>
tested chemical

> <STRUCTURE_Formula>
C6H12O6

> <STRUCTURE_MW>
180.1559

> <STRUCTURE_ChemType>
defined organic

> <STRUCTURE_DefinedOrganicForm>
parent

> <STRUCTURE_IUPAC>
alpha-D-tagatopyranose

> <STRUCTURE_SMILES>
O[C@H]1[C@@H](O)[C@H](O)CO[C@@]1(O)CO

> <STRUCTURE_SMILES_Desalt>
O[C@H]1[C@@H](O)[C@H](O)CO[C@@]1(O)CO

> <Substance_modify_yyyymmdd>
20110419

$$$$
