87-90-1
ChemmineR-0915142007XD

 12 12  0  0  0  0  0  0  0  0  1 V2000
    3.3411   -1.1638    0.0000 N    0  0  0  0  0  0  0  0  0  0  0  0
    4.0276   -2.3115    0.0000 C    0  0  0  0  0  0  0  0  0  0  0  0
    3.3411   -3.4538    0.0000 N    0  0  0  0  0  0  0  0  0  0  0  0
    2.0219   -3.4538    0.0000 C    0  0  0  0  0  0  0  0  0  0  0  0
    1.3032   -2.3115    0.0000 N    0  0  0  0  0  0  0  0  0  0  0  0
    2.0219   -1.1638    0.0000 C    0  0  0  0  0  0  0  0  0  0  0  0
    5.3630   -2.3115    0.0000 O    0  0  0  0  0  0  0  0  0  0  0  0
    1.3837   -4.6175    0.0000 O    0  0  0  0  0  0  0  0  0  0  0  0
    1.3837    0.0000    0.0000 O    0  0  0  0  0  0  0  0  0  0  0  0
    3.9793    0.0000    0.0000 Cl   0  0  0  0  0  0  0  0  0  0  0  0
    3.9793   -4.6175    0.0000 Cl   0  0  0  0  0  0  0  0  0  0  0  0
    0.0000   -2.3115    0.0000 Cl   0  0  0  0  0  0  0  0  0  0  0  0
  1  2  1  0  0  0  0
  1  6  1  0  0  0  0
  1 10  1  0  0  0  0
  2  3  1  0  0  0  0
  2  7  2  0  0  0  0
  3  4  1  0  0  0  0
  3 11  1  0  0  0  0
  4  5  1  0  0  0  0
  4  8  2  0  0  0  0
  5  6  1  0  0  0  0
  5 12  1  0  0  0  0
  6  9  2  0  0  0  0
M  END
> <ID>
4709

> <Formula>
C3Cl3N3O3

> <FW>
232.4094

> <DSSTox_CID>
6523

> <DSSTox_RID>
78135

> <DSSTox_GSID>
26523

> <DSSTox_FileID_Sort>
2818

> <TS_ChemName>
Symclosene

> <TS_ChemName_Synonyms>
Symclosene (Trichloro-s-triazinetrione) (1,3,5-Triazine-2,4,6(1H,3H,5H)-trione, 1,3,5-trichloro-)

> <TS_CASRN>
87-90-1

> <CASRN_ChemName_Relationship>
primary

> <TS_Description>
single chemical compound

> <ChemNote>


> <STRUCTURE_Shown>
tested chemical

> <STRUCTURE_Formula>
C3Cl3N3O3

> <STRUCTURE_MW>
232.4094

> <STRUCTURE_ChemType>
defined organic

> <STRUCTURE_DefinedOrganicForm>
parent

> <STRUCTURE_IUPAC>
1,3,5-trichloro-1,3,5-triazinane-2,4,6-trione

> <STRUCTURE_SMILES>
ClN1C(=O)N(Cl)C(=O)N(Cl)C1=O

> <STRUCTURE_SMILES_Desalt>
ClN1C(=O)N(Cl)C(=O)N(Cl)C1=O

> <Substance_modify_yyyymmdd>
20080429

$$$$
