87-99-0
ChemmineR-0915142007XD

 10  9  0  0  1  0  0  0  0  0  1 V2000
    1.3788   -0.9215    0.0000 C   0  0  0  0  0  0  0  0  0  0  0  0
    2.0478   -2.1024    0.0000 C   0  0  0  0  0  0  0  0  0  0  0  0
    1.3652   -3.2833    0.0000 C   0  0  0  0  0  0  0  0  0  0  0  0
    2.0341   -4.4641    0.0000 C   0  0  0  0  0  0  0  0  0  0  0  0
    1.3447   -5.6450    0.0000 C   0  0  0  0  0  0  0  0  0  0  0  0
    1.9181    0.0000    0.0000 O   0  0  0  0  0  0  0  0  0  0  0  0
    3.4129   -2.1365    0.0000 O   0  0  0  0  0  0  0  0  0  0  0  0
    0.0000   -3.2833    0.0000 O   0  0  0  0  0  0  0  0  0  0  0  0
    3.3993   -4.4778    0.0000 O   0  0  0  0  0  0  0  0  0  0  0  0
    2.0205   -6.8259    0.0000 O   0  0  0  0  0  0  0  0  0  0  0  0
  1  2  1  0  0  0  0
  1  6  1  0  0  0  0
  2  3  1  0  0  0  0
  2  7  1  6  0  0  0
  3  4  1  0  0  0  0
  3  8  1  6  0  0  0
  4  5  1  0  0  0  0
  4  9  1  6  0  0  0
  5 10  1  0  0  0  0
M  END
> <ID>
9420

> <Formula>
C5H12O5

> <FW>
152.1458

> <DSSTox_CID>
22514

> <DSSTox_RID>
80046

> <DSSTox_GSID>
42514

> <DSSTox_FileID_Sort>
4728

> <TS_ChemName>
Xylitol

> <TS_ChemName_Synonyms>


> <TS_CASRN>
87-99-0

> <CASRN_ChemName_Relationship>
primary

> <TS_Description>
single chemical compound

> <ChemNote>
stereochem

> <STRUCTURE_Shown>
tested chemical

> <STRUCTURE_Formula>
C5H12O5

> <STRUCTURE_MW>
152.1458

> <STRUCTURE_ChemType>
defined organic

> <STRUCTURE_DefinedOrganicForm>
parent

> <STRUCTURE_IUPAC>
D-xylitol

> <STRUCTURE_SMILES>
O[C@H](CO)[C@H](O)[C@@H](O)CO

> <STRUCTURE_SMILES_Desalt>
O[C@H](CO)[C@H](O)[C@@H](O)CO

> <Substance_modify_yyyymmdd>
20080825

$$$$
