87051-43-2
ChemmineR-0915142007XD

 34 38  0  0  0  0  0  0  0  0  1 V2000
   11.2956   -4.6549    0.0000 C   0  0  0  0  0  0  0  0  0  0  0  0
   10.1200   -3.9876    0.0000 C   0  0  0  0  0  0  0  0  0  0  0  0
   12.4395   -3.9876    0.0000 C   0  0  0  0  0  0  0  0  0  0  0  0
   11.2956   -5.9894    0.0000 C   0  0  0  0  0  0  0  0  0  0  0  0
    8.9761   -4.6549    0.0000 C   0  0  0  0  0  0  0  0  0  0  0  0
   10.1200   -2.6531    0.0000 C   0  0  0  0  0  0  0  0  0  0  0  0
   12.4395   -2.6531    0.0000 C   0  0  0  0  0  0  0  0  0  0  0  0
   13.5674   -4.6549    0.0000 C   0  0  0  0  0  0  0  0  0  0  0  0
   12.4395   -6.6407    0.0000 C   0  0  0  0  0  0  0  0  0  0  0  0
   10.1200   -6.6407    0.0000 C   0  0  0  0  0  0  0  0  0  0  0  0
    7.8164   -3.9876    0.0000 C   0  0  0  0  0  0  0  0  0  0  0  0
    8.9761   -2.0018    0.0000 C   0  0  0  0  0  0  0  0  0  0  0  0
   13.5674   -2.0018    0.0000 C   0  0  0  0  0  0  0  0  0  0  0  0
   14.7272   -3.9876    0.0000 C   0  0  0  0  0  0  0  0  0  0  0  0
   12.4395   -7.9752    0.0000 C   0  0  0  0  0  0  0  0  0  0  0  0
   10.1200   -7.9752    0.0000 C   0  0  0  0  0  0  0  0  0  0  0  0
    7.8164   -2.6531    0.0000 N   0  0  0  0  0  0  0  0  0  0  0  0
   14.7272   -2.6531    0.0000 C   0  0  0  0  0  0  0  0  0  0  0  0
   11.2956   -8.6425    0.0000 C   0  0  0  0  0  0  0  0  0  0  0  0
    6.6566   -2.0018    0.0000 C   0  0  0  0  0  0  0  0  0  0  0  0
   15.8869   -2.0018    0.0000 F   0  0  0  0  0  0  0  0  0  0  0  0
   11.2956   -9.9770    0.0000 F   0  0  0  0  0  0  0  0  0  0  0  0
    5.4969   -2.6531    0.0000 C   0  0  0  0  0  0  0  0  0  0  0  0
    4.3689   -2.0018    0.0000 C   0  0  0  0  0  0  0  0  0  0  0  0
    3.2092   -2.6531    0.0000 C   0  0  0  0  0  0  0  0  0  0  0  0
    4.3689   -0.6673    0.0000 C   0  0  0  0  0  0  0  0  0  0  0  0
    2.0494   -2.0018    0.0000 N   0  0  0  0  0  0  0  0  0  0  0  0
    3.2092   -3.9876    0.0000 O   0  0  0  0  0  0  0  0  0  0  0  0
    3.2092    0.0000    0.0000 N   0  0  0  0  0  0  0  0  0  0  0  0
    5.4969    0.0000    0.0000 C   0  0  0  0  0  0  0  0  0  0  0  0
    2.0494   -0.6673    0.0000 C   0  0  0  0  0  0  0  0  0  0  0  0
    0.7785   -2.4148    0.0000 C   0  0  0  0  0  0  0  0  0  0  0  0
    0.7785   -0.2701    0.0000 S   0  0  0  0  0  0  0  0  0  0  0  0
    0.0000   -1.3186    0.0000 C   0  0  0  0  0  0  0  0  0  0  0  0
  1  2  2  0  0  0  0
  1  3  1  0  0  0  0
  1  4  1  0  0  0  0
  2  5  1  0  0  0  0
  2  6  1  0  0  0  0
  3  7  1  0  0  0  0
  3  8  2  0  0  0  0
  4  9  2  0  0  0  0
  4 10  1  0  0  0  0
  5 11  1  0  0  0  0
  6 12  1  0  0  0  0
  7 13  2  0  0  0  0
  8 14  1  0  0  0  0
  9 15  1  0  0  0  0
 10 16  2  0  0  0  0
 11 17  1  0  0  0  0
 12 17  1  0  0  0  0
 13 18  1  0  0  0  0
 14 18  2  0  0  0  0
 15 19  2  0  0  0  0
 16 19  1  0  0  0  0
 17 20  1  0  0  0  0
 18 21  1  0  0  0  0
 19 22  1  0  0  0  0
 20 23  1  0  0  0  0
 23 24  1  0  0  0  0
 24 25  1  0  0  0  0
 24 26  2  0  0  0  0
 25 27  1  0  0  0  0
 25 28  2  0  0  0  0
 26 29  1  0  0  0  0
 26 30  1  0  0  0  0
 27 31  1  0  0  0  0
 27 32  1  0  0  0  0
 29 31  2  0  0  0  0
 31 33  1  0  0  0  0
 32 34  2  0  0  0  0
 33 34  1  0  0  0  0
M  END
> <ID>
9465

> <Formula>
C27H25F2N3OS

> <FW>
477.5687

> <DSSTox_CID>
22594

> <DSSTox_RID>
80055

> <DSSTox_GSID>
42594

> <DSSTox_FileID_Sort>
4737

> <TS_ChemName>
Ritanserin

> <TS_ChemName_Synonyms>


> <TS_CASRN>
87051-43-2

> <CASRN_ChemName_Relationship>
primary

> <TS_Description>
single chemical compound

> <ChemNote>


> <STRUCTURE_Shown>
tested chemical

> <STRUCTURE_Formula>
C27H25F2N3OS

> <STRUCTURE_MW>
477.5687

> <STRUCTURE_ChemType>
defined organic

> <STRUCTURE_DefinedOrganicForm>
parent

> <STRUCTURE_IUPAC>
6-(2-{4-[bis(4-fluorophenyl)methylidene]piperidin-1-yl}ethyl)-7-methyl-5H-[1,3]thiazolo[3,2-a]pyrimidin-5-one

> <STRUCTURE_SMILES>
Fc1ccc(cc1)/C(c2ccc(F)cc2)=C3/CCN(CC3)CCC4=C(C)N=C5SC=CN5C4=O

> <STRUCTURE_SMILES_Desalt>
Fc1ccc(cc1)/C(c2ccc(F)cc2)=C3/CCN(CC3)CCC4=C(C)N=C5SC=CN5C4=O

> <Substance_modify_yyyymmdd>
20081003

$$$$
