87130-20-9
ChemmineR-0915142007XD

 19 19  0  0  0  0  0  0  0  0  1 V2000
    4.6154   -4.0035    0.0000 C   0  0  0  0  0  0  0  0  0  0  0  0
    4.6154   -5.3414    0.0000 C   0  0  0  0  0  0  0  0  0  0  0  0
    3.4641   -3.3293    0.0000 C   0  0  0  0  0  0  0  0  0  0  0  0
    3.4641   -5.9948    0.0000 C   0  0  0  0  0  0  0  0  0  0  0  0
    2.3129   -4.0035    0.0000 C   0  0  0  0  0  0  0  0  0  0  0  0
    2.3129   -5.3414    0.0000 C   0  0  0  0  0  0  0  0  0  0  0  0
    3.4641   -2.0017    0.0000 O   0  0  0  0  0  0  0  0  0  0  0  0
    4.6154   -1.3276    0.0000 C   0  0  0  0  0  0  0  0  0  0  0  0
    4.6154    0.0000    0.0000 C   0  0  0  0  0  0  0  0  0  0  0  0
    1.1513   -3.3293    0.0000 O   0  0  0  0  0  0  0  0  0  0  0  0
    1.1513   -2.0017    0.0000 C   0  0  0  0  0  0  0  0  0  0  0  0
    0.0000   -1.3483    0.0000 C   0  0  0  0  0  0  0  0  0  0  0  0
    5.7666   -5.9948    0.0000 N   0  0  0  0  0  0  0  0  0  0  0  0
    6.9283   -5.3414    0.0000 C   0  0  0  0  0  0  0  0  0  0  0  0
    8.0795   -5.9948    0.0000 O   0  0  0  0  0  0  0  0  0  0  0  0
    6.9283   -4.0035    0.0000 O   0  0  0  0  0  0  0  0  0  0  0  0
    9.2204   -5.3414    0.0000 C   0  0  0  0  0  0  0  0  0  0  0  0
   10.3717   -5.9948    0.0000 C   0  0  0  0  0  0  0  0  0  0  0  0
    9.2204   -4.0035    0.0000 C   0  0  0  0  0  0  0  0  0  0  0  0
  1  2  1  0  0  0  0
  1  3  2  0  0  0  0
  2  4  2  0  0  0  0
  2 13  1  0  0  0  0
  3  5  1  0  0  0  0
  3  7  1  0  0  0  0
  4  6  1  0  0  0  0
  5  6  2  0  0  0  0
  5 10  1  0  0  0  0
  7  8  1  0  0  0  0
  8  9  1  0  0  0  0
 10 11  1  0  0  0  0
 11 12  1  0  0  0  0
 13 14  1  0  0  0  0
 14 15  1  0  0  0  0
 14 16  2  0  0  0  0
 15 17  1  0  0  0  0
 17 18  1  0  0  0  0
 17 19  1  0  0  0  0
M  END
> <ID>
7321

> <Formula>
C14H21NO4

> <FW>
267.3208

> <DSSTox_CID>
17527

> <DSSTox_RID>
79330

> <DSSTox_GSID>
37527

> <DSSTox_FileID_Sort>
4012

> <TS_ChemName>
Diethofencarb

> <TS_ChemName_Synonyms>


> <TS_CASRN>
87130-20-9

> <CASRN_ChemName_Relationship>
primary

> <TS_Description>
single chemical compound

> <ChemNote>


> <STRUCTURE_Shown>
tested chemical

> <STRUCTURE_Formula>
C14H21NO4

> <STRUCTURE_MW>
267.3208

> <STRUCTURE_ChemType>
defined organic

> <STRUCTURE_DefinedOrganicForm>
parent

> <STRUCTURE_IUPAC>
propan-2-yl (3,4-diethoxyphenyl)carbamate

> <STRUCTURE_SMILES>
CCOc1cc(ccc1OCC)NC(=O)OC(C)C

> <STRUCTURE_SMILES_Desalt>
CCOc1cc(ccc1OCC)NC(=O)OC(C)C

> <Substance_modify_yyyymmdd>
20080429

$$$$
