87151-85-7
ChemmineR-0915142007XD

 28 31  0  0  1  0  0  0  0  0  1 V2000
   10.0410   -3.2738    0.0000 C    0  0  0  0  0  0  0  0  0  0  0  0
    9.3818   -4.4273    0.0000 C    0  0  0  0  0  0  0  0  0  0  0  0
    8.0526   -4.4053    0.0000 C    0  0  0  0  0  0  0  0  0  0  0  0
    6.8991   -5.0864    0.0000 N    0  0  0  0  0  0  0  0  0  0  0  0
    5.7565   -4.4053    0.0000 C    0  0  0  0  0  0  0  0  0  0  0  0
    4.6030   -5.0864    0.0000 C    0  0  0  0  0  0  0  0  0  0  0  0
    3.4495   -4.4273    0.0000 C    0  0  0  0  0  0  0  0  0  0  0  0
    2.3070   -5.0864    0.0000 C    0  0  0  0  0  0  0  0  0  0  0  0
    1.1535   -4.4273    0.0000 C    0  0  0  0  0  0  0  0  0  0  0  0
    1.1535   -3.0980    0.0000 C    0  0  0  0  0  0  0  0  0  0  0  0
    0.0000   -2.4169    0.0000 Cl   0  0  0  0  0  0  0  0  0  0  0  0
    2.3070   -2.4169    0.0000 C    0  0  0  0  0  0  0  0  0  0  0  0
    3.4495   -3.0980    0.0000 C    0  0  0  0  0  0  0  0  0  0  0  0
    0.0000   -5.0864    0.0000 Cl   0  0  0  0  0  0  0  0  0  0  0  0
    5.7565   -3.0760    0.0000 O    0  0  0  0  0  0  0  0  0  0  0  0
    6.8991   -6.4157    0.0000 C    0  0  0  0  0  0  0  0  0  0  0  0
    7.3824   -3.2738    0.0000 C    0  0  0  0  0  0  0  0  0  0  0  0
    8.0526   -2.1203    0.0000 C    0  0  0  0  0  0  0  0  0  0  0  0
    9.3818   -2.1203    0.0000 C    0  0  0  0  0  0  0  0  0  0  0  0
   10.7001   -1.9774    0.0000 O    0  0  0  0  0  0  0  0  0  0  0  0
   10.9858   -0.6701    0.0000 C    0  0  0  0  0  0  0  0  0  0  0  0
    9.8323    0.0000    0.0000 C    0  0  0  0  0  0  0  0  0  0  0  0
    8.8326   -0.9008    0.0000 C    0  0  0  0  0  0  0  0  0  0  0  0
    9.3818   -5.7456    0.0000 N    0  0  0  0  0  0  0  0  0  0  0  0
   10.4585   -6.5255    0.0000 C    0  0  0  0  0  0  0  0  0  0  0  0
   10.0520   -7.7779    0.0000 C    0  0  0  0  0  0  0  0  0  0  0  0
    8.7227   -7.7779    0.0000 C    0  0  0  0  0  0  0  0  0  0  0  0
    8.3052   -6.5255    0.0000 C    0  0  0  0  0  0  0  0  0  0  0  0
  1  2  1  0  0  0  0
  1 19  1  0  0  0  0
  2  3  1  0  0  0  0
  2 24  1  6  0  0  0
  3  4  1  1  0  0  0
  3 17  1  0  0  0  0
  4  5  1  0  0  0  0
  4 16  1  0  0  0  0
  5  6  1  0  0  0  0
  5 15  2  0  0  0  0
  6  7  1  0  0  0  0
  7  8  1  0  0  0  0
  7 13  2  0  0  0  0
  8  9  2  0  0  0  0
  9 10  1  0  0  0  0
  9 14  1  0  0  0  0
 10 11  1  0  0  0  0
 10 12  2  0  0  0  0
 12 13  1  0  0  0  0
 17 18  1  0  0  0  0
 18 19  1  0  0  0  0
 19 20  1  6  0  0  0
 19 23  1  1  0  0  0
 20 21  1  0  0  0  0
 21 22  1  0  0  0  0
 22 23  1  0  0  0  0
 24 25  1  0  0  0  0
 24 28  1  0  0  0  0
 25 26  1  0  0  0  0
 26 27  1  0  0  0  0
 27 28  1  0  0  0  0
M  END
> <ID>
13673

> <Formula>
C22H30Cl2N2O2

> <FW>
425.3918

> <DSSTox_CID>
28605

> <DSSTox_RID>
82875

> <DSSTox_GSID>
48679

> <DSSTox_FileID_Sort>
7552

> <TS_ChemName>
Spiradoline

> <TS_ChemName_Synonyms>
U-62066

> <TS_CASRN>
87151-85-7

> <CASRN_ChemName_Relationship>
primary

> <TS_Description>
single chemical compound

> <ChemNote>
stereochem

> <STRUCTURE_Shown>
tested chemical

> <STRUCTURE_Formula>
C22H30Cl2N2O2

> <STRUCTURE_MW>
425.3918

> <STRUCTURE_ChemType>
defined organic

> <STRUCTURE_DefinedOrganicForm>
parent

> <STRUCTURE_IUPAC>
2-(3,4-dichlorophenyl)-N-methyl-N-[(5R,7S,8S)-7-(pyrrolidin-1-yl)-1-oxaspiro[4.5]dec-8-yl]acetamide

> <STRUCTURE_SMILES>
Clc1ccc(cc1Cl)CC(=O)N(C)[C@H]2CC[C@]4(C[C@@H]2N3CCCC3)CCCO4

> <STRUCTURE_SMILES_Desalt>
Clc1ccc(cc1Cl)CC(=O)N(C)[C@H]2CC[C@]4(C[C@@H]2N3CCCC3)CCCO4

> <Substance_modify_yyyymmdd>
20111204

$$$$
