872-90-2
ChemmineR-0915142007XD

  9  8  0  0  0  0  0  0  0  0  2 V2000
    3.3380   -4.6071    0.0000 C   0  0  0  0  0  0  0  0  0  0  0  0
    2.6715   -3.4554    0.0000 C   0  0  0  0  0  0  0  0  0  0  0  0
    4.6658    0.0000    0.0000 C   0  0  0  0  0  0  0  0  0  0  0  0
    3.3380    0.0000    0.0000 C   0  0  0  0  0  0  0  0  0  0  0  0
    5.3323   -1.1518    0.0000 C   0  0  0  0  0  0  0  0  0  0  0  0
    2.6715   -1.1518    0.0000 C   0  0  0  0  0  0  0  0  0  0  0  0
    4.6658   -2.3036    0.0000 C   0  0  0  0  0  0  0  0  0  0  0  0
    3.3380   -2.3036    0.0000 N   0  3  0  0  0  0  0  0  0  0  0  0
    0.0000   -1.1518    0.0000 I   0  5  0  0  0  0  0  0  0  0  0  0
  1  2  1  0  0  0  0
  2  8  1  0  0  0  0
  3  4  2  0  0  0  0
  3  5  1  0  0  0  0
  4  6  1  0  0  0  0
  5  7  2  0  0  0  0
  6  8  2  0  0  0  0
  7  8  1  0  0  0  0
M  END
> <ID>
14228

> <Formula>
C7H10IN

> <FW>
235.0655 (108.1605+126.9050)

> <DSSTox_CID>
29323

> <DSSTox_RID>
83439

> <DSSTox_GSID>
49364

> <DSSTox_FileID_Sort>
8114

> <TS_ChemName>
1-Ethylpyridinium iodide

> <TS_ChemName_Synonyms>


> <TS_CASRN>
872-90-2

> <CASRN_ChemName_Relationship>
primary

> <TS_Description>
single chemical compound

> <ChemNote>


> <STRUCTURE_Shown>
tested chemical

> <STRUCTURE_Formula>
C7H10IN

> <STRUCTURE_MW>
235.0655

> <STRUCTURE_ChemType>
defined organic

> <STRUCTURE_DefinedOrganicForm>
salt

> <STRUCTURE_IUPAC>
1-ethylpyridinium iodide

> <STRUCTURE_SMILES>
[I-].CC[n+]1ccccc1

> <STRUCTURE_SMILES_Desalt>
CC[n+]1ccccc1

> <Substance_modify_yyyymmdd>
20111204

$$$$
