87233-62-3
ChemmineR-0915142007XD

 42 42  0  0  0  0  0  0  0  0  1 V2000
    8.3400   -8.3245    0.0000 C   0  0  0  0  0  0  0  0  0  0  0  0
    8.7578   -7.0557    0.0000 C   0  0  0  0  0  0  0  0  0  0  0  0
    7.8604   -6.0655    0.0000 O   0  0  0  0  0  0  0  0  0  0  0  0
    8.2781   -4.8121    0.0000 C   0  0  0  0  0  0  0  0  0  0  0  0
    7.3807   -3.8219    0.0000 C   0  0  0  0  0  0  0  0  0  0  0  0
    7.7985   -2.5531    0.0000 N   0  0  0  0  0  0  0  0  0  0  0  0
    9.0518   -2.1662    0.0000 C   0  0  0  0  0  0  0  0  0  0  0  0
    9.0518   -0.8355    0.0000 C   0  0  0  0  0  0  0  0  0  0  0  0
   10.1968   -0.1702    0.0000 C   0  0  0  0  0  0  0  0  0  0  0  0
   11.3418   -0.8355    0.0000 C   0  0  0  0  0  0  0  0  0  0  0  0
   11.3418   -2.1662    0.0000 C   0  0  0  0  0  0  0  0  0  0  0  0
   10.1968   -2.8161    0.0000 C   0  0  0  0  0  0  0  0  0  0  0  0
    7.7985   -0.4178    0.0000 N   0  0  0  0  0  0  0  0  0  0  0  0
    7.0093   -1.4854    0.0000 C   0  0  0  0  0  0  0  0  0  0  0  0
    5.6786   -1.4854    0.0000 N   0  0  0  0  0  0  0  0  0  0  0  0
    5.1061   -2.6923    0.0000 C   0  0  0  0  0  0  0  0  0  0  0  0
    3.8219   -2.9863    0.0000 C   0  0  0  0  0  0  0  0  0  0  0  0
    2.7852   -2.1662    0.0000 C   0  0  0  0  0  0  0  0  0  0  0  0
    2.7852   -0.8355    0.0000 N   0  0  0  0  0  0  0  0  0  0  0  0
    1.5783   -0.2630    0.0000 C   0  0  0  0  0  0  0  0  0  0  0  0
    3.8219    0.0000    0.0000 C   0  0  0  0  0  0  0  0  0  0  0  0
    5.1061   -0.2940    0.0000 C   0  0  0  0  0  0  0  0  0  0  0  0
   10.8776   -5.7405    0.0000 C   0  0  0  0  0  0  0  0  0  0  0  0
   14.3281   -5.0597    0.0000 C   0  0  0  0  0  0  0  0  0  0  0  0
   12.0226   -5.0597    0.0000 C   0  0  0  0  0  0  0  0  0  0  0  0
   13.1676   -5.7405    0.0000 C   0  0  0  0  0  0  0  0  0  0  0  0
   10.8776   -7.0867    0.0000 O   0  0  0  0  0  0  0  0  0  0  0  0
   14.3281   -3.7290    0.0000 O   0  0  0  0  0  0  0  0  0  0  0  0
    9.7171   -5.0597    0.0000 O   0  0  0  0  0  0  0  0  0  0  0  0
   15.4731   -5.7405    0.0000 O   0  0  0  0  0  0  0  0  0  0  0  0
   13.1676   -7.0867    0.0000 H   0  0  0  0  0  0  0  0  0  0  0  0
   12.0226   -3.7445    0.0000 H   0  0  0  0  0  0  0  0  0  0  0  0
    1.1450   -6.1428    0.0000 C   0  0  0  0  0  0  0  0  0  0  0  0
    4.5955   -5.4620    0.0000 C   0  0  0  0  0  0  0  0  0  0  0  0
    2.3055   -5.4620    0.0000 C   0  0  0  0  0  0  0  0  0  0  0  0
    3.4505   -6.1428    0.0000 C   0  0  0  0  0  0  0  0  0  0  0  0
    1.1450   -7.4735    0.0000 O   0  0  0  0  0  0  0  0  0  0  0  0
    4.5955   -4.1313    0.0000 O   0  0  0  0  0  0  0  0  0  0  0  0
    0.0000   -5.4620    0.0000 O   0  0  0  0  0  0  0  0  0  0  0  0
    5.7560   -6.1428    0.0000 O   0  0  0  0  0  0  0  0  0  0  0  0
    3.4505   -7.4735    0.0000 H   0  0  0  0  0  0  0  0  0  0  0  0
    2.3055   -4.1468    0.0000 H   0  0  0  0  0  0  0  0  0  0  0  0
  1  2  1  0  0  0  0
  2  3  1  0  0  0  0
  3  4  1  0  0  0  0
  4  5  1  0  0  0  0
  5  6  1  0  0  0  0
  6  7  1  0  0  0  0
  6 14  1  0  0  0  0
  7  8  2  0  0  0  0
  7 12  1  0  0  0  0
  8  9  1  0  0  0  0
  8 13  1  0  0  0  0
  9 10  2  0  0  0  0
 10 11  1  0  0  0  0
 11 12  2  0  0  0  0
 13 14  2  0  0  0  0
 14 15  1  0  0  0  0
 15 16  1  0  0  0  0
 15 22  1  0  0  0  0
 16 17  1  0  0  0  0
 17 18  1  0  0  0  0
 18 19  1  0  0  0  0
 19 20  1  0  0  0  0
 19 21  1  0  0  0  0
 21 22  1  0  0  0  0
 23 25  1  0  0  0  0
 23 27  2  0  0  0  0
 23 29  1  0  0  0  0
 24 26  1  0  0  0  0
 24 28  2  0  0  0  0
 24 30  1  0  0  0  0
 25 26  2  0  0  0  0
 25 32  1  0  0  0  0
 26 31  1  0  0  0  0
 33 35  1  0  0  0  0
 33 37  2  0  0  0  0
 33 39  1  0  0  0  0
 34 36  1  0  0  0  0
 34 38  2  0  0  0  0
 34 40  1  0  0  0  0
 35 36  2  0  0  0  0
 35 42  1  0  0  0  0
 36 41  1  0  0  0  0
M  END
> <ID>
12071

> <Formula>
C25H34N4O9

> <FW>
534.5589 (302.4145+116.0722+116.0722)

> <DSSTox_CID>
26911

> <DSSTox_RID>
82009

> <DSSTox_GSID>
46911

> <DSSTox_FileID_Sort>
6690

> <TS_ChemName>
Emedastine difumarate

> <TS_ChemName_Synonyms>


> <TS_CASRN>
87233-62-3

> <CASRN_ChemName_Relationship>
primary

> <TS_Description>
single chemical compound

> <ChemNote>
parent [87233-61-2]

> <STRUCTURE_Shown>
tested chemical

> <STRUCTURE_Formula>
C25H34N4O9

> <STRUCTURE_MW>
534.5589

> <STRUCTURE_ChemType>
defined organic

> <STRUCTURE_DefinedOrganicForm>
complex

> <STRUCTURE_IUPAC>
1-(2-ethoxyethyl)-2-(4-methyl-1,4-diazepan-1-yl)-1H-benzimidazole (2E)-but-2-enedioate (1:2)

> <STRUCTURE_SMILES>
CN1CCCN(CC1)c3nc2ccccc2n3CCOCC.O=C(O)\C=C\C(=O)O.O=C(O)\C=C\C(=O)O

> <STRUCTURE_SMILES_Desalt>
CN1CCCN(CC1)c3nc2ccccc2n3CCOCC

> <Substance_modify_yyyymmdd>
20110725

$$$$
