87248-13-3
ChemmineR-0915142007XD

 36 38  0  0  1  0  0  0  0  0  1 V2000
    3.3691   -2.9845    0.0000 C    0  0  0  0  0  0  0  0  0  0  0  0
    4.6460   -3.3845    0.0000 C    0  0  0  0  0  0  0  0  0  0  0  0
    2.3076   -3.7691    0.0000 N    0  0  0  0  0  0  0  0  0  0  0  0
    3.3691   -1.6461    0.0000 C    0  0  0  0  0  0  0  0  0  0  0  0
    5.4152   -2.3076    0.0000 C    0  0  0  0  0  0  0  0  0  0  0  0
    5.3537   -4.5998    0.0000 C    0  0  0  0  0  0  0  0  0  0  0  0
    1.1538   -3.0922    0.0000 C    0  0  0  0  0  0  0  0  0  0  0  0
    2.3076   -5.0921    0.0000 C    0  0  0  0  0  0  0  0  0  0  0  0
    4.6460   -1.2307    0.0000 C    0  0  0  0  0  0  0  0  0  0  0  0
    2.3076   -0.8615    0.0000 O    0  0  0  0  0  0  0  0  0  0  0  0
    6.7382   -2.3076    0.0000 O    0  0  0  0  0  0  0  0  0  0  0  0
    6.6767   -4.5998    0.0000 C    0  0  0  0  0  0  0  0  0  0  0  0
    0.0000   -3.7691    0.0000 C    0  0  0  0  0  0  0  0  0  0  0  0
    1.1538   -5.7383    0.0000 C    0  0  0  0  0  0  0  0  0  0  0  0
    7.4151   -1.1692    0.0000 C    0  0  0  0  0  0  0  0  0  0  0  0
    7.3382   -5.7536    0.0000 C    0  0  0  0  0  0  0  0  0  0  0  0
    0.0000   -5.0921    0.0000 C    0  0  0  0  0  0  0  0  0  0  0  0
    8.7382   -1.1692    0.0000 C    0  0  0  0  0  0  0  0  0  0  0  0
    8.6612   -5.7536    0.0000 C    0  0  0  0  0  0  0  0  0  0  0  0
    9.3997   -2.3076    0.0000 C    0  0  0  0  0  0  0  0  0  0  0  0
    9.3997    0.0000    0.0000 C    0  0  0  0  0  0  0  0  0  0  0  0
    9.3381   -4.5998    0.0000 C    0  0  0  0  0  0  0  0  0  0  0  0
   10.7227   -2.3076    0.0000 C    0  0  0  0  0  0  0  0  0  0  0  0
   10.7227    0.0000    0.0000 C    0  0  0  0  0  0  0  0  0  0  0  0
   10.6612   -4.5998    0.0000 C    0  0  0  0  0  0  0  0  0  0  0  0
   11.3996   -1.1692    0.0000 C    0  0  0  0  0  0  0  0  0  0  0  0
   11.3227   -5.7536    0.0000 C    0  0  0  0  0  0  0  0  0  0  0  0
   12.7226   -1.1692    0.0000 C    0  0  0  0  0  0  0  0  0  0  0  0
   12.6457   -5.7536    0.0000 O    0  0  0  0  0  0  0  0  0  0  0  0
   10.6612   -6.9075    0.0000 O    0  0  0  0  0  0  0  0  0  0  0  0
   13.3842   -2.3076    0.0000 C    0  0  0  0  0  0  0  0  0  0  0  0
   13.3842    0.0000    0.0000 C    0  0  0  0  0  0  0  0  0  0  0  0
   14.6918   -2.3076    0.0000 C    0  0  0  0  0  0  0  0  0  0  0  0
   14.6918    0.0000    0.0000 C    0  0  0  0  0  0  0  0  0  0  0  0
   15.3841   -1.1692    0.0000 C    0  0  0  0  0  0  0  0  0  0  0  0
   13.0303   -3.6460    0.0000 Cl   0  0  0  0  0  0  0  0  0  0  0  0
  1  2  1  0  0  0  0
  1  3  1  1  0  0  0
  1  4  1  0  0  0  0
  2  5  1  0  0  0  0
  2  6  1  6  0  0  0
  3  7  1  0  0  0  0
  3  8  1  0  0  0  0
  4  9  1  0  0  0  0
  4 10  1  1  0  0  0
  5 11  1  6  0  0  0
  5  9  1  0  0  0  0
  6 12  1  0  0  0  0
  7 13  1  0  0  0  0
  8 14  1  0  0  0  0
 11 15  1  0  0  0  0
 12 16  1  0  0  0  0
 13 17  1  0  0  0  0
 14 17  1  0  0  0  0
 15 18  1  0  0  0  0
 16 19  2  0  0  0  0
 18 20  1  0  0  0  0
 18 21  2  0  0  0  0
 19 22  1  0  0  0  0
 20 23  2  0  0  0  0
 21 24  1  0  0  0  0
 22 25  1  0  0  0  0
 23 26  1  0  0  0  0
 24 26  2  0  0  0  0
 25 27  1  0  0  0  0
 26 28  1  0  0  0  0
 27 29  1  0  0  0  0
 27 30  2  0  0  0  0
 28 31  2  0  0  0  0
 28 32  1  0  0  0  0
 31 33  1  0  0  0  0
 32 34  2  0  0  0  0
 33 35  2  0  0  0  0
 34 35  1  0  0  0  0
M  END
> <ID>
11130

> <Formula>
C30H40ClNO4

> <FW>
514.0959 (477.6350+36.4609)

> <DSSTox_CID>
25689

> <DSSTox_RID>
81061

> <DSSTox_GSID>
45689

> <DSSTox_FileID_Sort>
5742

> <TS_ChemName>
Vapiprost hydrochloride

> <TS_ChemName_Synonyms>


> <TS_CASRN>
87248-13-3

> <CASRN_ChemName_Relationship>
primary

> <TS_Description>
single chemical compound

> <ChemNote>
parent [85505-64-2]

> <STRUCTURE_Shown>
tested chemical

> <STRUCTURE_Formula>
C30H40ClNO4

> <STRUCTURE_MW>
514.0959

> <STRUCTURE_ChemType>
defined organic

> <STRUCTURE_DefinedOrganicForm>
complex

> <STRUCTURE_IUPAC>
(4Z)-7-[(1R,2R,3S,5S)-5-(biphenyl-4-ylmethoxy)-3-hydroxy-2-(piperidin-1-yl)cyclopentyl]hept-4-enoic acid hydrochloride (1:1)

> <STRUCTURE_SMILES>
Cl.O=C(O)CC\C=C/CC[C@@H]3[C@H]([C@@H](O)C[C@@H]3OCc1ccc(cc1)c2ccccc2)N4CCCCC4

> <STRUCTURE_SMILES_Desalt>
O=C(O)CC\C=C/CC[C@@H]3[C@H]([C@@H](O)C[C@@H]3OCc1ccc(cc1)c2ccccc2)N4CCCCC4

> <Substance_modify_yyyymmdd>
20110819

$$$$
