87392-12-9
ChemmineR-0915142007XD

 19 19  0  0  1  0  0  0  0  0  1 V2000
    1.4294   -2.3410    0.0000 C    0  0  0  0  0  0  0  0  0  0  0  0
    0.2969   -2.9970    0.0000 O    0  0  0  0  0  0  0  0  0  0  0  0
    1.4294   -1.0358    0.0000 C    0  0  0  0  0  0  0  0  0  0  0  0
    2.5550   -2.9970    0.0000 N    0  0  0  0  0  0  0  0  0  0  0  0
    0.0000    0.0000    0.0000 Cl   0  0  0  0  0  0  0  0  0  0  0  0
    2.5550   -4.3021    0.0000 C    0  0  0  0  0  0  0  0  0  0  0  0
    3.6875   -4.9443    0.0000 C    0  0  0  0  0  0  0  0  0  0  0  0
    1.4294   -4.9443    0.0000 C    0  0  0  0  0  0  0  0  0  0  0  0
    3.6875   -6.2495    0.0000 C    0  0  0  0  0  0  0  0  0  0  0  0
    1.4294   -6.2495    0.0000 C    0  0  0  0  0  0  0  0  0  0  0  0
    2.5550   -6.9055    0.0000 C    0  0  0  0  0  0  0  0  0  0  0  0
    4.8200   -4.3021    0.0000 C    0  0  0  0  0  0  0  0  0  0  0  0
    5.9456   -4.9443    0.0000 C    0  0  0  0  0  0  0  0  0  0  0  0
    0.2969   -4.3021    0.0000 C    0  0  0  0  0  0  0  0  0  0  0  0
    3.6875   -2.3410    0.0000 C    0  0  0  0  0  0  0  0  0  0  0  0
    3.6875   -1.0358    0.0000 C    0  0  0  0  0  0  0  0  0  0  0  0
    4.8200   -0.3936    0.0000 O    0  0  0  0  0  0  0  0  0  0  0  0
    6.0423   -1.0980    0.0000 C    0  0  0  0  0  0  0  0  0  0  0  0
    4.8200   -2.8382    0.0000 C    0  0  0  0  0  0  0  0  0  0  0  0
  1  2  2  0  0  0  0
  1  4  1  0  0  0  0
  1  3  1  0  0  0  0
  3  5  1  0  0  0  0
  4  6  1  0  0  0  0
  4 15  1  0  0  0  0
  6  7  2  0  0  0  0
  6  8  1  0  0  0  0
  7  9  1  0  0  0  0
  7 12  1  0  0  0  0
  8 10  2  0  0  0  0
  8 14  1  0  0  0  0
  9 11  2  0  0  0  0
 10 11  1  0  0  0  0
 12 13  1  0  0  0  0
 15 16  1  0  0  0  0
 15 19  1  6  0  0  0
 16 17  1  0  0  0  0
 17 18  1  0  0  0  0
M  END
> <ID>
6459

> <Formula>
C15H22ClNO2

> <FW>
283.7937

> <DSSTox_CID>
12431

> <DSSTox_RID>
78946

> <DSSTox_GSID>
32431

> <DSSTox_FileID_Sort>
3628

> <TS_ChemName>
S-Metolachlor

> <TS_ChemName_Synonyms>
S-Metolachlor ((S)-2-Chloro-N-(2-ethyl-6-methylphenyl)-N-(2-methoxy-1-methylethyl) acetamide)

> <TS_CASRN>
87392-12-9

> <CASRN_ChemName_Relationship>
primary

> <TS_Description>
single chemical compound

> <ChemNote>
stereochem

> <STRUCTURE_Shown>
tested chemical

> <STRUCTURE_Formula>
C15H22ClNO2

> <STRUCTURE_MW>
283.7937

> <STRUCTURE_ChemType>
defined organic

> <STRUCTURE_DefinedOrganicForm>
parent

> <STRUCTURE_IUPAC>
2-chloro-N-(2-ethyl-6-methylphenyl)-N-[(2S)-1-methoxypropan-2-yl]acetamide

> <STRUCTURE_SMILES>
ClCC(=O)N([C@@H](C)COC)c1c(C)cccc1CC

> <STRUCTURE_SMILES_Desalt>
ClCC(=O)N([C@@H](C)COC)c1c(C)cccc1CC

> <Substance_modify_yyyymmdd>
20080429

$$$$
