874-80-6
ChemmineR-0915142007XD

 11 10  0  0  0  0  0  0  0  0  2 V2000
    1.9917   -2.2743    0.0000 N    0  3  0  0  0  0  0  0  0  0  0  0
    0.6961   -2.2743    0.0000 C    0  0  0  0  0  0  0  0  0  0  0  0
    2.7154   -1.1371    0.0000 C    0  0  0  0  0  0  0  0  0  0  0  0
    1.9917    0.0000    0.0000 C    0  0  0  0  0  0  0  0  0  0  0  0
    0.0000   -1.1371    0.0000 C    0  0  0  0  0  0  0  0  0  0  0  0
    0.6961    0.0000    0.0000 C    0  0  0  0  0  0  0  0  0  0  0  0
    2.6533   -3.4459    0.0000 C    0  0  0  0  0  0  0  0  0  0  0  0
    1.9573   -4.6175    0.0000 C    0  0  0  0  0  0  0  0  0  0  0  0
    2.6258   -5.7546    0.0000 C    0  0  0  0  0  0  0  0  0  0  0  0
    1.9573   -6.8918    0.0000 C    0  0  0  0  0  0  0  0  0  0  0  0
    5.3756   -3.4459    0.0000 Br   0  5  0  0  0  0  0  0  0  0  0  0
  1  2  2  0  0  0  0
  1  3  1  0  0  0  0
  1  7  1  0  0  0  0
  2  5  1  0  0  0  0
  3  4  2  0  0  0  0
  4  6  1  0  0  0  0
  5  6  2  0  0  0  0
  7  8  1  0  0  0  0
  8  9  1  0  0  0  0
  9 10  1  0  0  0  0
M  END
> <ID>
13008

> <Formula>
C9H14BrN

> <FW>
216.1182 (136.2136+79.9045)

> <DSSTox_CID>
27909

> <DSSTox_RID>
82662

> <DSSTox_GSID>
47933

> <DSSTox_FileID_Sort>
7339

> <TS_ChemName>
1-Butylpyridinium bromide

> <TS_ChemName_Synonyms>


> <TS_CASRN>
874-80-6

> <CASRN_ChemName_Relationship>
primary

> <TS_Description>
single chemical compound

> <ChemNote>
ammonium; parent [45806-95-9]

> <STRUCTURE_Shown>
tested chemical

> <STRUCTURE_Formula>
C9H14BrN

> <STRUCTURE_MW>
216.1182

> <STRUCTURE_ChemType>
defined organic

> <STRUCTURE_DefinedOrganicForm>
salt

> <STRUCTURE_IUPAC>
1-butylpyridinium bromide

> <STRUCTURE_SMILES>
[Br-].CCCC[n+]1ccccc1

> <STRUCTURE_SMILES_Desalt>
CCCC[n+]1ccccc1

> <Substance_modify_yyyymmdd>
20110418

$$$$
