874-81-7
ChemmineR-0915142007XD

 11 10  0  0  0  0  0  0  0  0  2 V2000
    3.3364   -6.9076    0.0000 C   0  0  0  0  0  0  0  0  0  0  0  0
    2.6663   -5.7540    0.0000 C   0  0  0  0  0  0  0  0  0  0  0  0
    3.3364   -4.6074    0.0000 C   0  0  0  0  0  0  0  0  0  0  0  0
    4.6626    0.0000    0.0000 C   0  0  0  0  0  0  0  0  0  0  0  0
    3.3364    0.0000    0.0000 C   0  0  0  0  0  0  0  0  0  0  0  0
    5.3257   -1.1536    0.0000 C   0  0  0  0  0  0  0  0  0  0  0  0
    2.6663   -3.4538    0.0000 C   0  0  0  0  0  0  0  0  0  0  0  0
    2.6663   -1.1536    0.0000 C   0  0  0  0  0  0  0  0  0  0  0  0
    4.6626   -2.3002    0.0000 C   0  0  0  0  0  0  0  0  0  0  0  0
    3.3364   -2.3002    0.0000 N   0  3  0  0  0  0  0  0  0  0  0  0
    0.0000   -1.1536    0.0000 I   0  5  0  0  0  0  0  0  0  0  0  0
  1  2  1  0  0  0  0
  2  3  1  0  0  0  0
  3  7  1  0  0  0  0
  4  5  2  0  0  0  0
  4  6  1  0  0  0  0
  5  8  1  0  0  0  0
  6  9  2  0  0  0  0
  7 10  1  0  0  0  0
  8 10  2  0  0  0  0
  9 10  1  0  0  0  0
M  END
> <ID>
14230

> <Formula>
C9H14IN

> <FW>
263.1186 (136.2136+126.9050)

> <DSSTox_CID>
29325

> <DSSTox_RID>
83441

> <DSSTox_GSID>
49366

> <DSSTox_FileID_Sort>
8116

> <TS_ChemName>
1-Butylpyridinium iodide

> <TS_ChemName_Synonyms>


> <TS_CASRN>
874-81-7

> <CASRN_ChemName_Relationship>
primary

> <TS_Description>
single chemical compound

> <ChemNote>


> <STRUCTURE_Shown>
tested chemical

> <STRUCTURE_Formula>
C9H14IN

> <STRUCTURE_MW>
263.1186

> <STRUCTURE_ChemType>
defined organic

> <STRUCTURE_DefinedOrganicForm>
salt

> <STRUCTURE_IUPAC>
1-butylpyridinium iodide

> <STRUCTURE_SMILES>
[I-].CCCC[n+]1ccccc1

> <STRUCTURE_SMILES_Desalt>
CCCC[n+]1ccccc1

> <Substance_modify_yyyymmdd>
20111204

$$$$
