87440-45-7
ChemmineR-0915142007XD

 32 34  0  0  1  0  0  0  0  0  2 V2000
    2.3700   -0.7207    0.0000 C    0  0  0  0  0  0  0  0  0  0  0  0
    3.4649    0.0000    0.0000 C    0  0  0  0  0  0  0  0  0  0  0  0
    4.6291   -0.7207    0.0000 C    0  0  0  0  0  0  0  0  0  0  0  0
    4.6291   -2.0373    0.0000 C    0  0  0  0  0  0  0  0  0  0  0  0
    3.4649   -2.6887    0.0000 C    0  0  0  0  0  0  0  0  0  0  0  0
    2.3700   -2.0373    0.0000 C    0  0  0  0  0  0  0  0  0  0  0  0
    1.2058   -2.6887    0.0000 C    0  0  0  0  0  0  0  0  0  0  0  0
    1.2058   -4.0054    0.0000 O    0  0  0  0  0  0  0  0  0  0  0  0
    0.0000   -2.0373    0.0000 O    0  0  0  0  0  0  0  0  0  0  0  0
    5.7655   -2.6887    0.0000 C    0  0  0  0  0  0  0  0  0  0  0  0
    5.7655   -4.0054    0.0000 C    0  0  0  0  0  0  0  0  0  0  0  0
    4.7399   -4.7677    0.0000 O    0  0  0  0  0  0  0  0  0  0  0  0
    6.8882   -4.7677    0.0000 C    0  0  0  0  0  0  0  0  0  0  0  0
    6.4308   -6.0427    0.0000 C    0  0  0  0  0  0  0  0  0  0  0  0
    5.1142   -6.0427    0.0000 C    0  0  0  0  0  0  0  0  0  0  0  0
    4.7399   -7.3594    0.0000 C    0  0  0  0  0  0  0  0  0  0  0  0
    5.8348   -8.0801    0.0000 C    0  0  0  0  0  0  0  0  0  0  0  0
    6.8882   -7.3178    0.0000 C    0  0  0  0  0  0  0  0  0  0  0  0
    5.8348   -9.4383    0.0000 O    0  0  0  0  0  0  0  0  0  0  0  0
    3.7975   -6.0427    0.0000 H    0  0  0  0  0  0  0  0  0  0  0  0
    7.7613   -6.0427    0.0000 H    0  0  0  0  0  0  0  0  0  0  0  0
    8.1355   -7.7475    0.0000 C    0  0  0  0  0  0  0  0  0  0  0  0
    9.2304   -7.0268    0.0000 C    0  0  0  0  0  0  0  0  0  0  0  0
   10.3946   -7.6920    0.0000 C    0  0  0  0  0  0  0  0  0  0  0  0
   10.3946   -9.0641    0.0000 O    0  0  0  0  0  0  0  0  0  0  0  0
   11.5588   -7.0268    0.0000 C    0  0  0  0  0  0  0  0  0  0  0  0
   12.6953   -7.7475    0.0000 C    0  0  0  0  0  0  0  0  0  0  0  0
   13.8595   -7.0961    0.0000 C    0  0  0  0  0  0  0  0  0  0  0  0
   13.8595   -5.7794    0.0000 C    0  0  0  0  0  0  0  0  0  0  0  0
   12.6953   -5.0587    0.0000 C    0  0  0  0  0  0  0  0  0  0  0  0
   11.5588   -5.7101    0.0000 C    0  0  0  0  0  0  0  0  0  0  0  0
    8.2741   -9.9373    0.0000 Na   0  3  0  0  0  0  0  0  0  0  0  0
  1  6  1  0  0  0  0
  1  2  2  0  0  0  0
  2  3  1  0  0  0  0
  3  4  2  0  0  0  0
  4  5  1  0  0  0  0
  4 10  1  0  0  0  0
  5  6  2  0  0  0  0
  6  7  1  0  0  0  0
  7  8  1  0  0  0  0
  7  9  2  0  0  0  0
 10 11  2  0  0  0  0
 11 12  1  0  0  0  0
 11 13  1  0  0  0  0
 12 15  1  0  0  0  0
 13 14  1  0  0  0  0
 14 18  1  0  0  0  0
 14 21  1  1  0  0  0
 14 15  1  0  0  0  0
 15 16  1  0  0  0  0
 15 20  1  1  0  0  0
 16 17  1  0  0  0  0
 17 18  1  0  0  0  0
 17 19  1  6  0  0  0
 18 22  1  1  0  0  0
 22 23  2  0  0  0  0
 23 24  1  0  0  0  0
 24 25  1  6  0  0  0
 24 26  1  0  0  0  0
 26 27  1  0  0  0  0
 26 31  1  0  0  0  0
 27 28  1  0  0  0  0
 28 29  1  0  0  0  0
 29 30  1  0  0  0  0
 30 31  1  0  0  0  0
M  END
> <ID>
14017

> <Formula>
C24H30NaO5

> <FW>
421.4812 (398.4920+22.9892)

> <DSSTox_CID>
28959

> <DSSTox_RID>
83224

> <DSSTox_GSID>
49033

> <DSSTox_FileID_Sort>
7900

> <TS_ChemName>
Taprostene sodium salt

> <TS_ChemName_Synonyms>


> <TS_CASRN>
87440-45-7

> <CASRN_ChemName_Relationship>
primary

> <TS_Description>
single chemical compound

> <ChemNote>
racemic mixture of 2 enantiomers U63639(+) and U63640(-)

> <STRUCTURE_Shown>
tested chemical

> <STRUCTURE_Formula>
C24H30NaO5

> <STRUCTURE_MW>
421.4812

> <STRUCTURE_ChemType>
defined organic

> <STRUCTURE_DefinedOrganicForm>
salt

> <STRUCTURE_IUPAC>
sodium 3-[(Z)-{(3aR,4R,5R,6aS)-4-[(1E,3S)-3-cyclohexyl-3-hydroxyprop-1-en-1-yl]-5-hydroxyhexahydro-2H-cyclopenta[b]furan-2-ylidene}methyl]benzoate

> <STRUCTURE_SMILES>
[Na+].O=C(O)c1cccc(c1)/C=C3/C[C@@H]4[C@@H](/C=C/[C@@H](O)C2CCCCC2)[C@H](O)C[C@@H]4O3

> <STRUCTURE_SMILES_Desalt>
O=C(O)c1cccc(c1)/C=C3/C[C@@H]4[C@@H](/C=C/[C@@H](O)C2CCCCC2)[C@H](O)C[C@@H]4O3

> <Substance_modify_yyyymmdd>
20111204

$$$$
