87463-91-0
ChemmineR-0915142007XD

 20 21  0  0  0  0  0  0  0  0  2 V2000
    5.4548   -3.9870    0.0000 Na   0  3  0  0  0  0  0  0  0  0  0  0
    0.0000   -2.4755    0.0000 O    0  5  0  0  0  0  0  0  0  0  0  0
    0.6682   -1.3254    0.0000 C    0  0  0  0  0  0  0  0  0  0  0  0
    0.0000   -0.1753    0.0000 O    0  0  0  0  0  0  0  0  0  0  0  0
    1.9935   -1.3254    0.0000 C    0  0  0  0  0  0  0  0  0  0  0  0
    2.7822   -2.3988    0.0000 C    0  0  0  0  0  0  0  0  0  0  0  0
    4.0418   -1.9935    0.0000 C    0  0  0  0  0  0  0  0  0  0  0  0
    4.0418   -0.6572    0.0000 C    0  0  0  0  0  0  0  0  0  0  0  0
    2.7822   -0.2519    0.0000 O    0  0  0  0  0  0  0  0  0  0  0  0
    5.1919    0.0000    0.0000 C    0  0  0  0  0  0  0  0  0  0  0  0
    6.3420   -0.6572    0.0000 C    0  0  0  0  0  0  0  0  0  0  0  0
    6.3420   -1.9935    0.0000 C    0  0  0  0  0  0  0  0  0  0  0  0
    5.1919   -2.6617    0.0000 C    0  0  0  0  0  0  0  0  0  0  0  0
    7.5031   -2.6617    0.0000 C    0  0  0  0  0  0  0  0  0  0  0  0
    8.6532   -1.9935    0.0000 C    0  0  0  0  0  0  0  0  0  0  0  0
    8.6532   -0.6572    0.0000 C    0  0  0  0  0  0  0  0  0  0  0  0
    9.8033    0.0000    0.0000 C    0  0  0  0  0  0  0  0  0  0  0  0
   10.9534   -0.6572    0.0000 C    0  0  0  0  0  0  0  0  0  0  0  0
   10.9534   -1.9935    0.0000 N    0  0  0  0  0  0  0  0  0  0  0  0
    9.8033   -2.6617    0.0000 C    0  0  0  0  0  0  0  0  0  0  0  0
  2  3  1  0  0  0  0
  3  4  2  0  0  0  0
  3  5  1  0  0  0  0
  5  6  2  0  0  0  0
  5  9  1  0  0  0  0
  6  7  1  0  0  0  0
  7  8  2  0  0  0  0
  7 13  1  0  0  0  0
  8  9  1  0  0  0  0
  8 10  1  0  0  0  0
 10 11  2  0  0  0  0
 11 12  1  0  0  0  0
 12 13  2  0  0  0  0
 12 14  1  0  0  0  0
 14 15  1  0  0  0  0
 15 16  2  0  0  0  0
 15 20  1  0  0  0  0
 16 17  1  0  0  0  0
 17 18  2  0  0  0  0
 18 19  1  0  0  0  0
 19 20  2  0  0  0  0
M  END
> <ID>
10833

> <Formula>
C15H10NNaO3

> <FW>
275.2346 (22.9892+252.2453)

> <DSSTox_CID>
25226

> <DSSTox_RID>
80763

> <DSSTox_GSID>
45226

> <DSSTox_FileID_Sort>
5444

> <TS_ChemName>
Furegrelate sodium

> <TS_ChemName_Synonyms>


> <TS_CASRN>
87463-91-0

> <CASRN_ChemName_Relationship>
primary

> <TS_Description>
single chemical compound

> <ChemNote>
parent [85666-24-6]

> <STRUCTURE_Shown>
tested chemical

> <STRUCTURE_Formula>
C15H10NNaO3

> <STRUCTURE_MW>
275.2346

> <STRUCTURE_ChemType>
defined organic

> <STRUCTURE_DefinedOrganicForm>
salt

> <STRUCTURE_IUPAC>
sodium 5-(pyridin-3-ylmethyl)-1-benzofuran-2-carboxylate

> <STRUCTURE_SMILES>
[Na+].[O-]C(=O)c1cc2cc(ccc2o1)Cc3cccnc3

> <STRUCTURE_SMILES_Desalt>
O=C(O)c1cc2cc(ccc2o1)Cc3cccnc3

> <Substance_modify_yyyymmdd>
20100107

$$$$
