87546-18-7
ChemmineR-0915142007XD

 29 31  0  0  0  0  0  0  0  0  1 V2000
    4.4691   -2.4228    0.0000 N    0  0  0  0  0  0  0  0  0  0  0  0
    5.8374   -2.4228    0.0000 C    0  0  0  0  0  0  0  0  0  0  0  0
    3.6782   -3.5276    0.0000 C    0  0  0  0  0  0  0  0  0  0  0  0
    3.6782   -1.3181    0.0000 C    0  0  0  0  0  0  0  0  0  0  0  0
    6.5028   -3.6154    0.0000 C    0  0  0  0  0  0  0  0  0  0  0  0
    6.5028   -1.2428    0.0000 C    0  0  0  0  0  0  0  0  0  0  0  0
    2.3726   -3.1007    0.0000 C    0  0  0  0  0  0  0  0  0  0  0  0
    4.1050   -4.8206    0.0000 O    0  0  0  0  0  0  0  0  0  0  0  0
    2.3726   -1.7198    0.0000 C    0  0  0  0  0  0  0  0  0  0  0  0
    4.1050    0.0000    0.0000 O    0  0  0  0  0  0  0  0  0  0  0  0
    7.8962   -3.6154    0.0000 C    0  0  0  0  0  0  0  0  0  0  0  0
    7.8962   -1.2428    0.0000 C    0  0  0  0  0  0  0  0  0  0  0  0
    5.8374   -0.0502    0.0000 F    0  0  0  0  0  0  0  0  0  0  0  0
    1.1800   -3.7786    0.0000 C    0  0  0  0  0  0  0  0  0  0  0  0
    1.1800   -1.0420    0.0000 C    0  0  0  0  0  0  0  0  0  0  0  0
    8.5616   -2.4228    0.0000 C    0  0  0  0  0  0  0  0  0  0  0  0
    8.5616   -4.7829    0.0000 O    0  0  0  0  0  0  0  0  0  0  0  0
    0.0000   -3.1007    0.0000 C    0  0  0  0  0  0  0  0  0  0  0  0
    0.0000   -1.7198    0.0000 C    0  0  0  0  0  0  0  0  0  0  0  0
    9.9299   -2.4228    0.0000 Cl   0  0  0  0  0  0  0  0  0  0  0  0
    9.9299   -4.7829    0.0000 C    0  0  0  0  0  0  0  0  0  0  0  0
   10.6204   -5.9755    0.0000 C    0  0  0  0  0  0  0  0  0  0  0  0
   11.9887   -5.9755    0.0000 O    0  0  0  0  0  0  0  0  0  0  0  0
    9.9299   -7.1556    0.0000 O    0  0  0  0  0  0  0  0  0  0  0  0
   12.5536   -4.9963    0.0000 C    0  0  0  0  0  0  0  0  0  0  0  0
   11.9887   -4.0297    0.0000 C    0  0  0  0  0  0  0  0  0  0  0  0
   12.5536   -3.0505    0.0000 C    0  0  0  0  0  0  0  0  0  0  0  0
   11.9762   -2.0839    0.0000 C    0  0  0  0  0  0  0  0  0  0  0  0
   12.5536   -1.1047    0.0000 C    0  0  0  0  0  0  0  0  0  0  0  0
  1  2  1  0  0  0  0
  1  3  1  0  0  0  0
  1  4  1  0  0  0  0
  2  5  2  0  0  0  0
  2  6  1  0  0  0  0
  3  7  1  0  0  0  0
  3  8  2  0  0  0  0
  4  9  1  0  0  0  0
  4 10  2  0  0  0  0
  5 11  1  0  0  0  0
  6 12  2  0  0  0  0
  6 13  1  0  0  0  0
  7 14  1  0  0  0  0
  7  9  2  0  0  0  0
  9 15  1  0  0  0  0
 11 16  2  0  0  0  0
 11 17  1  0  0  0  0
 12 16  1  0  0  0  0
 14 18  1  0  0  0  0
 15 19  1  0  0  0  0
 16 20  1  0  0  0  0
 17 21  1  0  0  0  0
 18 19  1  0  0  0  0
 21 22  1  0  0  0  0
 22 23  1  0  0  0  0
 22 24  2  0  0  0  0
 23 25  1  0  0  0  0
 25 26  1  0  0  0  0
 26 27  1  0  0  0  0
 27 28  1  0  0  0  0
 28 29  1  0  0  0  0
M  END
> <ID>
6516

> <Formula>
C21H23ClFNO5

> <FW>
423.8624

> <DSSTox_CID>
12554

> <DSSTox_RID>
78983

> <DSSTox_GSID>
32554

> <DSSTox_FileID_Sort>
3665

> <TS_ChemName>
Flumiclorac-pentyl

> <TS_ChemName_Synonyms>


> <TS_CASRN>
87546-18-7

> <CASRN_ChemName_Relationship>
primary

> <TS_Description>
single chemical compound

> <ChemNote>


> <STRUCTURE_Shown>
tested chemical

> <STRUCTURE_Formula>
C21H23ClFNO5

> <STRUCTURE_MW>
423.8624

> <STRUCTURE_ChemType>
defined organic

> <STRUCTURE_DefinedOrganicForm>
parent

> <STRUCTURE_IUPAC>
pentyl [2-chloro-5-(1,3-dioxo-1,3,4,5,6,7-hexahydro-2H-isoindol-2-yl)-4-fluorophenoxy]acetate

> <STRUCTURE_SMILES>
O=C(OCCCCC)COc1cc(c(F)cc1Cl)N3C(=O)C=2CCCCC=2C3=O

> <STRUCTURE_SMILES_Desalt>
O=C(OCCCCC)COc1cc(c(F)cc1Cl)N3C(=O)C=2CCCCC=2C3=O

> <Substance_modify_yyyymmdd>
20080429

$$$$
