87679-37-6
ChemmineR-0915142007XD

 33 35  0  0  1  0  0  0  0  0  1 V2000
    2.3002   -4.3959    0.0000 C   0  0  0  0  0  0  0  0  0  0  0  0
    2.3002   -5.7249    0.0000 C   0  0  0  0  0  0  0  0  0  0  0  0
    1.1501   -3.7314    0.0000 C   0  0  0  0  0  0  0  0  0  0  0  0
    1.1501   -6.3766    0.0000 C   0  0  0  0  0  0  0  0  0  0  0  0
    0.0000   -4.3959    0.0000 C   0  0  0  0  0  0  0  0  0  0  0  0
    0.0000   -5.7249    0.0000 C   0  0  0  0  0  0  0  0  0  0  0  0
    3.5653   -3.9869    0.0000 N   0  0  0  0  0  0  0  0  0  0  0  0
    4.3448   -5.0604    0.0000 C   0  0  0  0  0  0  0  0  0  0  0  0
    3.5653   -6.1465    0.0000 C   0  0  0  0  0  0  0  0  0  0  0  0
    5.6737   -5.0604    0.0000 C   0  0  0  0  0  0  0  0  0  0  0  0
    6.3510   -3.8975    0.0000 O   0  0  0  0  0  0  0  0  0  0  0  0
    6.3510   -6.2104    0.0000 O   0  0  0  0  0  0  0  0  0  0  0  0
    2.3002   -3.0669    0.0000 H   0  0  0  0  0  0  0  0  0  0  0  0
    2.3002   -7.0538    0.0000 H   0  0  0  0  0  0  0  0  0  0  0  0
    3.5653   -2.6580    0.0000 C   0  0  0  0  0  0  0  0  0  0  0  0
    2.4152   -1.9807    0.0000 O   0  0  0  0  0  0  0  0  0  0  0  0
    4.7153   -1.9807    0.0000 C   0  0  0  0  0  0  0  0  0  0  0  0
    5.8654   -2.6580    0.0000 N   0  0  0  0  0  0  0  0  0  0  0  0
    4.7153   -0.6517    0.0000 C   0  0  0  0  0  0  0  0  0  0  0  0
    7.0155   -1.9807    0.0000 C   0  0  0  0  0  0  0  0  0  0  0  0
    8.1911   -2.6580    0.0000 C   0  0  0  0  0  0  0  0  0  0  0  0
    9.3412   -2.0063    0.0000 C   0  0  0  0  0  0  0  0  0  0  0  0
   10.4913   -2.6580    0.0000 C   0  0  0  0  0  0  0  0  0  0  0  0
   11.6286   -2.0063    0.0000 C   0  0  0  0  0  0  0  0  0  0  0  0
   10.4913   -3.9869    0.0000 C   0  0  0  0  0  0  0  0  0  0  0  0
   12.7787   -2.6580    0.0000 C   0  0  0  0  0  0  0  0  0  0  0  0
   11.6286   -4.6514    0.0000 C   0  0  0  0  0  0  0  0  0  0  0  0
   12.7787   -3.9869    0.0000 C   0  0  0  0  0  0  0  0  0  0  0  0
    7.0155   -0.6517    0.0000 C   0  0  0  0  0  0  0  0  0  0  0  0
    5.8654    0.0000    0.0000 O   0  0  0  0  0  0  0  0  0  0  0  0
    8.1911    0.0000    0.0000 O   0  0  0  0  0  0  0  0  0  0  0  0
    9.3412   -0.6773    0.0000 C   0  0  0  0  0  0  0  0  0  0  0  0
   10.4913    0.0000    0.0000 C   0  0  0  0  0  0  0  0  0  0  0  0
  1  3  1  0  0  0  0
  1  7  1  0  0  0  0
  1  2  1  0  0  0  0
  1 13  1  1  0  0  0
  2  4  1  0  0  0  0
  2  9  1  0  0  0  0
  2 14  1  6  0  0  0
  3  5  1  0  0  0  0
  4  6  1  0  0  0  0
  5  6  1  0  0  0  0
  7  8  1  0  0  0  0
  7 15  1  0  0  0  0
  8  9  1  0  0  0  0
  8 10  1  6  0  0  0
 10 11  2  0  0  0  0
 10 12  1  0  0  0  0
 15 16  2  0  0  0  0
 15 17  1  0  0  0  0
 17 18  1  0  0  0  0
 17 19  1  6  0  0  0
 18 20  1  0  0  0  0
 20 21  1  0  0  0  0
 20 29  1  6  0  0  0
 21 22  1  0  0  0  0
 22 23  1  0  0  0  0
 23 24  1  0  0  0  0
 23 25  2  0  0  0  0
 24 26  2  0  0  0  0
 25 27  1  0  0  0  0
 26 28  1  0  0  0  0
 27 28  2  0  0  0  0
 29 30  2  0  0  0  0
 29 31  1  0  0  0  0
 31 32  1  0  0  0  0
 32 33  1  0  0  0  0
M  END
> <ID>
3298

> <Formula>
C24H34N2O5

> <FW>
430.5372

> <DSSTox_CID>
3692

> <DSSTox_RID>
77151

> <DSSTox_GSID>
23692

> <DSSTox_FileID_Sort>
1834

> <TS_ChemName>
Trandolapril

> <TS_ChemName_Synonyms>


> <TS_CASRN>
87679-37-6

> <CASRN_ChemName_Relationship>
primary

> <TS_Description>
single chemical compound

> <ChemNote>
stereochem

> <STRUCTURE_Shown>
tested chemical

> <STRUCTURE_Formula>
C24H34N2O5

> <STRUCTURE_MW>
430.5372

> <STRUCTURE_ChemType>
defined organic

> <STRUCTURE_DefinedOrganicForm>
parent

> <STRUCTURE_IUPAC>
(2S,3aR,7aS)-1-[(2S)-2-{[(2S)-1-ethoxy-1-oxo-4-phenylbutan-2-yl]amino}propanoyl]octahydro-1H-indole-2-carboxylic acid

> <STRUCTURE_SMILES>
O=C(OCC)[C@H](CCc1ccccc1)N[C@@H](C)C(=O)N2[C@@H](C[C@H]3CCCC[C@H]23)C(=O)O

> <STRUCTURE_SMILES_Desalt>
O=C(OCC)[C@H](CCc1ccccc1)N[C@@H](C)C(=O)N2[C@@H](C[C@H]3CCCC[C@H]23)C(=O)O

> <Substance_modify_yyyymmdd>
20080429

$$$$
