877-24-7
ChemmineR-0915142007XD

 13 12  0  0  0  0  0  0  0  0  2 V2000
    2.3097   -1.9904    0.0000 C   0  0  0  0  0  0  0  0  0  0  0  0
    2.3097   -3.3315    0.0000 C   0  0  0  0  0  0  0  0  0  0  0  0
    3.4593   -1.3358    0.0000 C   0  0  0  0  0  0  0  0  0  0  0  0
    3.4593   -3.9861    0.0000 C   0  0  0  0  0  0  0  0  0  0  0  0
    3.4593    0.0000    0.0000 O   0  5  0  0  0  0  0  0  0  0  0  0
    3.4752   -5.3220    0.0000 O   0  0  0  0  0  0  0  0  0  0  0  0
    4.6195   -1.9904    0.0000 O   0  0  0  0  0  0  0  0  0  0  0  0
    4.6035   -3.3315    0.0000 O   0  0  0  0  0  0  0  0  0  0  0  0
    1.1495   -1.3358    0.0000 C   0  0  0  0  0  0  0  0  0  0  0  0
    1.1495   -3.9861    0.0000 C   0  0  0  0  0  0  0  0  0  0  0  0
    0.0000   -1.9904    0.0000 C   0  0  0  0  0  0  0  0  0  0  0  0
    0.0000   -3.3315    0.0000 C   0  0  0  0  0  0  0  0  0  0  0  0
    5.2102    0.0000    0.0000 K   0  3  0  0  0  0  0  0  0  0  0  0
  1  2  2  0  0  0  0
  1  3  1  0  0  0  0
  1  9  1  0  0  0  0
  2  4  1  0  0  0  0
  2 10  1  0  0  0  0
  3  5  1  0  0  0  0
  3  7  2  0  0  0  0
  4  6  2  0  0  0  0
  4  8  1  0  0  0  0
  9 11  2  0  0  0  0
 10 12  2  0  0  0  0
 11 12  1  0  0  0  0
M  END
> <ID>
9097

> <Formula>
C8H5KO4

> <FW>
204.2212 (165.1234+39.0978)

> <DSSTox_CID>
22167

> <DSSTox_RID>
79941

> <DSSTox_GSID>
42167

> <DSSTox_FileID_Sort>
4623

> <TS_ChemName>
Monopotassium phthalate

> <TS_ChemName_Synonyms>
Monopotassium phthalate (Potassium phthalate monobasic)

> <TS_CASRN>
877-24-7

> <CASRN_ChemName_Relationship>
primary

> <TS_Description>
single chemical compound

> <ChemNote>
parent [88-99-3]

> <STRUCTURE_Shown>
tested chemical

> <STRUCTURE_Formula>
C8H5KO4

> <STRUCTURE_MW>
204.2212

> <STRUCTURE_ChemType>
defined organic

> <STRUCTURE_DefinedOrganicForm>
salt

> <STRUCTURE_IUPAC>
potassium 2-carboxybenzoate

> <STRUCTURE_SMILES>
[K+].OC(=O)c1ccccc1C([O-])=O

> <STRUCTURE_SMILES_Desalt>
OC(=O)c1ccccc1C(=O)O

> <Substance_modify_yyyymmdd>
20080825

$$$$
