87760-53-0
ChemmineR-0915142007XD

 30 34  0  0  1  0  0  0  0  0  1 V2000
    2.2805   -1.6821    0.0000 C   0  0  0  0  0  0  0  0  0  0  0  0
    2.2805   -2.9922    0.0000 C   0  0  0  0  0  0  0  0  0  0  0  0
    1.1484   -1.0028    0.0000 C   0  0  0  0  0  0  0  0  0  0  0  0
    3.5259   -1.2616    0.0000 C   0  0  0  0  0  0  0  0  0  0  0  0
    1.1484   -3.6392    0.0000 C   0  0  0  0  0  0  0  0  0  0  0  0
    3.5259   -3.3966    0.0000 C   0  0  0  0  0  0  0  0  0  0  0  0
    1.9085   -2.3291    0.0000 C   0  0  0  0  0  0  0  0  0  0  0  0
    0.0000   -1.6821    0.0000 C   0  0  0  0  0  0  0  0  0  0  0  0
    4.3023   -2.3291    0.0000 N   0  0  0  0  0  0  0  0  0  0  0  0
    3.9465    0.0000    0.0000 O   0  0  0  0  0  0  0  0  0  0  0  0
    0.0000   -2.9922    0.0000 C   0  0  0  0  0  0  0  0  0  0  0  0
    3.9465   -4.6420    0.0000 O   0  0  0  0  0  0  0  0  0  0  0  0
    5.6286   -2.3291    0.0000 C   0  0  0  0  0  0  0  0  0  0  0  0
    6.2917   -3.4774    0.0000 C   0  0  0  0  0  0  0  0  0  0  0  0
    7.6180   -3.4774    0.0000 C   0  0  0  0  0  0  0  0  0  0  0  0
    8.2649   -4.6096    0.0000 C   0  0  0  0  0  0  0  0  0  0  0  0
    9.5750   -4.6096    0.0000 N   0  0  0  0  0  0  0  0  0  0  0  0
   10.2544   -3.4774    0.0000 C   0  0  0  0  0  0  0  0  0  0  0  0
   10.2544   -5.7580    0.0000 C   0  0  0  0  0  0  0  0  0  0  0  0
   11.5645   -3.4774    0.0000 C   0  0  0  0  0  0  0  0  0  0  0  0
   11.5645   -5.7580    0.0000 C   0  0  0  0  0  0  0  0  0  0  0  0
   12.2114   -4.6096    0.0000 N   0  0  0  0  0  0  0  0  0  0  0  0
   13.5377   -4.6096    0.0000 C   0  0  0  0  0  0  0  0  0  0  0  0
   14.2008   -3.4774    0.0000 N   0  0  0  0  0  0  0  0  0  0  0  0
   14.2008   -5.7580    0.0000 N   0  0  0  0  0  0  0  0  0  0  0  0
   15.5271   -3.4774    0.0000 C   0  0  0  0  0  0  0  0  0  0  0  0
   15.5271   -5.7580    0.0000 C   0  0  0  0  0  0  0  0  0  0  0  0
   16.1741   -4.6096    0.0000 C   0  0  0  0  0  0  0  0  0  0  0  0
    2.5070   -0.3720    0.0000 H   0  0  0  0  0  0  0  0  0  0  0  0
    2.5070   -4.2861    0.0000 H   0  0  0  0  0  0  0  0  0  0  0  0
  1  2  1  0  0  0  0
  1  3  1  0  0  0  0
  1  4  1  1  0  0  0
  1 29  1  6  0  0  0
  2  5  1  0  0  0  0
  2  6  1  1  0  0  0
  2 30  1  6  0  0  0
  3  7  1  1  0  0  0
  3  8  1  0  0  0  0
  4  9  1  0  0  0  0
  4 10  2  0  0  0  0
  5 11  1  0  0  0  0
  5  7  1  1  0  0  0
  6 12  2  0  0  0  0
  6  9  1  0  0  0  0
  8 11  1  0  0  0  0
  9 13  1  0  0  0  0
 13 14  1  0  0  0  0
 14 15  1  0  0  0  0
 15 16  1  0  0  0  0
 16 17  1  0  0  0  0
 17 18  1  0  0  0  0
 17 19  1  0  0  0  0
 18 20  1  0  0  0  0
 19 21  1  0  0  0  0
 20 22  1  0  0  0  0
 21 22  1  0  0  0  0
 22 23  1  0  0  0  0
 23 24  2  0  0  0  0
 23 25  1  0  0  0  0
 24 26  1  0  0  0  0
 25 27  2  0  0  0  0
 26 28  2  0  0  0  0
 27 28  1  0  0  0  0
M  END
> <ID>
13825

> <Formula>
C21H29N5O2

> <FW>
383.4873

> <DSSTox_CID>
28762

> <DSSTox_RID>
83031

> <DSSTox_GSID>
48836

> <DSSTox_FileID_Sort>
7708

> <TS_ChemName>
Tandospirone

> <TS_ChemName_Synonyms>


> <TS_CASRN>
87760-53-0

> <CASRN_ChemName_Relationship>
primary

> <TS_Description>
single chemical compound

> <ChemNote>


> <STRUCTURE_Shown>
tested chemical

> <STRUCTURE_Formula>
C21H29N5O2

> <STRUCTURE_MW>
383.4873

> <STRUCTURE_ChemType>
defined organic

> <STRUCTURE_DefinedOrganicForm>
parent

> <STRUCTURE_IUPAC>
(3aR,4S,7R,7aS)-2-{4-[4-(pyrimidin-2-yl)piperazin-1-yl]butyl}hexahydro-1H-4,7-methanoisoindole-1,3(2H)-dione

> <STRUCTURE_SMILES>
O=C4N(CCCCN1CCN(CC1)c2ncccn2)C(=O)[C@@H]5[C@H]3CC[C@H](C3)[C@H]45

> <STRUCTURE_SMILES_Desalt>
O=C4N(CCCCN1CCN(CC1)c2ncccn2)C(=O)[C@@H]5[C@H]3CC[C@H](C3)[C@H]45

> <Substance_modify_yyyymmdd>
20111204

$$$$
