87771-40-2
ChemmineR-0915142007XD

 33 33  0  0  0  0  0  0  0  0  1 V2000
    8.0638   -3.3223    0.0000 C   0  0  0  0  0  0  0  0  0  0  0  0
    8.0638   -1.9837    0.0000 N   0  0  0  0  0  0  0  0  0  0  0  0
    9.2250   -3.9674    0.0000 C   0  0  0  0  0  0  0  0  0  0  0  0
    6.9188   -3.9674    0.0000 C   0  0  0  0  0  0  0  0  0  0  0  0
    6.9188   -1.3225    0.0000 C   0  0  0  0  0  0  0  0  0  0  0  0
    9.2250   -1.3225    0.0000 C   0  0  0  0  0  0  0  0  0  0  0  0
    9.2250   -5.3221    0.0000 C   0  0  0  0  0  0  0  0  0  0  0  0
   10.3701   -3.3223    0.0000 I   0  0  0  0  0  0  0  0  0  0  0  0
    6.9188   -5.3221    0.0000 C   0  0  0  0  0  0  0  0  0  0  0  0
    5.7576   -3.3223    0.0000 I   0  0  0  0  0  0  0  0  0  0  0  0
    5.7576   -1.9837    0.0000 C   0  0  0  0  0  0  0  0  0  0  0  0
    6.9188    0.0000    0.0000 O   0  0  0  0  0  0  0  0  0  0  0  0
   10.3701   -1.9837    0.0000 C   0  0  0  0  0  0  0  0  0  0  0  0
    8.0638   -5.9834    0.0000 C   0  0  0  0  0  0  0  0  0  0  0  0
   10.3701   -5.9834    0.0000 C   0  0  0  0  0  0  0  0  0  0  0  0
    5.7576   -5.9834    0.0000 C   0  0  0  0  0  0  0  0  0  0  0  0
    4.6125   -1.3225    0.0000 O   0  0  0  0  0  0  0  0  0  0  0  0
   11.5152   -1.3225    0.0000 O   0  0  0  0  0  0  0  0  0  0  0  0
    8.0638   -7.3058    0.0000 I   0  0  0  0  0  0  0  0  0  0  0  0
   11.5152   -5.3221    0.0000 N   0  0  0  0  0  0  0  0  0  0  0  0
   10.3701   -7.3058    0.0000 O   0  0  0  0  0  0  0  0  0  0  0  0
    4.6125   -5.3221    0.0000 N   0  0  0  0  0  0  0  0  0  0  0  0
    5.7576   -7.3058    0.0000 O   0  0  0  0  0  0  0  0  0  0  0  0
   12.6602   -5.9834    0.0000 C   0  0  0  0  0  0  0  0  0  0  0  0
    3.4674   -5.9834    0.0000 C   0  0  0  0  0  0  0  0  0  0  0  0
   13.8214   -5.3221    0.0000 C   0  0  0  0  0  0  0  0  0  0  0  0
    2.3063   -5.3221    0.0000 C   0  0  0  0  0  0  0  0  0  0  0  0
   14.9665   -5.9834    0.0000 C   0  0  0  0  0  0  0  0  0  0  0  0
   13.8214   -3.9674    0.0000 O   0  0  0  0  0  0  0  0  0  0  0  0
    1.1612   -5.9834    0.0000 C   0  0  0  0  0  0  0  0  0  0  0  0
    2.3063   -3.9674    0.0000 O   0  0  0  0  0  0  0  0  0  0  0  0
   16.1277   -5.3221    0.0000 O   0  0  0  0  0  0  0  0  0  0  0  0
    0.0000   -5.3221    0.0000 O   0  0  0  0  0  0  0  0  0  0  0  0
  1  2  1  0  0  0  0
  1  3  1  0  0  0  0
  1  4  2  0  0  0  0
  2  5  1  0  0  0  0
  2  6  1  0  0  0  0
  3  7  2  0  0  0  0
  3  8  1  0  0  0  0
  4  9  1  0  0  0  0
  4 10  1  0  0  0  0
  5 11  1  0  0  0  0
  5 12  2  0  0  0  0
  6 13  1  0  0  0  0
  7 14  1  0  0  0  0
  7 15  1  0  0  0  0
  9 16  1  0  0  0  0
  9 14  2  0  0  0  0
 11 17  1  0  0  0  0
 13 18  1  0  0  0  0
 14 19  1  0  0  0  0
 15 20  1  0  0  0  0
 15 21  2  0  0  0  0
 16 22  1  0  0  0  0
 16 23  2  0  0  0  0
 20 24  1  0  0  0  0
 22 25  1  0  0  0  0
 24 26  1  0  0  0  0
 25 27  1  0  0  0  0
 26 28  1  0  0  0  0
 26 29  1  0  0  0  0
 27 30  1  0  0  0  0
 27 31  1  0  0  0  0
 28 32  1  0  0  0  0
 30 33  1  0  0  0  0
M  END
> <ID>
10995

> <Formula>
C18H24I3N3O9

> <FW>
807.1113

> <DSSTox_CID>
25521

> <DSSTox_RID>
80927

> <DSSTox_GSID>
45521

> <DSSTox_FileID_Sort>
5608

> <TS_ChemName>
Ioversol

> <TS_ChemName_Synonyms>


> <TS_CASRN>
87771-40-2

> <CASRN_ChemName_Relationship>
primary

> <TS_Description>
single chemical compound

> <ChemNote>


> <STRUCTURE_Shown>
tested chemical

> <STRUCTURE_Formula>
C18H24I3N3O9

> <STRUCTURE_MW>
807.1113

> <STRUCTURE_ChemType>
defined organic

> <STRUCTURE_DefinedOrganicForm>
parent

> <STRUCTURE_IUPAC>
N,N'-bis(2,3-dihydroxypropyl)-5-[(hydroxyacetyl)(2-hydroxyethyl)amino]-2,4,6-triiodobenzene-1,3-dicarboxamide

> <STRUCTURE_SMILES>
OCC(O)CNC(=O)c1c(I)c(N(CCO)C(=O)CO)c(I)c(c1I)C(=O)NCC(O)CO

> <STRUCTURE_SMILES_Desalt>
OCC(O)CNC(=O)c1c(I)c(N(CCO)C(=O)CO)c(I)c(c1I)C(=O)NCC(O)CO

> <Substance_modify_yyyymmdd>
20100107

$$$$
