87820-88-0
ChemmineR-0915142007XD

 24 25  0  0  0  0  0  0  0  0  1 V2000
    6.7146   -5.8900    0.0000 C   0  0  0  0  0  0  0  0  0  0  0  0
    5.5955   -5.2519    0.0000 C   0  0  0  0  0  0  0  0  0  0  0  0
    6.7146   -7.1956    0.0000 C   0  0  0  0  0  0  0  0  0  0  0  0
    4.4764   -7.1956    0.0000 C   0  0  0  0  0  0  0  0  0  0  0  0
    3.3475   -7.8336    0.0000 C   0  0  0  0  0  0  0  0  0  0  0  0
    3.3475   -9.1491    0.0000 C   0  0  0  0  0  0  0  0  0  0  0  0
    2.2480   -7.1956    0.0000 C   0  0  0  0  0  0  0  0  0  0  0  0
    4.4764   -5.8900    0.0000 C   0  0  0  0  0  0  0  0  0  0  0  0
    5.5955   -7.8336    0.0000 C   0  0  0  0  0  0  0  0  0  0  0  0
    7.8336   -5.2322    0.0000 C   0  0  0  0  0  0  0  0  0  0  0  0
    2.2480   -9.7872    0.0000 C   0  0  0  0  0  0  0  0  0  0  0  0
    1.1191   -7.8336    0.0000 C   0  0  0  0  0  0  0  0  0  0  0  0
    7.8336   -7.8533    0.0000 O   0  0  0  0  0  0  0  0  0  0  0  0
    7.8336   -3.9561    0.0000 N   0  0  0  0  0  0  0  0  0  0  0  0
    1.1191   -9.1491    0.0000 C   0  0  0  0  0  0  0  0  0  0  0  0
    5.5955   -3.9561    0.0000 O   0  0  0  0  0  0  0  0  0  0  0  0
    7.8238   -2.3658    0.0000 O   0  0  0  0  0  0  0  0  0  0  0  0
    4.4764   -9.8166    0.0000 C   0  0  0  0  0  0  0  0  0  0  0  0
    2.2480   -5.8900    0.0000 C   0  0  0  0  0  0  0  0  0  0  0  0
    8.9429   -5.8900    0.0000 C   0  0  0  0  0  0  0  0  0  0  0  0
    0.0000   -9.8166    0.0000 C   0  0  0  0  0  0  0  0  0  0  0  0
    9.1982   -1.5707    0.0000 C   0  0  0  0  0  0  0  0  0  0  0  0
    8.9429   -7.1858    0.0000 C   0  0  0  0  0  0  0  0  0  0  0  0
    9.1982    0.0000    0.0000 C   0  0  0  0  0  0  0  0  0  0  0  0
  1  2  2  0  0  0  0
  1  3  1  0  0  0  0
  1 10  1  0  0  0  0
  2  8  1  0  0  0  0
  2 16  1  0  0  0  0
  3  9  1  0  0  0  0
  3 13  2  0  0  0  0
  4  9  1  0  0  0  0
  4  5  1  0  0  0  0
  4  8  1  0  0  0  0
  5  6  2  0  0  0  0
  5  7  1  0  0  0  0
  6 11  1  0  0  0  0
  6 18  1  0  0  0  0
  7 12  2  0  0  0  0
  7 19  1  0  0  0  0
 10 14  2  0  0  0  0
 10 20  1  0  0  0  0
 11 15  2  0  0  0  0
 12 15  1  0  0  0  0
 14 17  1  0  0  0  0
 15 21  1  0  0  0  0
 17 22  1  0  0  0  0
 20 23  1  0  0  0  0
 22 24  1  0  0  0  0
M  END
> <ID>
6971

> <Formula>
C20H27NO3

> <FW>
329.4333

> <DSSTox_CID>
14973

> <DSSTox_RID>
79232

> <DSSTox_GSID>
34973

> <DSSTox_FileID_Sort>
3914

> <TS_ChemName>
Tralkoxydim

> <TS_ChemName_Synonyms>
Tralkoxydim (2-Cyclohexen-1-one, 2-{1-(ethoxyimino)propyl}-3-hydroxy-5-(2,4,6-trimethylphenyl)-)

> <TS_CASRN>
87820-88-0

> <CASRN_ChemName_Relationship>
primary

> <TS_Description>
single chemical compound

> <ChemNote>


> <STRUCTURE_Shown>
tested chemical

> <STRUCTURE_Formula>
C20H27NO3

> <STRUCTURE_MW>
329.4333

> <STRUCTURE_ChemType>
defined organic

> <STRUCTURE_DefinedOrganicForm>
parent

> <STRUCTURE_IUPAC>
2-(N-ethoxypropanimidoyl)-3-hydroxy-5-(2,4,6-trimethylphenyl)cyclohex-2-en-1-one

> <STRUCTURE_SMILES>
CC\C(=N\OCC)C1=C(O)CC(CC1=O)c2c(C)cc(C)cc2C

> <STRUCTURE_SMILES_Desalt>
CC\C(=N\OCC)C1=C(O)CC(CC1=O)c2c(C)cc(C)cc2C

> <Substance_modify_yyyymmdd>
20080429

$$$$
