87862-25-7
ChemmineR-0915142007XD

 29 28  0  0  0  0  0  0  0  0  1 V2000
    8.0675   -1.9957    0.0000 N   0  0  0  0  0  0  0  0  0  0  0  0
    6.9064   -2.6489    0.0000 C   0  0  0  0  0  0  0  0  0  0  0  0
    6.9064   -3.9914    0.0000 N   0  0  0  0  0  0  0  0  0  0  0  0
    5.7573   -1.9957    0.0000 N   0  0  0  0  0  0  0  0  0  0  0  0
    4.5962   -2.6489    0.0000 C   0  0  0  0  0  0  0  0  0  0  0  0
    3.4471   -1.9957    0.0000 C   0  0  0  0  0  0  0  0  0  0  0  0
    2.2981   -2.6489    0.0000 C   0  0  0  0  0  0  0  0  0  0  0  0
    1.1490   -1.9957    0.0000 C   0  0  0  0  0  0  0  0  0  0  0  0
    1.1490   -0.6652    0.0000 C   0  0  0  0  0  0  0  0  0  0  0  0
    2.2981    0.0000    0.0000 C   0  0  0  0  0  0  0  0  0  0  0  0
    3.4471   -0.6652    0.0000 C   0  0  0  0  0  0  0  0  0  0  0  0
    0.0000   -2.6489    0.0000 I   0  0  0  0  0  0  0  0  0  0  0  0
    8.0675   -7.3176    0.0000 N   0  0  0  0  0  0  0  0  0  0  0  0
    6.9064   -7.9829    0.0000 C   0  0  0  0  0  0  0  0  0  0  0  0
    6.9064   -9.3133    0.0000 N   0  0  0  0  0  0  0  0  0  0  0  0
    5.7573   -7.3176    0.0000 N   0  0  0  0  0  0  0  0  0  0  0  0
    4.5962   -7.9829    0.0000 C   0  0  0  0  0  0  0  0  0  0  0  0
    3.4471   -7.3176    0.0000 C   0  0  0  0  0  0  0  0  0  0  0  0
    2.2981   -7.9829    0.0000 C   0  0  0  0  0  0  0  0  0  0  0  0
    1.1490   -7.3176    0.0000 C   0  0  0  0  0  0  0  0  0  0  0  0
    1.1490   -5.9871    0.0000 C   0  0  0  0  0  0  0  0  0  0  0  0
    2.2981   -5.3219    0.0000 C   0  0  0  0  0  0  0  0  0  0  0  0
    3.4471   -5.9871    0.0000 C   0  0  0  0  0  0  0  0  0  0  0  0
    0.0000   -7.9829    0.0000 I   0  0  0  0  0  0  0  0  0  0  0  0
   10.7527   -6.2291    0.0000 O   0  0  0  0  0  0  0  0  0  0  0  0
   10.7527   -4.8986    0.0000 S   0  0  0  0  0  0  0  0  0  0  0  0
    9.4222   -4.8986    0.0000 O   0  0  0  0  0  0  0  0  0  0  0  0
   10.7527   -3.5560    0.0000 O   0  0  0  0  0  0  0  0  0  0  0  0
   12.0952   -4.8986    0.0000 O   0  0  0  0  0  0  0  0  0  0  0  0
  1  2  1  0  0  0  0
  2  3  2  0  0  0  0
  2  4  1  0  0  0  0
  4  5  1  0  0  0  0
  5  6  1  0  0  0  0
  6  7  2  0  0  0  0
  6 11  1  0  0  0  0
  7  8  1  0  0  0  0
  8  9  2  0  0  0  0
  8 12  1  0  0  0  0
  9 10  1  0  0  0  0
 10 11  2  0  0  0  0
 13 14  1  0  0  0  0
 14 15  2  0  0  0  0
 14 16  1  0  0  0  0
 16 17  1  0  0  0  0
 17 18  1  0  0  0  0
 18 19  2  0  0  0  0
 18 23  1  0  0  0  0
 19 20  1  0  0  0  0
 20 21  2  0  0  0  0
 20 24  1  0  0  0  0
 21 22  1  0  0  0  0
 22 23  2  0  0  0  0
 25 26  1  0  0  0  0
 26 27  1  0  0  0  0
 26 28  2  0  0  0  0
 26 29  2  0  0  0  0
M  END
> <ID>
11183

> <Formula>
C16H22I2N6O4S

> <FW>
648.2576 (275.0896+275.0896+98.0785)

> <DSSTox_CID>
25773

> <DSSTox_RID>
81115

> <DSSTox_GSID>
45773

> <DSSTox_FileID_Sort>
5796

> <TS_ChemName>
3-Iodobenzylguanidine hemisulfate

> <TS_ChemName_Synonyms>


> <TS_CASRN>
87862-25-7

> <CASRN_ChemName_Relationship>
primary

> <TS_Description>
single chemical compound

> <ChemNote>
parent [80663-95-2]

> <STRUCTURE_Shown>
tested chemical

> <STRUCTURE_Formula>
C16H22I2N6O4S

> <STRUCTURE_MW>
648.2576

> <STRUCTURE_ChemType>
defined organic

> <STRUCTURE_DefinedOrganicForm>
complex

> <STRUCTURE_IUPAC>
1-(3-iodobenzyl)guanidine sulfate (2:1)

> <STRUCTURE_SMILES>
Ic1cc(CNC(=N)N)ccc1.O=S(=O)(O)O.N=C(N)NCc1cc(I)ccc1

> <STRUCTURE_SMILES_Desalt>
Ic1cc(CNC(=N)N)ccc1

> <Substance_modify_yyyymmdd>
20110902

$$$$
