879-39-0
ChemmineR-0915142007XD

 13 13  0  0  0  0  0  0  0  0  2 V2000
    0.6642   -2.3038    0.0000 N    0  3  0  0  0  0  0  0  0  0  0  0
    0.0000   -3.4586    0.0000 O    0  0  0  0  0  0  0  0  0  0  0  0
    0.0000   -1.1549    0.0000 O    0  5  0  0  0  0  0  0  0  0  0  0
    1.9926   -2.3038    0.0000 C    0  0  0  0  0  0  0  0  0  0  0  0
    2.6568   -1.1549    0.0000 C    0  0  0  0  0  0  0  0  0  0  0  0
    3.9912   -1.1549    0.0000 C    0  0  0  0  0  0  0  0  0  0  0  0
    4.6554    0.0000    0.0000 Cl   0  0  0  0  0  0  0  0  0  0  0  0
    4.6554   -2.3038    0.0000 C    0  0  0  0  0  0  0  0  0  0  0  0
    5.9838   -2.3038    0.0000 Cl   0  0  0  0  0  0  0  0  0  0  0  0
    3.9912   -3.4586    0.0000 C    0  0  0  0  0  0  0  0  0  0  0  0
    4.6554   -4.6075    0.0000 Cl   0  0  0  0  0  0  0  0  0  0  0  0
    2.6568   -3.4586    0.0000 C    0  0  0  0  0  0  0  0  0  0  0  0
    1.9926   -4.6075    0.0000 Cl   0  0  0  0  0  0  0  0  0  0  0  0
  1  2  2  0  0  0  0
  1  3  1  0  0  0  0
  1  4  1  0  0  0  0
  4  5  2  0  0  0  0
  4 12  1  0  0  0  0
  5  6  1  0  0  0  0
  6  7  1  0  0  0  0
  6  8  2  0  0  0  0
  8  9  1  0  0  0  0
  8 10  1  0  0  0  0
 10 11  1  0  0  0  0
 10 12  2  0  0  0  0
 12 13  1  0  0  0  0
M  END
> <ID>
4542

> <Formula>
C6HCl4NO2

> <FW>
260.8896

> <DSSTox_CID>
6097

> <DSSTox_RID>
78015

> <DSSTox_GSID>
26097

> <DSSTox_FileID_Sort>
2698

> <TS_ChemName>
2,3,4,5-Tetrachloronitrobenzene

> <TS_ChemName_Synonyms>


> <TS_CASRN>
879-39-0

> <CASRN_ChemName_Relationship>
primary

> <TS_Description>
single chemical compound

> <ChemNote>


> <STRUCTURE_Shown>
tested chemical

> <STRUCTURE_Formula>
C6HCl4NO2

> <STRUCTURE_MW>
260.8896

> <STRUCTURE_ChemType>
defined organic

> <STRUCTURE_DefinedOrganicForm>
parent

> <STRUCTURE_IUPAC>
1,2,3,4-tetrachloro-5-nitrobenzene

> <STRUCTURE_SMILES>
Clc1c(cc(Cl)c(Cl)c1Cl)[N+]([O-])=O

> <STRUCTURE_SMILES_Desalt>
Clc1c(cc(Cl)c(Cl)c1Cl)[N+]([O-])=O

> <Substance_modify_yyyymmdd>
20080429

$$$$
