87940-60-1
ChemmineR-0915142007XD

 19 20  0  0  0  0  0  0  0  0  1 V2000
    3.4639   -2.0048    0.0000 C    0  0  0  0  0  0  0  0  0  0  0  0
    3.4639   -3.3370    0.0000 C    0  0  0  0  0  0  0  0  0  0  0  0
    2.2966   -1.3450    0.0000 C    0  0  0  0  0  0  0  0  0  0  0  0
    2.2966   -3.9968    0.0000 C    0  0  0  0  0  0  0  0  0  0  0  0
    1.1546   -2.0048    0.0000 C    0  0  0  0  0  0  0  0  0  0  0  0
    1.1546   -3.3370    0.0000 C    0  0  0  0  0  0  0  0  0  0  0  0
    0.0000   -3.9968    0.0000 Cl   0  0  0  0  0  0  0  0  0  0  0  0
    4.6186   -1.3450    0.0000 C    0  0  0  0  0  0  0  0  0  0  0  0
    4.6186    0.0000    0.0000 O    0  0  0  0  0  0  0  0  0  0  0  0
    5.7859   -2.0048    0.0000 N    0  0  0  0  0  0  0  0  0  0  0  0
    6.9278   -1.3450    0.0000 C    0  0  0  0  0  0  0  0  0  0  0  0
    8.0698   -2.0048    0.0000 C    0  0  0  0  0  0  0  0  0  0  0  0
    9.2244   -1.3450    0.0000 C    0  0  0  0  0  0  0  0  0  0  0  0
   10.3917   -2.0048    0.0000 N    0  0  0  0  0  0  0  0  0  0  0  0
   11.5337   -1.3450    0.0000 C    0  0  0  0  0  0  0  0  0  0  0  0
   10.3917   -3.3370    0.0000 C    0  0  0  0  0  0  0  0  0  0  0  0
   12.6883   -2.0048    0.0000 C    0  0  0  0  0  0  0  0  0  0  0  0
   11.5337   -3.9968    0.0000 C    0  0  0  0  0  0  0  0  0  0  0  0
   12.6883   -3.3370    0.0000 O    0  0  0  0  0  0  0  0  0  0  0  0
  1  2  2  0  0  0  0
  1  3  1  0  0  0  0
  1  8  1  0  0  0  0
  2  4  1  0  0  0  0
  3  5  2  0  0  0  0
  4  6  2  0  0  0  0
  5  6  1  0  0  0  0
  6  7  1  0  0  0  0
  8  9  2  0  0  0  0
  8 10  1  0  0  0  0
 10 11  1  0  0  0  0
 11 12  1  0  0  0  0
 12 13  1  0  0  0  0
 13 14  1  0  0  0  0
 14 15  1  0  0  0  0
 14 16  1  0  0  0  0
 15 17  1  0  0  0  0
 16 18  1  0  0  0  0
 17 19  1  0  0  0  0
 18 19  1  0  0  0  0
M  END
> <ID>
11655

> <Formula>
C14H19ClN2O2

> <FW>
282.7659

> <DSSTox_CID>
26409

> <DSSTox_RID>
81588

> <DSSTox_GSID>
46409

> <DSSTox_FileID_Sort>
6269

> <TS_ChemName>
Eprobemide

> <TS_ChemName_Synonyms>


> <TS_CASRN>
87940-60-1

> <CASRN_ChemName_Relationship>
primary

> <TS_Description>
single chemical compound

> <ChemNote>


> <STRUCTURE_Shown>
tested chemical

> <STRUCTURE_Formula>
C14H19ClN2O2

> <STRUCTURE_MW>
282.7659

> <STRUCTURE_ChemType>
defined organic

> <STRUCTURE_DefinedOrganicForm>
parent

> <STRUCTURE_IUPAC>
4-chloro-N-[3-(morpholin-4-yl)propyl]benzamide

> <STRUCTURE_SMILES>
Clc1ccc(cc1)C(=O)NCCCN2CCOCC2

> <STRUCTURE_SMILES_Desalt>
Clc1ccc(cc1)C(=O)NCCCN2CCOCC2

> <Substance_modify_yyyymmdd>
20110813

$$$$
