879866-95-2
ChemmineR-0915142007XD

 15 14  0  0  0  0  0  0  0  0  2 V2000
    7.6338   -5.8037    0.0000 C   0  0  0  0  0  0  0  0  0  0  0  0
    5.3292   -3.1433    0.0000 C   0  0  0  0  0  0  0  0  0  0  0  0
    7.6338   -4.4735    0.0000 C   0  0  0  0  0  0  0  0  0  0  0  0
    7.8117   -0.1779    0.0000 C   0  0  0  0  0  0  0  0  0  0  0  0
    6.4815   -0.1779    0.0000 C   0  0  0  0  0  0  0  0  0  0  0  0
    8.4726   -1.3302    0.0000 C   0  0  0  0  0  0  0  0  0  0  0  0
    6.4815   -3.8127    0.0000 C   0  0  0  0  0  0  0  0  0  0  0  0
    5.8122   -1.3302    0.0000 C   0  0  0  0  0  0  0  0  0  0  0  0
    7.8117   -2.4825    0.0000 C   0  0  0  0  0  0  0  0  0  0  0  0
    6.4815   -2.4825    0.0000 N   0  3  0  0  0  0  0  0  0  0  0  0
    1.3302   -1.3302    0.0000 B   0  5  0  0  0  0  0  0  0  0  0  0
    0.0000   -1.3302    0.0000 F   0  0  0  0  0  0  0  0  0  0  0  0
    1.3302   -2.6604    0.0000 F   0  0  0  0  0  0  0  0  0  0  0  0
    1.3302    0.0000    0.0000 F   0  0  0  0  0  0  0  0  0  0  0  0
    2.6604   -1.3302    0.0000 F   0  0  0  0  0  0  0  0  0  0  0  0
  1  3  1  0  0  0  0
  2 10  1  0  0  0  0
  3  7  1  0  0  0  0
  4  5  1  0  0  0  0
  4  6  1  0  0  0  0
  5  8  1  0  0  0  0
  6  9  1  0  0  0  0
  7 10  1  0  0  0  0
  8 10  1  0  0  0  0
  9 10  1  0  0  0  0
 11 12  1  0  0  0  0
 11 13  1  0  0  0  0
 11 14  1  0  0  0  0
 11 15  1  0  0  0  0
M  END
> <ID>
14231

> <Formula>
C9H20BF4N

> <FW>
229.0664 (142.2613+86.8052)

> <DSSTox_CID>
29326

> <DSSTox_RID>
83442

> <DSSTox_GSID>
49367

> <DSSTox_FileID_Sort>
8117

> <TS_ChemName>
1-Methyl-1-propylpiperidinium tetrafluoroborate

> <TS_ChemName_Synonyms>


> <TS_CASRN>
879866-95-2

> <CASRN_ChemName_Relationship>
primary

> <TS_Description>
single chemical compound

> <ChemNote>


> <STRUCTURE_Shown>
tested chemical

> <STRUCTURE_Formula>
C9H20BF4N

> <STRUCTURE_MW>
229.0664

> <STRUCTURE_ChemType>
defined organic

> <STRUCTURE_DefinedOrganicForm>
complex

> <STRUCTURE_IUPAC>
1-methyl-1-propylpiperidinium tetrafluoroborate

> <STRUCTURE_SMILES>
CCC[N+]1(C)CCCCC1.F[B-](F)(F)F

> <STRUCTURE_SMILES_Desalt>
CCC[N+]1(C)CCCCC1

> <Substance_modify_yyyymmdd>
20111204

$$$$
