88-04-0
ChemmineR-0915142007XD

 10 10  0  0  0  0  0  0  0  0  1 V2000
    2.3091   -1.3301    0.0000 C    0  0  0  0  0  0  0  0  0  0  0  0
    2.3091    0.0000    0.0000 O    0  0  0  0  0  0  0  0  0  0  0  0
    3.4637   -2.0059    0.0000 C    0  0  0  0  0  0  0  0  0  0  0  0
    1.1546   -2.0059    0.0000 C    0  0  0  0  0  0  0  0  0  0  0  0
    1.1546   -3.3360    0.0000 C    0  0  0  0  0  0  0  0  0  0  0  0
    3.4637   -3.3360    0.0000 C    0  0  0  0  0  0  0  0  0  0  0  0
    2.3091   -3.9904    0.0000 C    0  0  0  0  0  0  0  0  0  0  0  0
    2.3091   -5.3206    0.0000 Cl   0  0  0  0  0  0  0  0  0  0  0  0
    4.6129   -3.9904    0.0000 C    0  0  0  0  0  0  0  0  0  0  0  0
    0.0000   -3.9904    0.0000 C    0  0  0  0  0  0  0  0  0  0  0  0
  1  2  1  0  0  0  0
  1  3  2  0  0  0  0
  1  4  1  0  0  0  0
  3  6  1  0  0  0  0
  4  5  2  0  0  0  0
  5  7  1  0  0  0  0
  5 10  1  0  0  0  0
  6  7  2  0  0  0  0
  6  9  1  0  0  0  0
  7  8  1  0  0  0  0
M  END
> <ID>
6416

> <Formula>
C8H9ClO

> <FW>
156.6095

> <DSSTox_CID>
12316

> <DSSTox_RID>
78913

> <DSSTox_GSID>
32316

> <DSSTox_FileID_Sort>
3595

> <TS_ChemName>
4-Chloro-3,5-dimethylphenol

> <TS_ChemName_Synonyms>
4-Chloro-3,5-dimethylphenol (4-Chloro-3,5-xylenol) (Chloroxylenol)

> <TS_CASRN>
88-04-0

> <CASRN_ChemName_Relationship>
primary

> <TS_Description>
single chemical compound

> <ChemNote>


> <STRUCTURE_Shown>
tested chemical

> <STRUCTURE_Formula>
C8H9ClO

> <STRUCTURE_MW>
156.6095

> <STRUCTURE_ChemType>
defined organic

> <STRUCTURE_DefinedOrganicForm>
parent

> <STRUCTURE_IUPAC>
4-chloro-3,5-dimethylphenol

> <STRUCTURE_SMILES>
Oc1cc(C)c(Cl)c(C)c1

> <STRUCTURE_SMILES_Desalt>
Oc1cc(C)c(Cl)c(C)c1

> <Substance_modify_yyyymmdd>
20080429

$$$$
