88-09-5
ChemmineR-0915142007XD

  8  7  0  0  0  0  0  0  0  0  1 V2000
    3.4927   -1.3230    0.0000 C   0  0  0  0  0  0  0  0  0  0  0  0
    3.4927    0.0000    0.0000 O   0  0  0  0  0  0  0  0  0  0  0  0
    4.6260   -1.9938    0.0000 O   0  0  0  0  0  0  0  0  0  0  0  0
    2.3454   -1.9938    0.0000 C   0  0  0  0  0  0  0  0  0  0  0  0
    1.1473   -1.3369    0.0000 C   0  0  0  0  0  0  0  0  0  0  0  0
    0.0000   -1.9938    0.0000 C   0  0  0  0  0  0  0  0  0  0  0  0
    2.3778   -3.3169    0.0000 C   0  0  0  0  0  0  0  0  0  0  0  0
    3.5436   -3.9553    0.0000 C   0  0  0  0  0  0  0  0  0  0  0  0
  1  2  2  0  0  0  0
  1  3  1  0  0  0  0
  1  4  1  0  0  0  0
  4  5  1  0  0  0  0
  4  7  1  0  0  0  0
  5  6  1  0  0  0  0
  7  8  1  0  0  0  0
M  END
> <ID>
8384

> <Formula>
C6H12O2

> <FW>
116.1583

> <DSSTox_CID>
21418

> <DSSTox_RID>
79723

> <DSSTox_GSID>
41418

> <DSSTox_FileID_Sort>
4405

> <TS_ChemName>
2-Ethylbutyric acid

> <TS_ChemName_Synonyms>


> <TS_CASRN>
88-09-5

> <CASRN_ChemName_Relationship>
primary

> <TS_Description>
single chemical compound

> <ChemNote>


> <STRUCTURE_Shown>
tested chemical

> <STRUCTURE_Formula>
C6H12O2

> <STRUCTURE_MW>
116.1583

> <STRUCTURE_ChemType>
defined organic

> <STRUCTURE_DefinedOrganicForm>
parent

> <STRUCTURE_IUPAC>
2-ethylbutanoic acid

> <STRUCTURE_SMILES>
CCC(CC)C(=O)O

> <STRUCTURE_SMILES_Desalt>
CCC(CC)C(=O)O

> <Substance_modify_yyyymmdd>
20080825

$$$$
