88-12-0
ChemmineR-0915142007XD

  8  8  0  0  0  0  0  0  0  0  1 V2000
    2.1180   -0.5316    0.0000 C   0  0  0  0  0  0  0  0  0  0  0  0
    3.3374    0.0000    0.0000 C   0  0  0  0  0  0  0  0  0  0  0  0
    2.2615   -1.8607    0.0000 N   0  0  0  0  0  0  0  0  0  0  0  0
    4.2192   -0.9789    0.0000 C   0  0  0  0  0  0  0  0  0  0  0  0
    3.5610   -2.1349    0.0000 C   0  0  0  0  0  0  0  0  0  0  0  0
    4.1053   -3.3543    0.0000 O   0  0  0  0  0  0  0  0  0  0  0  0
    1.2658   -2.7467    0.0000 C   0  0  0  0  0  0  0  0  0  0  0  0
    0.0000   -2.3416    0.0000 C   0  0  0  0  0  0  0  0  0  0  0  0
  1  2  1  0  0  0  0
  1  3  1  0  0  0  0
  2  4  1  0  0  0  0
  3  5  1  0  0  0  0
  3  7  1  0  0  0  0
  4  5  1  0  0  0  0
  5  6  2  0  0  0  0
  7  8  2  0  0  0  0
M  END
> <ID>
1383

> <Formula>
C6H9NO

> <FW>
111.1418

> <DSSTox_CID>
1440

> <DSSTox_RID>
76160

> <DSSTox_GSID>
21440

> <DSSTox_FileID_Sort>
844

> <TS_ChemName>
N-Vinyl-2-pyrrolidone

> <TS_ChemName_Synonyms>
1-Vinyl-2-pyrrolidone (N-Vinyl-2-pyrrolidone) (2-Pyrrolidinone, 1-ethenyl-)

> <TS_CASRN>
88-12-0

> <CASRN_ChemName_Relationship>
primary

> <TS_Description>
single chemical compound

> <ChemNote>


> <STRUCTURE_Shown>
tested chemical

> <STRUCTURE_Formula>
C6H9NO

> <STRUCTURE_MW>
111.1418

> <STRUCTURE_ChemType>
defined organic

> <STRUCTURE_DefinedOrganicForm>
parent

> <STRUCTURE_IUPAC>
1-ethenylpyrrolidin-2-one

> <STRUCTURE_SMILES>
O=C1CCCN1C=C

> <STRUCTURE_SMILES_Desalt>
O=C1CCCN1C=C

> <Substance_modify_yyyymmdd>
20080429

$$$$
