88-18-6
ChemmineR-0915142007XD

 11 11  0  0  0  0  0  0  0  0  1 V2000
    1.1483   -1.3412    0.0000 C   0  0  0  0  0  0  0  0  0  0  0  0
    1.1483    0.0000    0.0000 O   0  0  0  0  0  0  0  0  0  0  0  0
    2.2966   -1.9935    0.0000 C   0  0  0  0  0  0  0  0  0  0  0  0
    0.0000   -1.9935    0.0000 C   0  0  0  0  0  0  0  0  0  0  0  0
    0.0000   -3.3163    0.0000 C   0  0  0  0  0  0  0  0  0  0  0  0
    2.2966   -3.3163    0.0000 C   0  0  0  0  0  0  0  0  0  0  0  0
    1.1483   -3.9869    0.0000 C   0  0  0  0  0  0  0  0  0  0  0  0
    3.4449   -1.3412    0.0000 C   0  0  0  0  0  0  0  0  0  0  0  0
    3.1280   -0.0965    0.0000 C   0  0  0  0  0  0  0  0  0  0  0  0
    4.4003   -2.3747    0.0000 C   0  0  0  0  0  0  0  0  0  0  0  0
    4.5932   -0.6706    0.0000 C   0  0  0  0  0  0  0  0  0  0  0  0
  1  2  1  0  0  0  0
  1  3  2  0  0  0  0
  1  4  1  0  0  0  0
  3  6  1  0  0  0  0
  3  8  1  0  0  0  0
  4  5  2  0  0  0  0
  5  7  1  0  0  0  0
  6  7  2  0  0  0  0
  8  9  1  0  0  0  0
  8 10  1  0  0  0  0
  8 11  1  0  0  0  0
M  END
> <ID>
4710

> <Formula>
C10H14O

> <FW>
150.2176

> <DSSTox_CID>
6525

> <DSSTox_RID>
78136

> <DSSTox_GSID>
26525

> <DSSTox_FileID_Sort>
2819

> <TS_ChemName>
2-tert-Butylphenol

> <TS_ChemName_Synonyms>
2-tert-Butylphenol (Phenol, 2-(1,1-dimethylethyl)-)

> <TS_CASRN>
88-18-6

> <CASRN_ChemName_Relationship>
primary

> <TS_Description>
single chemical compound

> <ChemNote>


> <STRUCTURE_Shown>
tested chemical

> <STRUCTURE_Formula>
C10H14O

> <STRUCTURE_MW>
150.2176

> <STRUCTURE_ChemType>
defined organic

> <STRUCTURE_DefinedOrganicForm>
parent

> <STRUCTURE_IUPAC>
2-tert-butylphenol

> <STRUCTURE_SMILES>
CC(C)(C)c1ccccc1O

> <STRUCTURE_SMILES_Desalt>
CC(C)(C)c1ccccc1O

> <Substance_modify_yyyymmdd>
20080429

$$$$
