88-19-7
ChemmineR-0915142007XD

 11 11  0  0  0  0  0  0  0  0  1 V2000
    2.6588    0.0000    0.0000 C   0  0  0  0  0  0  0  0  0  0  0  0
    1.9941   -1.1486    0.0000 C   0  0  0  0  0  0  0  0  0  0  0  0
    2.6588   -2.3025    0.0000 C   0  0  0  0  0  0  0  0  0  0  0  0
    1.9941   -3.4564    0.0000 C   0  0  0  0  0  0  0  0  0  0  0  0
    0.6647   -3.4564    0.0000 C   0  0  0  0  0  0  0  0  0  0  0  0
    0.0000   -2.3025    0.0000 C   0  0  0  0  0  0  0  0  0  0  0  0
    0.6647   -1.1486    0.0000 C   0  0  0  0  0  0  0  0  0  0  0  0
    3.9882   -2.3025    0.0000 S   0  0  0  0  0  0  0  0  0  0  0  0
    3.9882   -0.9731    0.0000 O   0  0  0  0  0  0  0  0  0  0  0  0
    3.9882   -3.6319    0.0000 O   0  0  0  0  0  0  0  0  0  0  0  0
    5.3175   -2.3025    0.0000 N   0  0  0  0  0  0  0  0  0  0  0  0
  1  2  1  0  0  0  0
  2  3  2  0  0  0  0
  2  7  1  0  0  0  0
  3  4  1  0  0  0  0
  3  8  1  0  0  0  0
  4  5  2  0  0  0  0
  5  6  1  0  0  0  0
  6  7  2  0  0  0  0
  8  9  2  0  0  0  0
  8 10  2  0  0  0  0
  8 11  1  0  0  0  0
M  END
> <ID>
1309

> <Formula>
C7H9NO2S

> <FW>
171.2169

> <DSSTox_CID>
1362

> <DSSTox_RID>
76108

> <DSSTox_GSID>
21362

> <DSSTox_FileID_Sort>
792

> <TS_ChemName>
o-Toluenesulfonamide

> <TS_ChemName_Synonyms>


> <TS_CASRN>
88-19-7

> <CASRN_ChemName_Relationship>
primary

> <TS_Description>
single chemical compound

> <ChemNote>


> <STRUCTURE_Shown>
tested chemical

> <STRUCTURE_Formula>
C7H9NO2S

> <STRUCTURE_MW>
171.2169

> <STRUCTURE_ChemType>
defined organic

> <STRUCTURE_DefinedOrganicForm>
parent

> <STRUCTURE_IUPAC>
2-methylbenzenesulfonamide

> <STRUCTURE_SMILES>
Cc1ccccc1S(=O)(N)=O

> <STRUCTURE_SMILES_Desalt>
Cc1ccccc1S(=O)(N)=O

> <Substance_modify_yyyymmdd>
20080429

$$$$
