88-14-2
ChemmineR-0915142007XD

  8  8  0  0  0  0  0  0  0  0  1 V2000
    2.1645   -1.7459    0.0000 C   0  0  0  0  0  0  0  0  0  0  0  0
    3.3982   -1.2960    0.0000 C   0  0  0  0  0  0  0  0  0  0  0  0
    1.0734   -1.0066    0.0000 O   0  0  0  0  0  0  0  0  0  0  0  0
    1.7459   -3.0419    0.0000 C   0  0  0  0  0  0  0  0  0  0  0  0
    3.6521    0.0000    0.0000 O   0  0  0  0  0  0  0  0  0  0  0  0
    0.0000   -1.7459    0.0000 C   0  0  0  0  0  0  0  0  0  0  0  0
    0.4187   -3.0419    0.0000 C   0  0  0  0  0  0  0  0  0  0  0  0
    4.4538   -2.1111    0.0000 O   0  0  0  0  0  0  0  0  0  0  0  0
  1  2  1  0  0  0  0
  1  3  1  0  0  0  0
  1  4  2  0  0  0  0
  2  5  2  0  0  0  0
  2  8  1  0  0  0  0
  3  6  1  0  0  0  0
  4  7  1  0  0  0  0
  6  7  2  0  0  0  0
M  END
> <ID>
8386

> <Formula>
C5H4O3

> <FW>
112.0835

> <DSSTox_CID>
21420

> <DSSTox_RID>
79724

> <DSSTox_GSID>
41420

> <DSSTox_FileID_Sort>
4406

> <TS_ChemName>
2-Furancarboxylic acid

> <TS_ChemName_Synonyms>
2-Furancarboxylic acid (2-Furoic acid)

> <TS_CASRN>
88-14-2

> <CASRN_ChemName_Relationship>
primary

> <TS_Description>
single chemical compound

> <ChemNote>


> <STRUCTURE_Shown>
tested chemical

> <STRUCTURE_Formula>
C5H4O3

> <STRUCTURE_MW>
112.0835

> <STRUCTURE_ChemType>
defined organic

> <STRUCTURE_DefinedOrganicForm>
parent

> <STRUCTURE_IUPAC>
furan-2-carboxylato

> <STRUCTURE_SMILES>
O=C(O)c1ccco1

> <STRUCTURE_SMILES_Desalt>
O=C(O)c1ccco1

> <Substance_modify_yyyymmdd>
20080825

$$$$
