88-21-1
ChemmineR-0915142007XD

 11 11  0  0  0  0  0  0  0  0  1 V2000
    3.9882   -2.3025    0.0000 S   0  0  0  0  0  0  0  0  0  0  0  0
    3.9882   -3.6319    0.0000 O   0  0  0  0  0  0  0  0  0  0  0  0
    3.9882   -0.9731    0.0000 O   0  0  0  0  0  0  0  0  0  0  0  0
    5.3175   -2.3025    0.0000 O   0  0  0  0  0  0  0  0  0  0  0  0
    2.6588   -2.3025    0.0000 C   0  0  0  0  0  0  0  0  0  0  0  0
    1.9941   -3.4564    0.0000 C   0  0  0  0  0  0  0  0  0  0  0  0
    0.6647   -3.4564    0.0000 C   0  0  0  0  0  0  0  0  0  0  0  0
    0.0000   -2.3025    0.0000 C   0  0  0  0  0  0  0  0  0  0  0  0
    0.6647   -1.1486    0.0000 C   0  0  0  0  0  0  0  0  0  0  0  0
    1.9941   -1.1486    0.0000 C   0  0  0  0  0  0  0  0  0  0  0  0
    2.6588    0.0000    0.0000 N   0  0  0  0  0  0  0  0  0  0  0  0
  1  2  2  0  0  0  0
  1  3  2  0  0  0  0
  1  4  1  0  0  0  0
  1  5  1  0  0  0  0
  5  6  2  0  0  0  0
  5 10  1  0  0  0  0
  6  7  1  0  0  0  0
  7  8  2  0  0  0  0
  8  9  1  0  0  0  0
  9 10  2  0  0  0  0
 10 11  1  0  0  0  0
M  END
> <ID>
3689

> <Formula>
C6H7NO3S

> <FW>
173.1897

> <DSSTox_CID>
4463

> <DSSTox_RID>
77409

> <DSSTox_GSID>
24463

> <DSSTox_FileID_Sort>
2092

> <TS_ChemName>
Orthanilic acid

> <TS_ChemName_Synonyms>
Orthanilic acid (2-Aminobenzenesulfonic acid)

> <TS_CASRN>
88-21-1

> <CASRN_ChemName_Relationship>
primary

> <TS_Description>
single chemical compound

> <ChemNote>


> <STRUCTURE_Shown>
tested chemical

> <STRUCTURE_Formula>
C6H7NO3S

> <STRUCTURE_MW>
173.1897

> <STRUCTURE_ChemType>
defined organic

> <STRUCTURE_DefinedOrganicForm>
parent

> <STRUCTURE_IUPAC>
2-aminobenzenesulfonic acid

> <STRUCTURE_SMILES>
Nc1ccccc1S(O)(=O)=O

> <STRUCTURE_SMILES_Desalt>
Nc1ccccc1S(O)(=O)=O

> <Substance_modify_yyyymmdd>
20080429

$$$$
