88-24-4
ChemmineR-0915142007XD

 27 28  0  0  0  0  0  0  0  0  1 V2000
    3.4890   -3.3549    0.0000 C   0  0  0  0  0  0  0  0  0  0  0  0
    4.6761   -2.6839    0.0000 O   0  0  0  0  0  0  0  0  0  0  0  0
    3.4787   -4.7278    0.0000 C   0  0  0  0  0  0  0  0  0  0  0  0
    2.3123   -2.6736    0.0000 C   0  0  0  0  0  0  0  0  0  0  0  0
    1.1665   -3.3961    0.0000 C   0  0  0  0  0  0  0  0  0  0  0  0
    2.2916   -5.3884    0.0000 C   0  0  0  0  0  0  0  0  0  0  0  0
    1.1665   -4.6968    0.0000 C   0  0  0  0  0  0  0  0  0  0  0  0
    2.3226   -1.3316    0.0000 C   0  0  0  0  0  0  0  0  0  0  0  0
    2.3432    0.0000    0.0000 C   0  0  0  0  0  0  0  0  0  0  0  0
    0.9910   -1.3316    0.0000 C   0  0  0  0  0  0  0  0  0  0  0  0
    3.6542   -1.3419    0.0000 C   0  0  0  0  0  0  0  0  0  0  0  0
    0.0206   -5.3471    0.0000 C   0  0  0  0  0  0  0  0  0  0  0  0
    0.0000   -6.6891    0.0000 C   0  0  0  0  0  0  0  0  0  0  0  0
    6.9265   -5.4710    0.0000 C   0  0  0  0  0  0  0  0  0  0  0  0
    6.8749   -6.7820    0.0000 O   0  0  0  0  0  0  0  0  0  0  0  0
    5.7497   -4.7897    0.0000 C   0  0  0  0  0  0  0  0  0  0  0  0
    8.0620   -4.8207    0.0000 C   0  0  0  0  0  0  0  0  0  0  0  0
    8.0620   -3.4890    0.0000 C   0  0  0  0  0  0  0  0  0  0  0  0
    5.7703   -3.4271    0.0000 C   0  0  0  0  0  0  0  0  0  0  0  0
    6.9368   -2.8490    0.0000 C   0  0  0  0  0  0  0  0  0  0  0  0
    9.1871   -5.4710    0.0000 C   0  0  0  0  0  0  0  0  0  0  0  0
    9.8478   -4.3458    0.0000 C   0  0  0  0  0  0  0  0  0  0  0  0
    8.5368   -6.6065    0.0000 C   0  0  0  0  0  0  0  0  0  0  0  0
   10.3226   -6.1316    0.0000 C   0  0  0  0  0  0  0  0  0  0  0  0
    6.9574   -1.4658    0.0000 C   0  0  0  0  0  0  0  0  0  0  0  0
    5.8220   -0.8258    0.0000 C   0  0  0  0  0  0  0  0  0  0  0  0
    4.6039   -5.4194    0.0000 C   0  0  0  0  0  0  0  0  0  0  0  0
  1  2  1  0  0  0  0
  1  3  2  0  0  0  0
  1  4  1  0  0  0  0
  3  6  1  0  0  0  0
  3 27  1  0  0  0  0
  4  5  2  0  0  0  0
  4  8  1  0  0  0  0
  5  7  1  0  0  0  0
  6  7  2  0  0  0  0
  7 12  1  0  0  0  0
  8  9  1  0  0  0  0
  8 10  1  0  0  0  0
  8 11  1  0  0  0  0
 12 13  1  0  0  0  0
 14 15  1  0  0  0  0
 14 16  2  0  0  0  0
 14 17  1  0  0  0  0
 16 19  1  0  0  0  0
 16 27  1  0  0  0  0
 17 18  2  0  0  0  0
 17 21  1  0  0  0  0
 18 20  1  0  0  0  0
 19 20  2  0  0  0  0
 20 25  1  0  0  0  0
 21 22  1  0  0  0  0
 21 23  1  0  0  0  0
 21 24  1  0  0  0  0
 25 26  1  0  0  0  0
M  END
> <ID>
7527

> <Formula>
C25H36O2

> <FW>
368.5521

> <DSSTox_CID>
18864

> <DSSTox_RID>
79411

> <DSSTox_GSID>
38864

> <DSSTox_FileID_Sort>
4093

> <TS_ChemName>
2,2'-Methylenebis(ethyl-6-tert-butylphenol)

> <TS_ChemName_Synonyms>
Phenol, 2,2'-methylenebis(6-tert-butyl-4-ethyl-

> <TS_CASRN>
88-24-4

> <CASRN_ChemName_Relationship>
primary

> <TS_Description>
single chemical compound

> <ChemNote>


> <STRUCTURE_Shown>
tested chemical

> <STRUCTURE_Formula>
C25H36O2

> <STRUCTURE_MW>
368.5521

> <STRUCTURE_ChemType>
defined organic

> <STRUCTURE_DefinedOrganicForm>
parent

> <STRUCTURE_IUPAC>
2,2'-methanediylbis(6-tert-butyl-4-ethylphenol)

> <STRUCTURE_SMILES>
CC(C)(C)c2cc(cc(Cc1cc(CC)cc(c1O)C(C)(C)C)c2O)CC

> <STRUCTURE_SMILES_Desalt>
CC(C)(C)c2cc(cc(Cc1cc(CC)cc(c1O)C(C)(C)C)c2O)CC

> <Substance_modify_yyyymmdd>
20080429

$$$$
