88-27-7
ChemmineR-0915142007XD

 19 19  0  0  0  0  0  0  0  0  1 V2000
    2.3164   -3.9877    0.0000 C   0  0  0  0  0  0  0  0  0  0  0  0
    1.1582   -4.6620    0.0000 O   0  0  0  0  0  0  0  0  0  0  0  0
    2.3164   -2.6682    0.0000 C   0  0  0  0  0  0  0  0  0  0  0  0
    3.4525   -4.6620    0.0000 C   0  0  0  0  0  0  0  0  0  0  0  0
    4.5961   -3.9877    0.0000 C   0  0  0  0  0  0  0  0  0  0  0  0
    3.4525   -2.0085    0.0000 C   0  0  0  0  0  0  0  0  0  0  0  0
    4.5961   -2.6682    0.0000 C   0  0  0  0  0  0  0  0  0  0  0  0
    5.7542   -2.0085    0.0000 C   0  0  0  0  0  0  0  0  0  0  0  0
    5.7542   -0.6744    0.0000 N   0  0  0  0  0  0  0  0  0  0  0  0
    4.5961    0.0000    0.0000 C   0  0  0  0  0  0  0  0  0  0  0  0
    6.9124    0.0000    0.0000 C   0  0  0  0  0  0  0  0  0  0  0  0
    1.1582   -2.0085    0.0000 C   0  0  0  0  0  0  0  0  0  0  0  0
    0.4985   -3.1667    0.0000 C   0  0  0  0  0  0  0  0  0  0  0  0
    1.8179   -0.8503    0.0000 C   0  0  0  0  0  0  0  0  0  0  0  0
    0.0000   -1.3341    0.0000 C   0  0  0  0  0  0  0  0  0  0  0  0
    3.4525   -5.9961    0.0000 C   0  0  0  0  0  0  0  0  0  0  0  0
    2.1404   -5.9961    0.0000 C   0  0  0  0  0  0  0  0  0  0  0  0
    4.7940   -5.9961    0.0000 C   0  0  0  0  0  0  0  0  0  0  0  0
    3.4525   -7.3302    0.0000 C   0  0  0  0  0  0  0  0  0  0  0  0
  1  2  1  0  0  0  0
  1  3  2  0  0  0  0
  1  4  1  0  0  0  0
  3  6  1  0  0  0  0
  3 12  1  0  0  0  0
  4  5  2  0  0  0  0
  4 16  1  0  0  0  0
  5  7  1  0  0  0  0
  6  7  2  0  0  0  0
  7  8  1  0  0  0  0
  8  9  1  0  0  0  0
  9 10  1  0  0  0  0
  9 11  1  0  0  0  0
 12 13  1  0  0  0  0
 12 14  1  0  0  0  0
 12 15  1  0  0  0  0
 16 17  1  0  0  0  0
 16 18  1  0  0  0  0
 16 19  1  0  0  0  0
M  END
> <ID>
10644

> <Formula>
C17H29NO

> <FW>
263.4183

> <DSSTox_CID>
24997

> <DSSTox_RID>
80642

> <DSSTox_GSID>
44997

> <DSSTox_FileID_Sort>
5324

> <TS_ChemName>
2,6-Di-tert-butyl-4-[(dimethylamino)methyl]phenol

> <TS_ChemName_Synonyms>
2,6-Di-tert-butyl-4-[(dimethylamino)methyl]phenol (Phenol, 4-[(dimethylamino)methyl]-2,6-bis(1,1-dimethylethyl)-)

> <TS_CASRN>
88-27-7

> <CASRN_ChemName_Relationship>
primary

> <TS_Description>
single chemical compound

> <ChemNote>


> <STRUCTURE_Shown>
tested chemical

> <STRUCTURE_Formula>
C17H29NO

> <STRUCTURE_MW>
263.4183

> <STRUCTURE_ChemType>
defined organic

> <STRUCTURE_DefinedOrganicForm>
parent

> <STRUCTURE_IUPAC>
2,6-di-tert-butyl-4-[(dimethylamino)methyl]phenol

> <STRUCTURE_SMILES>
CC(C)(C)c1cc(cc(c1O)C(C)(C)C)CN(C)C

> <STRUCTURE_SMILES_Desalt>
CC(C)(C)c1cc(cc(c1O)C(C)(C)C)CN(C)C

> <Substance_modify_yyyymmdd>
20091116

$$$$
