88-44-8
ChemmineR-0915142007XD

 12 12  0  0  0  0  0  0  0  0  1 V2000
    2.0280   -2.2787    0.0000 C   0  0  0  0  0  0  0  0  0  0  0  0
    2.7059   -3.4180    0.0000 C   0  0  0  0  0  0  0  0  0  0  0  0
    2.0280   -4.5574    0.0000 C   0  0  0  0  0  0  0  0  0  0  0  0
    0.7121   -4.5574    0.0000 C   0  0  0  0  0  0  0  0  0  0  0  0
    0.0000   -3.4180    0.0000 C   0  0  0  0  0  0  0  0  0  0  0  0
    0.7121   -2.2787    0.0000 C   0  0  0  0  0  0  0  0  0  0  0  0
    2.6433   -1.1393    0.0000 S   0  0  0  0  0  0  0  0  0  0  0  0
    3.9421   -1.8514    0.0000 O   0  0  0  0  0  0  0  0  0  0  0  0
    3.2756    0.0000    0.0000 O   0  0  0  0  0  0  0  0  0  0  0  0
    1.5324   -0.4728    0.0000 O   0  0  0  0  0  0  0  0  0  0  0  0
    0.0456   -1.1393    0.0000 N   0  0  0  0  0  0  0  0  0  0  0  0
    2.6433   -5.6967    0.0000 C   0  0  0  0  0  0  0  0  0  0  0  0
  1  2  2  0  0  0  0
  1  6  1  0  0  0  0
  1  7  1  0  0  0  0
  2  3  1  0  0  0  0
  3  4  2  0  0  0  0
  3 12  1  0  0  0  0
  4  5  1  0  0  0  0
  5  6  2  0  0  0  0
  6 11  1  0  0  0  0
  7  8  2  0  0  0  0
  7  9  1  0  0  0  0
  7 10  2  0  0  0  0
M  END
> <ID>
4711

> <Formula>
C7H9NO3S

> <FW>
187.2163

> <DSSTox_CID>
6526

> <DSSTox_RID>
78137

> <DSSTox_GSID>
26526

> <DSSTox_FileID_Sort>
2820

> <TS_ChemName>
2-Amino-5-methylbenzenesulfonic acid

> <TS_ChemName_Synonyms>


> <TS_CASRN>
88-44-8

> <CASRN_ChemName_Relationship>
primary

> <TS_Description>
single chemical compound

> <ChemNote>


> <STRUCTURE_Shown>
tested chemical

> <STRUCTURE_Formula>
C7H9NO3S

> <STRUCTURE_MW>
187.2163

> <STRUCTURE_ChemType>
defined organic

> <STRUCTURE_DefinedOrganicForm>
parent

> <STRUCTURE_IUPAC>
2-amino-5-methylbenzenesulfonic acid

> <STRUCTURE_SMILES>
Nc1ccc(C)cc1S(O)(=O)=O

> <STRUCTURE_SMILES_Desalt>
Nc1ccc(C)cc1S(O)(=O)=O

> <Substance_modify_yyyymmdd>
20080429

$$$$
