88-51-7
ChemmineR-0915142007XD

 13 13  0  0  0  0  0  0  0  0  1 V2000
    2.0336   -2.2729    0.0000 C    0  0  0  0  0  0  0  0  0  0  0  0
    2.7058   -3.4236    0.0000 C    0  0  0  0  0  0  0  0  0  0  0  0
    2.0336   -4.5629    0.0000 C    0  0  0  0  0  0  0  0  0  0  0  0
    0.7178   -4.5629    0.0000 C    0  0  0  0  0  0  0  0  0  0  0  0
    0.0000   -3.4236    0.0000 C    0  0  0  0  0  0  0  0  0  0  0  0
    0.7178   -2.2729    0.0000 C    0  0  0  0  0  0  0  0  0  0  0  0
    2.6546   -1.1051    0.0000 S    0  0  0  0  0  0  0  0  0  0  0  0
    3.9363   -1.8570    0.0000 O    0  0  0  0  0  0  0  0  0  0  0  0
    3.2812    0.0000    0.0000 O    0  0  0  0  0  0  0  0  0  0  0  0
    1.5380   -0.4785    0.0000 O    0  0  0  0  0  0  0  0  0  0  0  0
    0.0627   -1.1051    0.0000 N    0  0  0  0  0  0  0  0  0  0  0  0
    0.0627   -5.6965    0.0000 Cl   0  0  0  0  0  0  0  0  0  0  0  0
    2.6546   -5.6965    0.0000 C    0  0  0  0  0  0  0  0  0  0  0  0
  1  2  2  0  0  0  0
  1  6  1  0  0  0  0
  1  7  1  0  0  0  0
  2  3  1  0  0  0  0
  3  4  2  0  0  0  0
  3 13  1  0  0  0  0
  4  5  1  0  0  0  0
  4 12  1  0  0  0  0
  5  6  2  0  0  0  0
  6 11  1  0  0  0  0
  7  8  2  0  0  0  0
  7  9  1  0  0  0  0
  7 10  2  0  0  0  0
M  END
> <ID>
4712

> <Formula>
C7H8ClNO3S

> <FW>
221.6613

> <DSSTox_CID>
6527

> <DSSTox_RID>
78138

> <DSSTox_GSID>
26527

> <DSSTox_FileID_Sort>
2821

> <TS_ChemName>
2-Amino-4-chloro-5-methylbenzenesulfonic acid

> <TS_ChemName_Synonyms>


> <TS_CASRN>
88-51-7

> <CASRN_ChemName_Relationship>
primary

> <TS_Description>
single chemical compound

> <ChemNote>


> <STRUCTURE_Shown>
tested chemical

> <STRUCTURE_Formula>
C7H8ClNO3S

> <STRUCTURE_MW>
221.6613

> <STRUCTURE_ChemType>
defined organic

> <STRUCTURE_DefinedOrganicForm>
parent

> <STRUCTURE_IUPAC>
2-amino-4-chloro-5-methylbenzenesulfonic acid

> <STRUCTURE_SMILES>
Cc1cc(c(N)cc1Cl)S(=O)(=O)O

> <STRUCTURE_SMILES_Desalt>
Cc1cc(c(N)cc1Cl)S(=O)(=O)O

> <Substance_modify_yyyymmdd>
20080429

$$$$
