88-69-7
ChemmineR-0915142007XD

 10 10  0  0  0  0  0  0  0  0  1 V2000
    1.1282   -1.3171    0.0000 C   0  0  0  0  0  0  0  0  0  0  0  0
    1.1282    0.0000    0.0000 O   0  0  0  0  0  0  0  0  0  0  0  0
    2.2887   -2.0032    0.0000 C   0  0  0  0  0  0  0  0  0  0  0  0
    0.0000   -2.0032    0.0000 C   0  0  0  0  0  0  0  0  0  0  0  0
    0.0000   -3.3203    0.0000 C   0  0  0  0  0  0  0  0  0  0  0  0
    2.2887   -3.3203    0.0000 C   0  0  0  0  0  0  0  0  0  0  0  0
    1.1282   -4.0018    0.0000 C   0  0  0  0  0  0  0  0  0  0  0  0
    3.4446   -1.3493    0.0000 C   0  0  0  0  0  0  0  0  0  0  0  0
    3.4446    0.0000    0.0000 C   0  0  0  0  0  0  0  0  0  0  0  0
    4.6051   -2.0170    0.0000 C   0  0  0  0  0  0  0  0  0  0  0  0
  1  2  1  0  0  0  0
  1  3  2  0  0  0  0
  1  4  1  0  0  0  0
  3  6  1  0  0  0  0
  3  8  1  0  0  0  0
  4  5  2  0  0  0  0
  5  7  1  0  0  0  0
  6  7  2  0  0  0  0
  8  9  1  0  0  0  0
  8 10  1  0  0  0  0
M  END
> <ID>
10048

> <Formula>
C9H12O

> <FW>
136.191

> <DSSTox_CID>
24391

> <DSSTox_RID>
80192

> <DSSTox_GSID>
44391

> <DSSTox_FileID_Sort>
4874

> <TS_ChemName>
2-Isopropylphenol

> <TS_ChemName_Synonyms>
Phenol, 2-(1-methylethyl)-

> <TS_CASRN>
88-69-7

> <CASRN_ChemName_Relationship>
primary

> <TS_Description>
single chemical compound

> <ChemNote>


> <STRUCTURE_Shown>
tested chemical

> <STRUCTURE_Formula>
C9H12O

> <STRUCTURE_MW>
136.191

> <STRUCTURE_ChemType>
defined organic

> <STRUCTURE_DefinedOrganicForm>
parent

> <STRUCTURE_IUPAC>
2-(propan-2-yl)phenol

> <STRUCTURE_SMILES>
CC(C)c1ccccc1O

> <STRUCTURE_SMILES_Desalt>
CC(C)c1ccccc1O

> <Substance_modify_yyyymmdd>
20130311

$$$$
