88-60-8
ChemmineR-0915142007XD

 12 12  0  0  0  0  0  0  0  0  1 V2000
    2.3177   -1.3501    0.0000 C   0  0  0  0  0  0  0  0  0  0  0  0
    2.3177    0.0000    0.0000 O   0  0  0  0  0  0  0  0  0  0  0  0
    3.4766   -2.0106    0.0000 C   0  0  0  0  0  0  0  0  0  0  0  0
    1.1589   -2.0106    0.0000 C   0  0  0  0  0  0  0  0  0  0  0  0
    1.1589   -3.3433    0.0000 C   0  0  0  0  0  0  0  0  0  0  0  0
    3.4766   -3.3433    0.0000 C   0  0  0  0  0  0  0  0  0  0  0  0
    2.3177   -4.0213    0.0000 C   0  0  0  0  0  0  0  0  0  0  0  0
    4.6355   -1.3501    0.0000 C   0  0  0  0  0  0  0  0  0  0  0  0
    4.4095   -0.0927    0.0000 C   0  0  0  0  0  0  0  0  0  0  0  0
    5.6495   -2.1555    0.0000 C   0  0  0  0  0  0  0  0  0  0  0  0
    5.7943   -0.6721    0.0000 C   0  0  0  0  0  0  0  0  0  0  0  0
    0.0000   -4.0213    0.0000 C   0  0  0  0  0  0  0  0  0  0  0  0
  1  2  1  0  0  0  0
  1  3  2  0  0  0  0
  1  4  1  0  0  0  0
  3  6  1  0  0  0  0
  3  8  1  0  0  0  0
  4  5  2  0  0  0  0
  5  7  1  0  0  0  0
  5 12  1  0  0  0  0
  6  7  2  0  0  0  0
  8  9  1  0  0  0  0
  8 10  1  0  0  0  0
  8 11  1  0  0  0  0
M  END
> <ID>
4714

> <Formula>
C11H16O

> <FW>
164.2441

> <DSSTox_CID>
6529

> <DSSTox_RID>
78140

> <DSSTox_GSID>
26529

> <DSSTox_FileID_Sort>
2823

> <TS_ChemName>
2-tert-Butyl-5-methylphenol

> <TS_ChemName_Synonyms>
2-tert-Butyl-5-methylphenol (Phenol, 2-(1,1-dimethylethyl)-5-methyl-) (6-tert-Butyl-m-cresol)

> <TS_CASRN>
88-60-8

> <CASRN_ChemName_Relationship>
primary

> <TS_Description>
single chemical compound

> <ChemNote>


> <STRUCTURE_Shown>
tested chemical

> <STRUCTURE_Formula>
C11H16O

> <STRUCTURE_MW>
164.2441

> <STRUCTURE_ChemType>
defined organic

> <STRUCTURE_DefinedOrganicForm>
parent

> <STRUCTURE_IUPAC>
2-tert-butyl-5-methylphenol

> <STRUCTURE_SMILES>
CC(C)(C)c1ccc(C)cc1O

> <STRUCTURE_SMILES_Desalt>
CC(C)(C)c1ccc(C)cc1O

> <Substance_modify_yyyymmdd>
20080429

$$$$
