88-74-4
ChemmineR-0915142007XD

 10 10  0  0  0  0  0  0  0  0  2 V2000
    3.9896   -2.3044    0.0000 N   0  3  0  0  0  0  0  0  0  0  0  0
    4.6553   -3.4542    0.0000 O   0  0  0  0  0  0  0  0  0  0  0  0
    4.6553   -1.1499    0.0000 O   0  5  0  0  0  0  0  0  0  0  0  0
    2.6582   -2.3044    0.0000 C   0  0  0  0  0  0  0  0  0  0  0  0
    1.9971   -3.4542    0.0000 C   0  0  0  0  0  0  0  0  0  0  0  0
    0.6657   -3.4542    0.0000 C   0  0  0  0  0  0  0  0  0  0  0  0
    0.0000   -2.3044    0.0000 C   0  0  0  0  0  0  0  0  0  0  0  0
    0.6657   -1.1499    0.0000 C   0  0  0  0  0  0  0  0  0  0  0  0
    1.9971   -1.1499    0.0000 C   0  0  0  0  0  0  0  0  0  0  0  0
    2.6582    0.0000    0.0000 N   0  0  0  0  0  0  0  0  0  0  0  0
  1  2  2  0  0  0  0
  1  3  1  0  0  0  0
  1  4  1  0  0  0  0
  4  5  2  0  0  0  0
  4  9  1  0  0  0  0
  5  6  1  0  0  0  0
  6  7  2  0  0  0  0
  7  8  1  0  0  0  0
  8  9  2  0  0  0  0
  9 10  1  0  0  0  0
M  END
> <ID>
4370

> <Formula>
C6H6N2O2

> <FW>
138.124

> <DSSTox_CID>
5726

> <DSSTox_RID>
77895

> <DSSTox_GSID>
25726

> <DSSTox_FileID_Sort>
2578

> <TS_ChemName>
2-Nitroaniline

> <TS_ChemName_Synonyms>
2-Nitroaniline (o-Nitroaniline)

> <TS_CASRN>
88-74-4

> <CASRN_ChemName_Relationship>
primary

> <TS_Description>
single chemical compound

> <ChemNote>


> <STRUCTURE_Shown>
tested chemical

> <STRUCTURE_Formula>
C6H6N2O2

> <STRUCTURE_MW>
138.124

> <STRUCTURE_ChemType>
defined organic

> <STRUCTURE_DefinedOrganicForm>
parent

> <STRUCTURE_IUPAC>
2-nitroaniline

> <STRUCTURE_SMILES>
O=[N+]([O-])c1ccccc1N

> <STRUCTURE_SMILES_Desalt>
O=[N+]([O-])c1ccccc1N

> <Substance_modify_yyyymmdd>
20080429

$$$$
