88-86-8
ChemmineR-0915142007XD

 14 14  0  0  0  0  0  0  0  0  2 V2000
    5.7636   -1.3354    0.0000 C    0  0  0  0  0  0  0  0  0  0  0  0
    5.7636    0.0000    0.0000 O    0  0  0  0  0  0  0  0  0  0  0  0
    4.5943   -2.0065    0.0000 C    0  0  0  0  0  0  0  0  0  0  0  0
    6.9191   -2.0065    0.0000 O    0  0  0  0  0  0  0  0  0  0  0  0
    3.4595   -1.3354    0.0000 C    0  0  0  0  0  0  0  0  0  0  0  0
    4.5943   -3.3350    0.0000 C    0  0  0  0  0  0  0  0  0  0  0  0
    2.3248   -2.0065    0.0000 C    0  0  0  0  0  0  0  0  0  0  0  0
    3.4595   -3.9923    0.0000 C    0  0  0  0  0  0  0  0  0  0  0  0
    2.3248   -3.3350    0.0000 C    0  0  0  0  0  0  0  0  0  0  0  0
    3.4595    0.0000    0.0000 Cl   0  0  0  0  0  0  0  0  0  0  0  0
    3.4595   -5.3208    0.0000 Cl   0  0  0  0  0  0  0  0  0  0  0  0
    1.1555   -1.3354    0.0000 N    0  3  0  0  0  0  0  0  0  0  0  0
    0.0000   -2.0065    0.0000 O    0  5  0  0  0  0  0  0  0  0  0  0
    1.1555    0.0000    0.0000 O    0  0  0  0  0  0  0  0  0  0  0  0
  1  2  2  0  0  0  0
  1  3  1  0  0  0  0
  1  4  1  0  0  0  0
  3  5  2  0  0  0  0
  3  6  1  0  0  0  0
  5  7  1  0  0  0  0
  5 10  1  0  0  0  0
  6  8  2  0  0  0  0
  7  9  2  0  0  0  0
  7 12  1  0  0  0  0
  8  9  1  0  0  0  0
  8 11  1  0  0  0  0
 12 13  1  0  0  0  0
 12 14  2  0  0  0  0
M  END
> <ID>
8338

> <Formula>
C7H3Cl2NO4

> <FW>
236.009

> <DSSTox_CID>
21372

> <DSSTox_RID>
79706

> <DSSTox_GSID>
41372

> <DSSTox_FileID_Sort>
4388

> <TS_ChemName>
2,5-Dichloro-3-nitrobenzoic acid

> <TS_ChemName_Synonyms>


> <TS_CASRN>
88-86-8

> <CASRN_ChemName_Relationship>
primary

> <TS_Description>
single chemical compound

> <ChemNote>


> <STRUCTURE_Shown>
tested chemical

> <STRUCTURE_Formula>
C7H3Cl2NO4

> <STRUCTURE_MW>
236.009

> <STRUCTURE_ChemType>
defined organic

> <STRUCTURE_DefinedOrganicForm>
parent

> <STRUCTURE_IUPAC>
2,5-dichloro-3-nitrobenzoic acid

> <STRUCTURE_SMILES>
O=[N+]([O-])c1cc(Cl)cc(C(=O)O)c1Cl

> <STRUCTURE_SMILES_Desalt>
O=[N+]([O-])c1cc(Cl)cc(C(=O)O)c1Cl

> <Substance_modify_yyyymmdd>
20080825

$$$$
