88-82-4
ChemmineR-0915142007XD

 12 12  0  0  0  0  0  0  0  0  1 V2000
    4.6243   -1.3278    0.0000 C   0  0  0  0  0  0  0  0  0  0  0  0
    4.6243    0.0000    0.0000 O   0  0  0  0  0  0  0  0  0  0  0  0
    3.4524   -2.0033    0.0000 C   0  0  0  0  0  0  0  0  0  0  0  0
    5.7732   -2.0033    0.0000 O   0  0  0  0  0  0  0  0  0  0  0  0
    2.3208   -1.3278    0.0000 C   0  0  0  0  0  0  0  0  0  0  0  0
    3.4524   -3.3311    0.0000 C   0  0  0  0  0  0  0  0  0  0  0  0
    1.1662   -2.0033    0.0000 C   0  0  0  0  0  0  0  0  0  0  0  0
    2.3208   -3.9835    0.0000 C   0  0  0  0  0  0  0  0  0  0  0  0
    1.1662   -3.3311    0.0000 C   0  0  0  0  0  0  0  0  0  0  0  0
    2.3208    0.0000    0.0000 I   0  0  0  0  0  0  0  0  0  0  0  0
    0.0000   -1.3278    0.0000 I   0  0  0  0  0  0  0  0  0  0  0  0
    2.3208   -5.3113    0.0000 I   0  0  0  0  0  0  0  0  0  0  0  0
  1  2  2  0  0  0  0
  1  3  1  0  0  0  0
  1  4  1  0  0  0  0
  3  5  2  0  0  0  0
  3  6  1  0  0  0  0
  5  7  1  0  0  0  0
  5 10  1  0  0  0  0
  6  8  2  0  0  0  0
  7  9  2  0  0  0  0
  7 11  1  0  0  0  0
  8  9  1  0  0  0  0
  8 12  1  0  0  0  0
M  END
> <ID>
8283

> <Formula>
C7H3I3O2

> <FW>
499.8109

> <DSSTox_CID>
21317

> <DSSTox_RID>
79686

> <DSSTox_GSID>
41317

> <DSSTox_FileID_Sort>
4368

> <TS_ChemName>
2,3,5-Triiodobenzoic acid

> <TS_ChemName_Synonyms>


> <TS_CASRN>
88-82-4

> <CASRN_ChemName_Relationship>
primary

> <TS_Description>
single chemical compound

> <ChemNote>


> <STRUCTURE_Shown>
tested chemical

> <STRUCTURE_Formula>
C7H3I3O2

> <STRUCTURE_MW>
499.8109

> <STRUCTURE_ChemType>
defined organic

> <STRUCTURE_DefinedOrganicForm>
parent

> <STRUCTURE_IUPAC>
2,3,5-triiodobenzoic acid

> <STRUCTURE_SMILES>
Ic1c(cc(I)cc1I)C(=O)O

> <STRUCTURE_SMILES_Desalt>
Ic1c(cc(I)cc1I)C(=O)O

> <Substance_modify_yyyymmdd>
20080825

$$$$
