88-99-3
ChemmineR-0915142007XD

 12 12  0  0  0  0  0  0  0  0  1 V2000
    4.6548   -2.3041    0.0000 O   0  0  0  0  0  0  0  0  0  0  0  0
    3.9891   -3.4585    0.0000 C   0  0  0  0  0  0  0  0  0  0  0  0
    2.6579   -3.4585    0.0000 C   0  0  0  0  0  0  0  0  0  0  0  0
    1.9969   -4.6082    0.0000 C   0  0  0  0  0  0  0  0  0  0  0  0
    0.6656   -4.6082    0.0000 C   0  0  0  0  0  0  0  0  0  0  0  0
    0.0000   -3.4585    0.0000 C   0  0  0  0  0  0  0  0  0  0  0  0
    0.6656   -2.3041    0.0000 C   0  0  0  0  0  0  0  0  0  0  0  0
    1.9969   -2.3041    0.0000 C   0  0  0  0  0  0  0  0  0  0  0  0
    2.6579   -1.1544    0.0000 C   0  0  0  0  0  0  0  0  0  0  0  0
    1.9969    0.0000    0.0000 O   0  0  0  0  0  0  0  0  0  0  0  0
    3.9891   -1.1544    0.0000 O   0  0  0  0  0  0  0  0  0  0  0  0
    4.6548   -4.6082    0.0000 O   0  0  0  0  0  0  0  0  0  0  0  0
  1  2  1  0  0  0  0
  2  3  1  0  0  0  0
  2 12  2  0  0  0  0
  3  4  2  0  0  0  0
  3  8  1  0  0  0  0
  4  5  1  0  0  0  0
  5  6  2  0  0  0  0
  6  7  1  0  0  0  0
  7  8  2  0  0  0  0
  8  9  1  0  0  0  0
  9 10  1  0  0  0  0
  9 11  2  0  0  0  0
M  END
> <ID>
1425

> <Formula>
C8H6O4

> <FW>
166.1308

> <DSSTox_CID>
1484

> <DSSTox_RID>
76178

> <DSSTox_GSID>
21484

> <DSSTox_FileID_Sort>
862

> <TS_ChemName>
Phthalic acid

> <TS_ChemName_Synonyms>
Phthalic acid (1,2-Benzenedicarboxylic acid)

> <TS_CASRN>
88-99-3

> <CASRN_ChemName_Relationship>
primary

> <TS_Description>
single chemical compound

> <ChemNote>


> <STRUCTURE_Shown>
tested chemical

> <STRUCTURE_Formula>
C8H6O4

> <STRUCTURE_MW>
166.1308

> <STRUCTURE_ChemType>
defined organic

> <STRUCTURE_DefinedOrganicForm>
parent

> <STRUCTURE_IUPAC>
benzene-1,2-dicarboxylic acid

> <STRUCTURE_SMILES>
OC(=O)c1ccccc1C(=O)O

> <STRUCTURE_SMILES_Desalt>
OC(=O)c1ccccc1C(=O)O

> <Substance_modify_yyyymmdd>
20080429

$$$$
