88069-67-4
ChemmineR-0915142007XD

 20 22  0  0  0  0  0  0  0  0  1 V2000
    7.7860   -4.6483    0.0000 C   0  0  0  0  0  0  0  0  0  0  0  0
    6.9996   -5.7383    0.0000 C   0  0  0  0  0  0  0  0  0  0  0  0
    6.9996   -3.5738    0.0000 C   0  0  0  0  0  0  0  0  0  0  0  0
    5.7383   -3.9942    0.0000 C   0  0  0  0  0  0  0  0  0  0  0  0
    5.7383   -5.3256    0.0000 N   0  0  0  0  0  0  0  0  0  0  0  0
    4.4847   -5.7383    0.0000 C   0  0  0  0  0  0  0  0  0  0  0  0
    3.6828   -4.6483    0.0000 C   0  0  0  0  0  0  0  0  0  0  0  0
    4.4847   -3.5738    0.0000 C   0  0  0  0  0  0  0  0  0  0  0  0
    3.4259    0.0000    0.0000 C   0  0  0  0  0  0  0  0  0  0  0  0
    2.3047   -0.6618    0.0000 C   0  0  0  0  0  0  0  0  0  0  0  0
    2.3047   -1.9932    0.0000 C   0  0  0  0  0  0  0  0  0  0  0  0
    1.1523   -2.6628    0.0000 C   0  0  0  0  0  0  0  0  0  0  0  0
    0.0000   -1.9932    0.0000 C   0  0  0  0  0  0  0  0  0  0  0  0
    0.0000   -0.6618    0.0000 C   0  0  0  0  0  0  0  0  0  0  0  0
    1.1523    0.0000    0.0000 C   0  0  0  0  0  0  0  0  0  0  0  0
    1.1523   -3.9942    0.0000 C   0  0  0  0  0  0  0  0  0  0  0  0
    3.4259   -2.6628    0.0000 N   0  0  0  0  0  0  0  0  0  0  0  0
    4.5782   -1.9932    0.0000 C   0  0  0  0  0  0  0  0  0  0  0  0
    5.7383   -2.6628    0.0000 C   0  0  0  0  0  0  0  0  0  0  0  0
    4.5782   -0.6618    0.0000 O   0  0  0  0  0  0  0  0  0  0  0  0
  1  3  1  0  0  0  0
  1  2  1  0  0  0  0
  2  5  1  0  0  0  0
  3  4  1  0  0  0  0
  4  8  1  0  0  0  0
  4  5  1  0  0  0  0
  4 19  1  0  0  0  0
  5  6  1  0  0  0  0
  6  7  1  0  0  0  0
  7  8  1  0  0  0  0
  9 10  1  0  0  0  0
 10 11  2  0  0  0  0
 10 15  1  0  0  0  0
 11 12  1  0  0  0  0
 11 17  1  0  0  0  0
 12 13  2  0  0  0  0
 12 16  1  0  0  0  0
 13 14  1  0  0  0  0
 14 15  2  0  0  0  0
 17 18  1  0  0  0  0
 18 19  1  0  0  0  0
 18 20  2  0  0  0  0
M  END
> <ID>
11850

> <Formula>
C17H24N2O

> <FW>
272.3853

> <DSSTox_CID>
26639

> <DSSTox_RID>
81785

> <DSSTox_GSID>
46639

> <DSSTox_FileID_Sort>
6466

> <TS_ChemName>
Pilsicainide

> <TS_ChemName_Synonyms>


> <TS_CASRN>
88069-67-4

> <CASRN_ChemName_Relationship>
primary

> <TS_Description>
single chemical compound

> <ChemNote>


> <STRUCTURE_Shown>
tested chemical

> <STRUCTURE_Formula>
C17H24N2O

> <STRUCTURE_MW>
272.3853

> <STRUCTURE_ChemType>
defined organic

> <STRUCTURE_DefinedOrganicForm>
parent

> <STRUCTURE_IUPAC>
N-(2,6-dimethylphenyl)-2-(tetrahydro-1H-pyrrolizin-7a(5H)-yl)acetamide

> <STRUCTURE_SMILES>
Cc3cccc(C)c3NC(=O)CC12CCCN2CCC1

> <STRUCTURE_SMILES_Desalt>
Cc3cccc(C)c3NC(=O)CC12CCCN2CCC1

> <Substance_modify_yyyymmdd>
20110808

$$$$
