881-03-8
ChemmineR-0915142007XD

 14 15  0  0  0  0  0  0  0  0  2 V2000
    4.6191    0.0000    0.0000 O   0  5  0  0  0  0  0  0  0  0  0  0
    3.4672   -0.6566    0.0000 N   0  3  0  0  0  0  0  0  0  0  0  0
    2.3096    0.0000    0.0000 O   0  0  0  0  0  0  0  0  0  0  0  0
    3.4672   -1.9928    0.0000 C   0  0  0  0  0  0  0  0  0  0  0  0
    2.2923   -2.6667    0.0000 C   0  0  0  0  0  0  0  0  0  0  0  0
    2.2923   -3.9971    0.0000 C   0  0  0  0  0  0  0  0  0  0  0  0
    1.1404   -4.6537    0.0000 C   0  0  0  0  0  0  0  0  0  0  0  0
    0.0000   -3.9798    0.0000 C   0  0  0  0  0  0  0  0  0  0  0  0
    0.0000   -2.6494    0.0000 C   0  0  0  0  0  0  0  0  0  0  0  0
    3.4499   -4.6537    0.0000 C   0  0  0  0  0  0  0  0  0  0  0  0
    4.6018   -3.9971    0.0000 C   0  0  0  0  0  0  0  0  0  0  0  0
    1.1577   -1.9928    0.0000 C   0  0  0  0  0  0  0  0  0  0  0  0
    4.6018   -2.6667    0.0000 C   0  0  0  0  0  0  0  0  0  0  0  0
    5.7595   -2.0043    0.0000 C   0  0  0  0  0  0  0  0  0  0  0  0
  1  2  1  0  0  0  0
  2  3  2  0  0  0  0
  2  4  1  0  0  0  0
  4  5  2  0  0  0  0
  4 13  1  0  0  0  0
  5  6  1  0  0  0  0
  5 12  1  0  0  0  0
  6  7  1  0  0  0  0
  6 10  2  0  0  0  0
  7  8  2  0  0  0  0
  8  9  1  0  0  0  0
  9 12  2  0  0  0  0
 10 11  1  0  0  0  0
 11 13  2  0  0  0  0
 13 14  1  0  0  0  0
M  END
> <ID>
4389

> <Formula>
C11H9NO2

> <FW>
187.1947

> <DSSTox_CID>
5761

> <DSSTox_RID>
77913

> <DSSTox_GSID>
25761

> <DSSTox_FileID_Sort>
2596

> <TS_ChemName>
1-Nitro-2-methylnaphthalene

> <TS_ChemName_Synonyms>


> <TS_CASRN>
881-03-8

> <CASRN_ChemName_Relationship>
primary

> <TS_Description>
single chemical compound

> <ChemNote>


> <STRUCTURE_Shown>
tested chemical

> <STRUCTURE_Formula>
C11H9NO2

> <STRUCTURE_MW>
187.1947

> <STRUCTURE_ChemType>
defined organic

> <STRUCTURE_DefinedOrganicForm>
parent

> <STRUCTURE_IUPAC>
2-methyl-1-nitronaphthalene

> <STRUCTURE_SMILES>
[O-][N+](=O)c2c(C)ccc1ccccc12

> <STRUCTURE_SMILES_Desalt>
[O-][N+](=O)c2c(C)ccc1ccccc12

> <Substance_modify_yyyymmdd>
20080429

$$$$
