882-09-7
ChemmineR-0915142007XD

 14 14  0  0  0  0  0  0  0  0  1 V2000
    2.0058   -2.3003    0.0000 C    0  0  0  0  0  0  0  0  0  0  0  0
    1.3292   -1.1462    0.0000 C    0  0  0  0  0  0  0  0  0  0  0  0
    2.6585   -3.4544    0.0000 O    0  0  0  0  0  0  0  0  0  0  0  0
    1.9819    0.0000    0.0000 O    0  0  0  0  0  0  0  0  0  0  0  0
    3.9877   -3.4544    0.0000 C    0  0  0  0  0  0  0  0  0  0  0  0
    0.0000   -1.1462    0.0000 O    0  0  0  0  0  0  0  0  0  0  0  0
    6.6303   -3.4544    0.0000 C    0  0  0  0  0  0  0  0  0  0  0  0
    7.9595   -3.4544    0.0000 Cl   0  0  0  0  0  0  0  0  0  0  0  0
    4.6404   -4.6006    0.0000 C    0  0  0  0  0  0  0  0  0  0  0  0
    4.6404   -2.3003    0.0000 C    0  0  0  0  0  0  0  0  0  0  0  0
    5.9776   -4.6006    0.0000 C    0  0  0  0  0  0  0  0  0  0  0  0
    5.9776   -2.3003    0.0000 C    0  0  0  0  0  0  0  0  0  0  0  0
    0.8358   -2.9769    0.0000 C    0  0  0  0  0  0  0  0  0  0  0  0
    3.1599   -1.6317    0.0000 C    0  0  0  0  0  0  0  0  0  0  0  0
  1  2  1  0  0  0  0
  1  3  1  0  0  0  0
  1 13  1  0  0  0  0
  1 14  1  0  0  0  0
  2  4  2  0  0  0  0
  2  6  1  0  0  0  0
  3  5  1  0  0  0  0
  5  9  2  0  0  0  0
  5 10  1  0  0  0  0
  7 12  1  0  0  0  0
  7  8  1  0  0  0  0
  7 11  2  0  0  0  0
  9 11  1  0  0  0  0
 10 12  2  0  0  0  0
M  END
> <ID>
7862

> <Formula>
C10H11ClO3

> <FW>
214.6455

> <DSSTox_CID>
20661

> <DSSTox_RID>
79526

> <DSSTox_GSID>
40661

> <DSSTox_FileID_Sort>
4208

> <TS_ChemName>
Clofibric acid

> <TS_ChemName_Synonyms>
Clofibric acid (2-(p-Chlorophenoxy)-2-methylpropionic acid)

> <TS_CASRN>
882-09-7

> <CASRN_ChemName_Relationship>
primary

> <TS_Description>
single chemical compound

> <ChemNote>


> <STRUCTURE_Shown>
tested chemical

> <STRUCTURE_Formula>
C10H11ClO3

> <STRUCTURE_MW>
214.6455

> <STRUCTURE_ChemType>
defined organic

> <STRUCTURE_DefinedOrganicForm>
parent

> <STRUCTURE_IUPAC>
2-(4-chlorophenoxy)-2-methylpropanoic acid

> <STRUCTURE_SMILES>
Clc1ccc(OC(C)(C)C(=O)O)cc1

> <STRUCTURE_SMILES_Desalt>
Clc1ccc(OC(C)(C)C(=O)O)cc1

> <Substance_modify_yyyymmdd>
20080429

$$$$
