882172-79-4
ChemmineR-0915142007XD

 19 18  0  0  0  0  0  0  0  0  2 V2000
    7.3174   -8.0528    0.0000 C   0  0  0  0  0  0  0  0  0  0  0  0
    9.3096    0.0000    0.0000 C   0  0  0  0  0  0  0  0  0  0  0  0
    6.6471   -6.8984    0.0000 C   0  0  0  0  0  0  0  0  0  0  0  0
    7.3174   -5.7534    0.0000 C   0  0  0  0  0  0  0  0  0  0  0  0
    7.3174   -1.1451    0.0000 C   0  0  0  0  0  0  0  0  0  0  0  0
    9.3096   -2.2995    0.0000 C   0  0  0  0  0  0  0  0  0  0  0  0
    6.6471   -4.5990    0.0000 C   0  0  0  0  0  0  0  0  0  0  0  0
    6.6471   -2.2995    0.0000 C   0  0  0  0  0  0  0  0  0  0  0  0
    8.6487   -3.4446    0.0000 C   0  0  0  0  0  0  0  0  0  0  0  0
    8.6487   -1.1451    0.0000 C   0  0  0  0  0  0  0  0  0  0  0  0
    7.3174   -3.4446    0.0000 N   0  3  0  0  0  0  0  0  0  0  0  0
    1.3313   -2.2995    0.0000 C   0  0  0  0  0  0  0  0  0  0  0  0
    0.0000   -2.2995    0.0000 F   0  0  0  0  0  0  0  0  0  0  0  0
    1.3313   -3.6308    0.0000 F   0  0  0  0  0  0  0  0  0  0  0  0
    1.3313   -0.9682    0.0000 F   0  0  0  0  0  0  0  0  0  0  0  0
    2.6626   -3.6308    0.0000 O   0  5  0  0  0  0  0  0  0  0  0  0
    2.6626   -0.9682    0.0000 O   0  0  0  0  0  0  0  0  0  0  0  0
    3.9845   -2.2995    0.0000 O   0  0  0  0  0  0  0  0  0  0  0  0
    2.6626   -2.2995    0.0000 S   0  0  0  0  0  0  0  0  0  0  0  0
  1  3  1  0  0  0  0
  2 10  1  0  0  0  0
  3  4  1  0  0  0  0
  4  7  1  0  0  0  0
  5  8  1  0  0  0  0
  5 10  2  0  0  0  0
  6  9  2  0  0  0  0
  6 10  1  0  0  0  0
  7 11  1  0  0  0  0
  8 11  2  0  0  0  0
  9 11  1  0  0  0  0
 12 13  1  0  0  0  0
 12 14  1  0  0  0  0
 12 15  1  0  0  0  0
 12 19  1  0  0  0  0
 16 19  1  0  0  0  0
 17 19  2  0  0  0  0
 18 19  2  0  0  0  0
M  END
> <ID>
14232

> <Formula>
C11H16F3NO3S

> <FW>
299.3098 (150.2402+149.0697)

> <DSSTox_CID>
29327

> <DSSTox_RID>
83443

> <DSSTox_GSID>
49368

> <DSSTox_FileID_Sort>
8118

> <TS_ChemName>
1-Butyl-4-methylpyridinium trifluoromethanesulfonate

> <TS_ChemName_Synonyms>


> <TS_CASRN>
882172-79-4

> <CASRN_ChemName_Relationship>
primary

> <TS_Description>
single chemical compound

> <ChemNote>


> <STRUCTURE_Shown>
tested chemical

> <STRUCTURE_Formula>
C11H16F3NO3S

> <STRUCTURE_MW>
299.3098

> <STRUCTURE_ChemType>
defined organic

> <STRUCTURE_DefinedOrganicForm>
complex

> <STRUCTURE_IUPAC>
1-butyl-4-methylpyridinium trifluoromethanesulfonate

> <STRUCTURE_SMILES>
Cc1cc[n+](CCCC)cc1.FC(F)(F)S([O-])(=O)=O

> <STRUCTURE_SMILES_Desalt>
Cc1cc[n+](CCCC)cc1

> <Substance_modify_yyyymmdd>
20111204

$$$$
