88426-33-9
ChemmineR-0915142007XD

 24 26  0  0  0  0  0  0  0  0  1 V2000
   11.0636   -2.8641    0.0000 C   0  0  0  0  0  0  0  0  0  0  0  0
   10.3938   -3.9958    0.0000 C   0  0  0  0  0  0  0  0  0  0  0  0
    9.7355   -5.1623    0.0000 C   0  0  0  0  0  0  0  0  0  0  0  0
   11.5487   -4.6657    0.0000 C   0  0  0  0  0  0  0  0  0  0  0  0
    9.2274   -3.3376    0.0000 C   0  0  0  0  0  0  0  0  0  0  0  0
    8.0956   -3.9958    0.0000 C   0  0  0  0  0  0  0  0  0  0  0  0
    6.9292   -3.3376    0.0000 C   0  0  0  0  0  0  0  0  0  0  0  0
    6.9292   -2.0095    0.0000 C   0  0  0  0  0  0  0  0  0  0  0  0
    8.0956   -1.3512    0.0000 C   0  0  0  0  0  0  0  0  0  0  0  0
    9.2274   -2.0095    0.0000 C   0  0  0  0  0  0  0  0  0  0  0  0
    5.7743   -1.3512    0.0000 C   0  0  0  0  0  0  0  0  0  0  0  0
    4.6195   -2.0095    0.0000 C   0  0  0  0  0  0  0  0  0  0  0  0
    4.6195   -3.3376    0.0000 C   0  0  0  0  0  0  0  0  0  0  0  0
    5.7743   -3.9958    0.0000 O   0  0  0  0  0  0  0  0  0  0  0  0
    3.4531   -3.9958    0.0000 C   0  0  0  0  0  0  0  0  0  0  0  0
    3.4531   -5.3355    0.0000 O   0  0  0  0  0  0  0  0  0  0  0  0
    2.3213   -3.3376    0.0000 C   0  0  0  0  0  0  0  0  0  0  0  0
    1.1549   -3.9958    0.0000 C   0  0  0  0  0  0  0  0  0  0  0  0
    0.0000   -3.3376    0.0000 C   0  0  0  0  0  0  0  0  0  0  0  0
    0.0000   -2.0095    0.0000 C   0  0  0  0  0  0  0  0  0  0  0  0
    1.1549   -1.3512    0.0000 C   0  0  0  0  0  0  0  0  0  0  0  0
    2.3213   -2.0095    0.0000 C   0  0  0  0  0  0  0  0  0  0  0  0
    3.4531   -1.3512    0.0000 C   0  0  0  0  0  0  0  0  0  0  0  0
    3.4531    0.0000    0.0000 O   0  0  0  0  0  0  0  0  0  0  0  0
  1  2  1  0  0  0  0
  2  3  1  0  0  0  0
  2  4  1  0  0  0  0
  2  5  1  0  0  0  0
  5  6  1  0  0  0  0
  5 10  1  0  0  0  0
  6  7  1  0  0  0  0
  7  8  1  0  0  0  0
  8  9  1  0  0  0  0
  8 11  1  0  0  0  0
  9 10  1  0  0  0  0
 11 12  1  0  0  0  0
 12 13  2  0  0  0  0
 12 23  1  0  0  0  0
 13 14  1  0  0  0  0
 13 15  1  0  0  0  0
 15 16  2  0  0  0  0
 15 17  1  0  0  0  0
 17 18  2  0  0  0  0
 17 22  1  0  0  0  0
 18 19  1  0  0  0  0
 19 20  2  0  0  0  0
 20 21  1  0  0  0  0
 21 22  2  0  0  0  0
 22 23  1  0  0  0  0
 23 24  2  0  0  0  0
M  END
> <ID>
16247

> <Formula>
C21H26O3

> <FW>
326.4293

> <DSSTox_CID>
31638

> <DSSTox_RID>
97522

> <DSSTox_GSID>
57849

> <DSSTox_FileID_Sort>
8589

> <TS_ChemName>
Buparvaquone

> <TS_ChemName_Synonyms>


> <TS_CASRN>
88426-33-9

> <CASRN_ChemName_Relationship>
primary

> <TS_Description>
single chemical compound

> <ChemNote>


> <STRUCTURE_Shown>
tested chemical

> <STRUCTURE_Formula>
C21H26O3

> <STRUCTURE_MW>
326.4293

> <STRUCTURE_ChemType>
defined organic

> <STRUCTURE_DefinedOrganicForm>
parent

> <STRUCTURE_IUPAC>
2-[(4-tert-butylcyclohexyl)methyl]-3-hydroxy-1,4-naphthoquinone

> <STRUCTURE_SMILES>
CC(C)(C)C3CCC(CC2=C(O)C(=O)c1ccccc1C2=O)CC3

> <STRUCTURE_SMILES_Desalt>
CC(C)(C)C3CCC(CC2=C(O)C(=O)c1ccccc1C2=O)CC3

> <Substance_modify_yyyymmdd>
20131121

$$$$
