88475-69-8
ChemmineR-0915142007XD

 32 33  0  0  1  0  0  0  0  0  2 V2000
    6.6251   -4.1223    0.0000 C    0  0  0  0  0  0  0  0  0  0  0  0
    6.9032   -2.6500    0.0000 C    0  0  0  0  0  0  0  0  0  0  0  0
    7.0667   -5.3655    0.0000 C    0  0  0  0  0  0  0  0  0  0  0  0
    5.3001   -4.1223    0.0000 C    0  0  0  0  0  0  0  0  0  0  0  0
    5.7417   -2.0284    0.0000 C    0  0  0  0  0  0  0  0  0  0  0  0
    8.0319   -2.0284    0.0000 C    0  0  0  0  0  0  0  0  0  0  0  0
    5.9707   -6.1670    0.0000 C    0  0  0  0  0  0  0  0  0  0  0  0
    8.2936   -5.7581    0.0000 C    0  0  0  0  0  0  0  0  0  0  0  0
    4.7766   -2.9281    0.0000 O    0  0  0  0  0  0  0  0  0  0  0  0
    4.8911   -5.3818    0.0000 C    0  0  0  0  0  0  0  0  0  0  0  0
    5.7417   -0.6870    0.0000 C    0  0  0  0  0  0  0  0  0  0  0  0
    8.0319   -0.6870    0.0000 C    0  0  0  0  0  0  0  0  0  0  0  0
    5.9871   -7.5084    0.0000 O    0  0  0  0  0  0  0  0  0  0  0  0
    9.4550   -5.1201    0.0000 C    0  0  0  0  0  0  0  0  0  0  0  0
    4.5967   -0.0164    0.0000 C    0  0  0  0  0  0  0  0  0  0  0  0
    6.9032   -0.0164    0.0000 C    0  0  0  0  0  0  0  0  0  0  0  0
   10.6001   -5.7581    0.0000 C    0  0  0  0  0  0  0  0  0  0  0  0
    3.4516   -0.6707    0.0000 C    0  0  0  0  0  0  0  0  0  0  0  0
   11.7615   -5.1038    0.0000 C    0  0  0  0  0  0  0  0  0  0  0  0
   10.6001   -7.1158    0.0000 O    0  0  0  0  0  0  0  0  0  0  0  0
    2.3065   -0.0164    0.0000 C    0  0  0  0  0  0  0  0  0  0  0  0
   12.9066   -5.7581    0.0000 C    0  0  0  0  0  0  0  0  0  0  0  0
   11.7615   -3.7787    0.0000 C    0  0  0  0  0  0  0  0  0  0  0  0
    1.1287   -0.6707    0.0000 C    0  0  0  0  0  0  0  0  0  0  0  0
   14.0517   -5.1038    0.0000 C    0  0  0  0  0  0  0  0  0  0  0  0
    1.1287   -1.9793    0.0000 O    0  5  0  0  0  0  0  0  0  0  0  0
    0.0000    0.0000    0.0000 O    0  0  0  0  0  0  0  0  0  0  0  0
   15.2131   -4.4494    0.0000 C    0  0  0  0  0  0  0  0  0  0  0  0
   16.3582   -3.7787    0.0000 C    0  0  0  0  0  0  0  0  0  0  0  0
    4.0241   -3.7624    0.0000 H    0  0  0  0  0  0  0  0  0  0  0  0
    7.9010   -3.7624    0.0000 H    0  0  0  0  0  0  0  0  0  0  0  0
    1.0469   -4.2368    0.0000 Na   0  3  0  0  0  0  0  0  0  0  0  0
  1  2  1  0  0  0  0
  1  3  1  0  0  0  0
  1  4  1  0  0  0  0
  1 31  1  1  0  0  0
  2  5  1  0  0  0  0
  2  6  2  0  0  0  0
  3  7  1  0  0  0  0
  3  8  1  1  0  0  0
  4  9  1  0  0  0  0
  4 10  1  0  0  0  0
  4 30  1  1  0  0  0
  5 11  2  0  0  0  0
  5  9  1  0  0  0  0
  6 12  1  0  0  0  0
  7 13  1  6  0  0  0
  7 10  1  0  0  0  0
  8 14  2  0  0  0  0
 11 15  1  0  0  0  0
 11 16  1  0  0  0  0
 12 16  2  0  0  0  0
 14 17  1  0  0  0  0
 15 18  1  0  0  0  0
 17 19  1  0  0  0  0
 17 20  1  6  0  0  0
 18 21  1  0  0  0  0
 19 22  1  0  0  0  0
 19 23  1  0  0  0  0
 21 24  1  0  0  0  0
 22 25  1  0  0  0  0
 24 26  1  0  0  0  0
 24 27  2  0  0  0  0
 25 28  3  0  0  0  0
 28 29  1  0  0  0  0
M  END
> <ID>
13583

> <Formula>
C24H29NaO5

> <FW>
420.4738 (397.4846+22.9892)

> <DSSTox_CID>
28511

> <DSSTox_RID>
82783

> <DSSTox_GSID>
48585

> <DSSTox_FileID_Sort>
7460

> <TS_ChemName>
Beraprost sodium

> <TS_ChemName_Synonyms>


> <TS_CASRN>
88475-69-8

> <CASRN_ChemName_Relationship>
primary

> <TS_Description>
single chemical compound

> <ChemNote>
stereochem; parent [88430-50-6]

> <STRUCTURE_Shown>
tested chemical

> <STRUCTURE_Formula>
C24H29NaO5

> <STRUCTURE_MW>
420.4738

> <STRUCTURE_ChemType>
defined organic

> <STRUCTURE_DefinedOrganicForm>
salt

> <STRUCTURE_IUPAC>
sodium 4-{(1R,2R,3aS,8bS)-2-hydroxy-1-[(1E,3S)-3-hydroxy-4-methyloct-1-en-6-yn-1-yl]-2,3,3a,8b-tetrahydro-1H-benzo[b]cyclopenta[d]furan-5-yl}butanoate

> <STRUCTURE_SMILES>
[Na+].CC(CC#CC)[C@H](O)/C=C/[C@H]2[C@H](O)C[C@@H]3Oc1c(cccc1CCCC([O-])=O)[C@H]23

> <STRUCTURE_SMILES_Desalt>
CC(CC#CC)[C@H](O)/C=C/[C@H]2[C@H](O)C[C@@H]3Oc1c(cccc1CCCC(=O)O)[C@H]23

> <Substance_modify_yyyymmdd>
20111014

$$$$
