88485-37-4
ChemmineR-0915142007XD

 20 21  0  0  0  0  0  0  0  0  1 V2000
    4.6621   -2.6919    0.0000 C    0  0  0  0  0  0  0  0  0  0  0  0
    4.6621   -1.3402    0.0000 C    0  0  0  0  0  0  0  0  0  0  0  0
    5.9336   -2.6919    0.0000 N    0  0  0  0  0  0  0  0  0  0  0  0
    3.4937   -3.3563    0.0000 C    0  0  0  0  0  0  0  0  0  0  0  0
    3.4937   -4.7080    0.0000 C    0  0  0  0  0  0  0  0  0  0  0  0
    2.3253   -2.6919    0.0000 C    0  0  0  0  0  0  0  0  0  0  0  0
    2.3253   -5.3838    0.0000 C    0  0  0  0  0  0  0  0  0  0  0  0
    1.1569   -3.3563    0.0000 C    0  0  0  0  0  0  0  0  0  0  0  0
    1.1569   -4.7080    0.0000 C    0  0  0  0  0  0  0  0  0  0  0  0
    0.0000   -5.3838    0.0000 Cl   0  0  0  0  0  0  0  0  0  0  0  0
    6.0024   -1.3402    0.0000 F    0  0  0  0  0  0  0  0  0  0  0  0
    3.3105   -1.3402    0.0000 F    0  0  0  0  0  0  0  0  0  0  0  0
    4.6621    0.0000    0.0000 F    0  0  0  0  0  0  0  0  0  0  0  0
    6.9875   -2.6919    0.0000 O    0  0  0  0  0  0  0  0  0  0  0  0
    8.1559   -3.3563    0.0000 C    0  0  0  0  0  0  0  0  0  0  0  0
   10.5500   -3.2417    0.0000 O    0  0  0  0  0  0  0  0  0  0  0  0
    9.3243   -2.6919    0.0000 C    0  0  0  0  0  0  0  0  0  0  0  0
    9.4617   -1.3402    0.0000 O    0  0  0  0  0  0  0  0  0  0  0  0
   10.7905   -1.0653    0.0000 C    0  0  0  0  0  0  0  0  0  0  0  0
   11.4549   -2.2337    0.0000 C    0  0  0  0  0  0  0  0  0  0  0  0
  1  2  1  0  0  0  0
  1  3  2  0  0  0  0
  1  4  1  0  0  0  0
  2 11  1  0  0  0  0
  2 12  1  0  0  0  0
  2 13  1  0  0  0  0
  3 14  1  0  0  0  0
  4  5  2  0  0  0  0
  4  6  1  0  0  0  0
  5  7  1  0  0  0  0
  6  8  2  0  0  0  0
  7  9  2  0  0  0  0
  8  9  1  0  0  0  0
  9 10  1  0  0  0  0
 14 15  1  0  0  0  0
 15 17  1  0  0  0  0
 16 17  1  0  0  0  0
 16 20  1  0  0  0  0
 17 18  1  0  0  0  0
 18 19  1  0  0  0  0
 19 20  1  0  0  0  0
M  END
> <ID>
10645

> <Formula>
C12H11ClF3NO3

> <FW>
309.6688

> <DSSTox_CID>
24998

> <DSSTox_RID>
80643

> <DSSTox_GSID>
44998

> <DSSTox_FileID_Sort>
5325

> <TS_ChemName>
Fluxofenim

> <TS_ChemName_Synonyms>
Fluxofenim (Ethanone, 1-(4-chlorophenyl)-2,2,2-trifluoro-, O-(1,3-dioxolan-2-ylmethyl)oxime)

> <TS_CASRN>
88485-37-4

> <CASRN_ChemName_Relationship>
primary

> <TS_Description>
single chemical compound

> <ChemNote>


> <STRUCTURE_Shown>
tested chemical

> <STRUCTURE_Formula>
C12H11ClF3NO3

> <STRUCTURE_MW>
309.6688

> <STRUCTURE_ChemType>
defined organic

> <STRUCTURE_DefinedOrganicForm>
parent

> <STRUCTURE_IUPAC>
1-(4-chlorophenyl)-N-(1,3-dioxolan-2-ylmethoxy)-2,2,2-trifluoroethanimine

> <STRUCTURE_SMILES>
Clc1ccc(cc1)\C(=N\OCC2OCCO2)C(F)(F)F

> <STRUCTURE_SMILES_Desalt>
Clc1ccc(cc1)\C(=N\OCC2OCCO2)C(F)(F)F

> <Substance_modify_yyyymmdd>
20091116

$$$$
