88495-63-0
ChemmineR-0915142007XD

 32 35  0  0  1  0  0  0  0  0  1 V2000
    4.4563   -3.5711    0.0000 C   0  0  0  0  0  0  0  0  0  0  0  0
    3.2964   -4.2426    0.0000 C   0  0  0  0  0  0  0  0  0  0  0  0
    5.6568   -4.2935    0.0000 C   0  0  0  0  0  0  0  0  0  0  0  0
    3.2964   -5.7382    0.0000 O   0  0  0  0  0  0  0  0  0  0  0  0
    3.6017   -2.4927    0.0000 O   0  0  0  0  0  0  0  0  0  0  0  0
    1.8822   -3.9984    0.0000 O   0  0  0  0  0  0  0  0  0  0  0  0
    4.4563   -6.4199    0.0000 C   0  0  0  0  0  0  0  0  0  0  0  0
    5.6568   -5.7179    0.0000 C   0  0  0  0  0  0  0  0  0  0  0  0
    4.4563   -2.1162    0.0000 C   0  0  0  0  0  0  0  0  0  0  0  0
    1.3226   -2.6656    0.0000 C   0  0  0  0  0  0  0  0  0  0  0  0
    2.4927   -2.3706    0.0000 O   0  0  0  0  0  0  0  0  0  0  0  0
    4.4258   -7.7222    0.0000 O   0  0  0  0  0  0  0  0  0  0  0  0
    6.9184   -3.5711    0.0000 C   0  0  0  0  0  0  0  0  0  0  0  0
    3.3270   -1.2412    0.0000 C   0  0  0  0  0  0  0  0  0  0  0  0
    9.0245   -8.0681    0.0000 C   0  0  0  0  0  0  0  0  0  0  0  0
    7.8443   -8.6379    0.0000 C   0  0  0  0  0  0  0  0  0  0  0  0
    5.6568   -1.4244    0.0000 C   0  0  0  0  0  0  0  0  0  0  0  0
    6.9184   -2.1162    0.0000 C   0  0  0  0  0  0  0  0  0  0  0  0
    1.9433   -1.5668    0.0000 C   0  0  0  0  0  0  0  0  0  0  0  0
    9.0245   -6.6946    0.0000 O   0  0  0  0  0  0  0  0  0  0  0  0
    5.5551   -8.4446    0.0000 C   0  0  0  0  0  0  0  0  0  0  0  0
    6.7048   -7.8748    0.0000 C   0  0  0  0  0  0  0  0  0  0  0  0
   10.1742   -8.7498    0.0000 O   0  0  0  0  0  0  0  0  0  0  0  0
    5.7179   -6.8981    0.0000 C   0  0  0  0  0  0  0  0  0  0  0  0
    0.0000   -2.6656    0.0000 C   0  0  0  0  0  0  0  0  0  0  0  0
    5.6568    0.0000    0.0000 C   0  0  0  0  0  0  0  0  0  0  0  0
    4.4054   -0.7224    0.0000 H   0  0  0  0  0  0  0  0  0  0  0  0
    5.7179   -3.0217    0.0000 H   0  0  0  0  0  0  0  0  0  0  0  0
    6.6539   -5.6365    0.0000 H   0  0  0  0  0  0  0  0  0  0  0  0
    4.4766   -5.1888    0.0000 H   0  0  0  0  0  0  0  0  0  0  0  0
    3.2964   -3.2150    0.0000 H   0  0  0  0  0  0  0  0  0  0  0  0
    5.5754   -9.5434    0.0000 O   0  0  0  0  0  0  0  0  0  0  0  0
  1  2  1  0  0  0  0
  1  3  1  0  0  0  0
  5  1  1  6  0  0  0
  1  9  1  0  0  0  0
  2  4  1  6  0  0  0
  2  6  1  0  0  0  0
  2 31  1  1  0  0  0
  3  8  1  0  0  0  0
  3 13  1  0  0  0  0
  3 28  1  6  0  0  0
  4  7  1  0  0  0  0
  5 11  1  0  0  0  0
  6 10  1  0  0  0  0
  7  8  1  0  0  0  0
  7 12  1  6  0  0  0
  7 30  1  1  0  0  0
  8 24  1  1  0  0  0
  8 29  1  6  0  0  0
  9 14  1  0  0  0  0
  9 17  1  0  0  0  0
  9 27  1  6  0  0  0
 10 11  1  6  0  0  0
 10 25  1  1  0  0  0
 10 19  1  0  0  0  0
 12 21  1  0  0  0  0
 13 18  1  0  0  0  0
 14 19  1  0  0  0  0
 15 16  1  0  0  0  0
 15 20  2  0  0  0  0
 15 23  1  0  0  0  0
 16 22  1  0  0  0  0
 17 18  1  0  0  0  0
 17 26  1  6  0  0  0
 21 22  1  0  0  0  0
 21 32  2  0  0  0  0
M  END
> <ID>
9539

> <Formula>
C19H28O8

> <FW>
384.4208

> <DSSTox_CID>
22681

> <DSSTox_RID>
80066

> <DSSTox_GSID>
42681

> <DSSTox_FileID_Sort>
4748

> <TS_ChemName>
Artesunate

> <TS_ChemName_Synonyms>


> <TS_CASRN>
88495-63-0

> <CASRN_ChemName_Relationship>
primary

> <TS_Description>
single chemical compound

> <ChemNote>
stereochem

> <STRUCTURE_Shown>
tested chemical

> <STRUCTURE_Formula>
C19H28O8

> <STRUCTURE_MW>
384.4208

> <STRUCTURE_ChemType>
defined organic

> <STRUCTURE_DefinedOrganicForm>
parent

> <STRUCTURE_IUPAC>
4-oxo-4-{[(5aS,6R,8aS,9R,12aR)-3,6,9-trimethyldecahydro-3,12-epoxy[1,2]dioxepino[4,3-i]isochromen-10-yl]oxy}butanoic acid

> <STRUCTURE_SMILES>
O=C(O)CCC(=O)O[C@@H]1O[C@@H]3O[C@@]2(C)CC[C@H]4[C@H](C)CC[C@@H]([C@H]1C)C34OO2

> <STRUCTURE_SMILES_Desalt>
O=C(O)CCC(=O)O[C@@H]1O[C@@H]3O[C@@]2(C)CC[C@H]4[C@H](C)CC[C@@H]([C@H]1C)C34OO2

> <Substance_modify_yyyymmdd>
20110815

$$$$
