88598-74-7
ChemmineR-0915142007XD

 23 27  0  0  1  0  0  0  0  0  1 V2000
    3.6940   -4.2084    0.0000 N   0  0  0  0  0  0  0  0  0  0  0  0
    3.6940   -6.9021    0.0000 S   0  0  0  0  0  0  0  0  0  0  0  0
    4.8586   -4.9015    0.0000 C   0  0  0  0  0  0  0  0  0  0  0  0
    2.5151   -4.9015    0.0000 C   0  0  0  0  0  0  0  0  0  0  0  0
    2.5151   -6.2091    0.0000 C   0  0  0  0  0  0  0  0  0  0  0  0
    4.8586   -6.2091    0.0000 C   0  0  0  0  0  0  0  0  0  0  0  0
    6.0804   -4.2084    0.0000 C   0  0  0  0  0  0  0  0  0  0  0  0
    1.3433   -4.2084    0.0000 C   0  0  0  0  0  0  0  0  0  0  0  0
    1.3433   -6.9021    0.0000 C   0  0  0  0  0  0  0  0  0  0  0  0
    6.0804   -6.9021    0.0000 C   0  0  0  0  0  0  0  0  0  0  0  0
    7.1451   -4.9015    0.0000 C   0  0  0  0  0  0  0  0  0  0  0  0
    0.2787   -6.2091    0.0000 C   0  0  0  0  0  0  0  0  0  0  0  0
    0.2787   -4.9015    0.0000 C   0  0  0  0  0  0  0  0  0  0  0  0
    7.1451   -6.2091    0.0000 C   0  0  0  0  0  0  0  0  0  0  0  0
    3.6940   -2.8580    0.0000 C   0  0  0  0  0  0  0  0  0  0  0  0
    1.2790    0.0000    0.0000 N   0  0  0  0  0  0  0  0  0  0  0  0
    2.5436   -0.7574    0.0000 C   0  0  0  0  0  0  0  0  0  0  0  0
    2.5436   -2.2078    0.0000 C   0  0  0  0  0  0  0  0  0  0  0  0
    1.2790   -2.9295    0.0000 C   0  0  0  0  0  0  0  0  0  0  0  0
    0.0000   -2.1721    0.0000 C   0  0  0  0  0  0  0  0  0  0  0  0
    0.0357   -0.7288    0.0000 C   0  0  0  0  0  0  0  0  0  0  0  0
    1.7934   -1.0075    0.0000 C   0  0  0  0  0  0  0  0  0  0  0  0
    1.8220   -1.9720    0.0000 C   0  0  0  0  0  0  0  0  0  0  0  0
  1  3  1  0  0  0  0
  1  4  1  0  0  0  0
  1 15  1  0  0  0  0
  2  5  1  0  0  0  0
  2  6  1  0  0  0  0
  3  6  2  0  0  0  0
  3  7  1  0  0  0  0
  4  5  2  0  0  0  0
  4  8  1  0  0  0  0
  5  9  1  0  0  0  0
  6 10  1  0  0  0  0
  7 11  2  0  0  0  0
  8 13  2  0  0  0  0
  9 12  2  0  0  0  0
 10 14  2  0  0  0  0
 11 14  1  0  0  0  0
 12 13  1  0  0  0  0
 18 15  1  1  0  0  0
 16 17  1  0  0  0  0
 16 21  1  0  0  0  0
 16 22  1  0  0  0  0
 17 18  1  0  0  0  0
 18 19  1  0  0  0  0
 19 20  1  0  0  0  0
 19 23  1  0  0  0  0
 20 21  1  0  0  0  0
 22 23  1  0  0  0  0
M  END
> <ID>
13760

> <Formula>
C20H22N2S

> <FW>
322.4671

> <DSSTox_CID>
28697

> <DSSTox_RID>
82966

> <DSSTox_GSID>
48771

> <DSSTox_FileID_Sort>
7643

> <TS_ChemName>
Levomequitazine

> <TS_ChemName_Synonyms>


> <TS_CASRN>
88598-74-7

> <CASRN_ChemName_Relationship>
primary

> <TS_Description>
single chemical compound

> <ChemNote>
stereochem; tautomers

> <STRUCTURE_Shown>
tested chemical

> <STRUCTURE_Formula>
C20H22N2S

> <STRUCTURE_MW>
322.4671

> <STRUCTURE_ChemType>
defined organic

> <STRUCTURE_DefinedOrganicForm>
parent

> <STRUCTURE_IUPAC>
10-[(3S)-1-azabicyclo[2.2.2]oct-3-ylmethyl]-10H-phenothiazine

> <STRUCTURE_SMILES>
c3ccc4Sc5ccccc5N(C[C@@H]2CN1CCC2CC1)c4c3

> <STRUCTURE_SMILES_Desalt>
c3ccc4Sc5ccccc5N(C[C@@H]2CN1CCC2CC1)c4c3

> <Substance_modify_yyyymmdd>
20110610

$$$$
