886-08-8
ChemmineR-0915142007XD

 16 17  0  0  0  0  0  0  0  0  1 V2000
    3.9809   -3.4634    0.0000 N   0  0  0  0  0  0  0  0  0  0  0  0
    2.6513   -3.4634    0.0000 C   0  0  0  0  0  0  0  0  0  0  0  0
    5.3105   -3.4634    0.0000 C   0  0  0  0  0  0  0  0  0  0  0  0
    5.9713   -2.3089    0.0000 C   0  0  0  0  0  0  0  0  0  0  0  0
    7.3009   -2.3089    0.0000 C   0  0  0  0  0  0  0  0  0  0  0  0
    5.3105   -1.1545    0.0000 C   0  0  0  0  0  0  0  0  0  0  0  0
    7.9618   -1.1545    0.0000 C   0  0  0  0  0  0  0  0  0  0  0  0
    5.9713    0.0000    0.0000 C   0  0  0  0  0  0  0  0  0  0  0  0
    7.3009    0.0000    0.0000 C   0  0  0  0  0  0  0  0  0  0  0  0
    1.9904   -2.3089    0.0000 C   0  0  0  0  0  0  0  0  0  0  0  0
    0.6608   -2.3089    0.0000 C   0  0  0  0  0  0  0  0  0  0  0  0
    2.6513   -1.1545    0.0000 C   0  0  0  0  0  0  0  0  0  0  0  0
    0.0000   -1.1545    0.0000 C   0  0  0  0  0  0  0  0  0  0  0  0
    1.9904    0.0000    0.0000 C   0  0  0  0  0  0  0  0  0  0  0  0
    0.6608    0.0000    0.0000 C   0  0  0  0  0  0  0  0  0  0  0  0
    0.0000   -3.4634    0.0000 O   0  0  0  0  0  0  0  0  0  0  0  0
  1  2  2  0  0  0  0
  1  3  1  0  0  0  0
  2 10  1  0  0  0  0
  3  4  1  0  0  0  0
  4  5  1  0  0  0  0
  4  6  2  0  0  0  0
  5  7  2  0  0  0  0
  6  8  1  0  0  0  0
  7  9  1  0  0  0  0
  8  9  2  0  0  0  0
 10 11  1  0  0  0  0
 10 12  2  0  0  0  0
 11 13  2  0  0  0  0
 11 16  1  0  0  0  0
 12 14  1  0  0  0  0
 13 15  1  0  0  0  0
 14 15  2  0  0  0  0
M  END
> <ID>
11472

> <Formula>
C14H13NO

> <FW>
211.2591

> <DSSTox_CID>
26174

> <DSSTox_RID>
81405

> <DSSTox_GSID>
46174

> <DSSTox_FileID_Sort>
6086

> <TS_ChemName>
Norletimol

> <TS_ChemName_Synonyms>


> <TS_CASRN>
886-08-8

> <CASRN_ChemName_Relationship>
primary

> <TS_Description>
single chemical compound

> <ChemNote>


> <STRUCTURE_Shown>
tested chemical

> <STRUCTURE_Formula>
C14H13NO

> <STRUCTURE_MW>
211.2591

> <STRUCTURE_ChemType>
defined organic

> <STRUCTURE_DefinedOrganicForm>
parent

> <STRUCTURE_IUPAC>
2-(benzylcarbonoimidoyl)phenol

> <STRUCTURE_SMILES>
Oc2ccccc2/C=N/Cc1ccccc1

> <STRUCTURE_SMILES_Desalt>
Oc2ccccc2/C=N/Cc1ccccc1

> <Substance_modify_yyyymmdd>
20110818

$$$$
