886-50-0
ChemmineR-0915142007XD

 16 16  0  0  0  0  0  0  0  0  1 V2000
    1.8256   -2.8121    0.0000 C   0  0  0  0  0  0  0  0  0  0  0  0
    0.4794   -5.1172    0.0000 C   0  0  0  0  0  0  0  0  0  0  0  0
    9.2201   -4.6469    0.0000 C   0  0  0  0  0  0  0  0  0  0  0  0
    3.4483    0.0000    0.0000 C   0  0  0  0  0  0  0  0  0  0  0  0
    0.0000   -3.2916    0.0000 C   0  0  0  0  0  0  0  0  0  0  0  0
    1.1525   -3.9647    0.0000 C   0  0  0  0  0  0  0  0  0  0  0  0
    8.0676   -3.9923    0.0000 C   0  0  0  0  0  0  0  0  0  0  0  0
    4.6008   -0.6546    0.0000 S   0  0  0  0  0  0  0  0  0  0  0  0
    6.9151   -4.6469    0.0000 N   0  0  0  0  0  0  0  0  0  0  0  0
    2.2958   -4.6469    0.0000 N   0  0  0  0  0  0  0  0  0  0  0  0
    5.7534   -2.6462    0.0000 N   0  0  0  0  0  0  0  0  0  0  0  0
    5.7534   -3.9923    0.0000 C   0  0  0  0  0  0  0  0  0  0  0  0
    4.6008   -1.9915    0.0000 C   0  0  0  0  0  0  0  0  0  0  0  0
    4.6008   -4.6469    0.0000 N   0  0  0  0  0  0  0  0  0  0  0  0
    3.4575   -2.6738    0.0000 N   0  0  0  0  0  0  0  0  0  0  0  0
    3.4575   -3.9923    0.0000 C   0  0  0  0  0  0  0  0  0  0  0  0
  1  6  1  0  0  0  0
  2  6  1  0  0  0  0
  3  7  1  0  0  0  0
  4  8  1  0  0  0  0
  5  6  1  0  0  0  0
  6 10  1  0  0  0  0
  7  9  1  0  0  0  0
  8 13  1  0  0  0  0
  9 12  1  0  0  0  0
 10 16  1  0  0  0  0
 11 12  2  0  0  0  0
 11 13  1  0  0  0  0
 12 14  1  0  0  0  0
 13 15  2  0  0  0  0
 14 16  2  0  0  0  0
 15 16  1  0  0  0  0
M  END
> <ID>
3620

> <Formula>
C10H19N5S

> <FW>
241.3564

> <DSSTox_CID>
4318

> <DSSTox_RID>
77367

> <DSSTox_GSID>
24318

> <DSSTox_FileID_Sort>
2050

> <TS_ChemName>
Terbutryn

> <TS_ChemName_Synonyms>


> <TS_CASRN>
886-50-0

> <CASRN_ChemName_Relationship>
primary

> <TS_Description>
single chemical compound

> <ChemNote>


> <STRUCTURE_Shown>
tested chemical

> <STRUCTURE_Formula>
C10H19N5S

> <STRUCTURE_MW>
241.3564

> <STRUCTURE_ChemType>
defined organic

> <STRUCTURE_DefinedOrganicForm>
parent

> <STRUCTURE_IUPAC>
N-tert-butyl-N'-ethyl-6-(methylsulfanyl)-1,3,5-triazine-2,4-diamine

> <STRUCTURE_SMILES>
CSc1nc(NCC)nc(NC(C)(C)C)n1

> <STRUCTURE_SMILES_Desalt>
CSc1nc(NCC)nc(NC(C)(C)C)n1

> <Substance_modify_yyyymmdd>
20080429

$$$$
