886-74-8
ChemmineR-0915142007XD

 16 16  0  0  0  0  0  0  0  0  1 V2000
    1.9879   -3.4563    0.0000 C    0  0  0  0  0  0  0  0  0  0  0  0
    1.3328   -2.3042    0.0000 C    0  0  0  0  0  0  0  0  0  0  0  0
    0.0000   -2.3042    0.0000 Cl   0  0  0  0  0  0  0  0  0  0  0  0
    1.9879   -1.1521    0.0000 C    0  0  0  0  0  0  0  0  0  0  0  0
    3.3207   -1.1521    0.0000 C    0  0  0  0  0  0  0  0  0  0  0  0
    3.9871   -2.3042    0.0000 C    0  0  0  0  0  0  0  0  0  0  0  0
    5.3199   -2.3042    0.0000 O    0  0  0  0  0  0  0  0  0  0  0  0
    5.9750   -3.4563    0.0000 C    0  0  0  0  0  0  0  0  0  0  0  0
    7.3078   -3.4563    0.0000 C    0  0  0  0  0  0  0  0  0  0  0  0
    7.9743   -4.6083    0.0000 O    0  0  0  0  0  0  0  0  0  0  0  0
    7.9743   -2.3042    0.0000 C    0  0  0  0  0  0  0  0  0  0  0  0
    9.3071   -2.3042    0.0000 O    0  0  0  0  0  0  0  0  0  0  0  0
    9.9622   -1.1521    0.0000 C    0  0  0  0  0  0  0  0  0  0  0  0
   11.2950   -1.1521    0.0000 N    0  0  0  0  0  0  0  0  0  0  0  0
    9.3071    0.0000    0.0000 O    0  0  0  0  0  0  0  0  0  0  0  0
    3.3207   -3.4563    0.0000 C    0  0  0  0  0  0  0  0  0  0  0  0
  1  2  2  0  0  0  0
  1 16  1  0  0  0  0
  2  3  1  0  0  0  0
  2  4  1  0  0  0  0
  4  5  2  0  0  0  0
  5  6  1  0  0  0  0
  6  7  1  0  0  0  0
  6 16  2  0  0  0  0
  7  8  1  0  0  0  0
  8  9  1  0  0  0  0
  9 10  1  0  0  0  0
  9 11  1  0  0  0  0
 11 12  1  0  0  0  0
 12 13  1  0  0  0  0
 13 14  1  0  0  0  0
 13 15  2  0  0  0  0
M  END
> <ID>
2535

> <Formula>
C10H12ClNO4

> <FW>
245.6596

> <DSSTox_CID>
2803

> <DSSTox_RID>
76735

> <DSSTox_GSID>
22803

> <DSSTox_FileID_Sort>
1419

> <TS_ChemName>
Chlorphenesin carbamate

> <TS_ChemName_Synonyms>


> <TS_CASRN>
886-74-8

> <CASRN_ChemName_Relationship>
primary

> <TS_Description>
single chemical compound

> <ChemNote>


> <STRUCTURE_Shown>
tested chemical

> <STRUCTURE_Formula>
C10H12ClNO4

> <STRUCTURE_MW>
245.6596

> <STRUCTURE_ChemType>
defined organic

> <STRUCTURE_DefinedOrganicForm>
parent

> <STRUCTURE_IUPAC>
3-(4-chlorophenoxy)-2-hydroxypropyl carbamate

> <STRUCTURE_SMILES>
Clc1ccc(OCC(O)COC(N)=O)cc1

> <STRUCTURE_SMILES_Desalt>
Clc1ccc(OCC(O)COC(N)=O)cc1

> <Substance_modify_yyyymmdd>
20080429

$$$$
