886-38-4
ChemmineR-0915142007XD

 16 18  0  0  0  0  0  0  0  0  1 V2000
    4.1091   -5.1549    0.0000 O   0  0  0  0  0  0  0  0  0  0  0  0
    4.1091   -3.8209    0.0000 C   0  0  0  0  0  0  0  0  0  0  0  0
    4.7843   -2.6680    0.0000 C   0  0  0  0  0  0  0  0  0  0  0  0
    3.4503   -2.6680    0.0000 C   0  0  0  0  0  0  0  0  0  0  0  0
    2.2975   -1.9928    0.0000 C   0  0  0  0  0  0  0  0  0  0  0  0
    2.3139   -0.6588    0.0000 C   0  0  0  0  0  0  0  0  0  0  0  0
    1.1529    0.0000    0.0000 C   0  0  0  0  0  0  0  0  0  0  0  0
    0.0000   -0.6588    0.0000 C   0  0  0  0  0  0  0  0  0  0  0  0
    0.0000   -1.9928    0.0000 C   0  0  0  0  0  0  0  0  0  0  0  0
    1.1364   -2.6516    0.0000 C   0  0  0  0  0  0  0  0  0  0  0  0
    5.9372   -2.0093    0.0000 C   0  0  0  0  0  0  0  0  0  0  0  0
    7.0818   -2.6680    0.0000 C   0  0  0  0  0  0  0  0  0  0  0  0
    8.2346   -2.0093    0.0000 C   0  0  0  0  0  0  0  0  0  0  0  0
    8.2346   -0.6752    0.0000 C   0  0  0  0  0  0  0  0  0  0  0  0
    7.0983   -0.0165    0.0000 C   0  0  0  0  0  0  0  0  0  0  0  0
    5.9372   -0.6752    0.0000 C   0  0  0  0  0  0  0  0  0  0  0  0
  1  2  2  0  0  0  0
  2  3  1  0  0  0  0
  2  4  1  0  0  0  0
  3  4  2  0  0  0  0
  3 11  1  0  0  0  0
  4  5  1  0  0  0  0
  5  6  2  0  0  0  0
  5 10  1  0  0  0  0
  6  7  1  0  0  0  0
  7  8  2  0  0  0  0
  8  9  1  0  0  0  0
  9 10  2  0  0  0  0
 11 12  2  0  0  0  0
 11 16  1  0  0  0  0
 12 13  1  0  0  0  0
 13 14  2  0  0  0  0
 14 15  1  0  0  0  0
 15 16  2  0  0  0  0
M  END
> <ID>
11774

> <Formula>
C15H10O

> <FW>
206.2393

> <DSSTox_CID>
26545

> <DSSTox_RID>
81708

> <DSSTox_GSID>
46545

> <DSSTox_FileID_Sort>
6389

> <TS_ChemName>
Diphenylcyclopropenone

> <TS_ChemName_Synonyms>


> <TS_CASRN>
886-38-4

> <CASRN_ChemName_Relationship>
primary

> <TS_Description>
single chemical compound

> <ChemNote>


> <STRUCTURE_Shown>
tested chemical

> <STRUCTURE_Formula>
C15H10O

> <STRUCTURE_MW>
206.2393

> <STRUCTURE_ChemType>
defined organic

> <STRUCTURE_DefinedOrganicForm>
parent

> <STRUCTURE_IUPAC>
2,3-diphenylcycloprop-2-en-1-one

> <STRUCTURE_SMILES>
O=C2C(=C2c1ccccc1)c3ccccc3

> <STRUCTURE_SMILES_Desalt>
O=C2C(=C2c1ccccc1)c3ccccc3

> <Substance_modify_yyyymmdd>
20110811

$$$$
