88678-31-3
ChemmineR-0915142007XD

 23 25  0  0  0  0  0  0  0  0  1 V2000
    0.0000   -1.9948    0.0000 C   0  0  0  0  0  0  0  0  0  0  0  0
    0.0000   -3.3246    0.0000 C   0  0  0  0  0  0  0  0  0  0  0  0
    1.1359   -4.0034    0.0000 C   0  0  0  0  0  0  0  0  0  0  0  0
    1.1359   -1.3437    0.0000 C   0  0  0  0  0  0  0  0  0  0  0  0
    2.3134   -1.9948    0.0000 C   0  0  0  0  0  0  0  0  0  0  0  0
    2.3134   -3.3246    0.0000 C   0  0  0  0  0  0  0  0  0  0  0  0
    3.4493   -4.0034    0.0000 C   0  0  0  0  0  0  0  0  0  0  0  0
    4.6129   -3.3246    0.0000 C   0  0  0  0  0  0  0  0  0  0  0  0
    4.6129   -1.9948    0.0000 C   0  0  0  0  0  0  0  0  0  0  0  0
    3.4493   -1.3437    0.0000 C   0  0  0  0  0  0  0  0  0  0  0  0
    5.7627   -1.3437    0.0000 O   0  0  0  0  0  0  0  0  0  0  0  0
    6.9263   -1.9948    0.0000 C   0  0  0  0  0  0  0  0  0  0  0  0
    8.0760   -1.3437    0.0000 N   0  0  0  0  0  0  0  0  0  0  0  0
    9.2397   -1.9948    0.0000 C   0  0  0  0  0  0  0  0  0  0  0  0
    8.0760    0.0000    0.0000 C   0  0  0  0  0  0  0  0  0  0  0  0
    9.2397   -3.3246    0.0000 C   0  0  0  0  0  0  0  0  0  0  0  0
   10.3756   -4.0034    0.0000 C   0  0  0  0  0  0  0  0  0  0  0  0
   11.5392   -3.3246    0.0000 C   0  0  0  0  0  0  0  0  0  0  0  0
   11.5392   -1.9948    0.0000 C   0  0  0  0  0  0  0  0  0  0  0  0
   10.3756   -1.3437    0.0000 N   0  0  0  0  0  0  0  0  0  0  0  0
   12.7028   -1.3437    0.0000 O   0  0  0  0  0  0  0  0  0  0  0  0
   13.8526   -1.9948    0.0000 C   0  0  0  0  0  0  0  0  0  0  0  0
    6.9263   -3.3246    0.0000 S   0  0  0  0  0  0  0  0  0  0  0  0
  1  2  1  0  0  0  0
  1  4  1  0  0  0  0
  2  3  1  0  0  0  0
  3  6  1  0  0  0  0
  4  5  1  0  0  0  0
  5  6  2  0  0  0  0
  5 10  1  0  0  0  0
  6  7  1  0  0  0  0
  7  8  2  0  0  0  0
  8  9  1  0  0  0  0
  9 11  1  0  0  0  0
  9 10  2  0  0  0  0
 11 12  1  0  0  0  0
 12 13  1  0  0  0  0
 12 23  2  0  0  0  0
 13 14  1  0  0  0  0
 13 15  1  0  0  0  0
 14 16  1  0  0  0  0
 14 20  2  0  0  0  0
 16 17  2  0  0  0  0
 17 18  1  0  0  0  0
 18 19  2  0  0  0  0
 19 20  1  0  0  0  0
 19 21  1  0  0  0  0
 21 22  1  0  0  0  0
M  END
> <ID>
11708

> <Formula>
C18H20N2O2S

> <FW>
328.4286

> <DSSTox_CID>
26470

> <DSSTox_RID>
81642

> <DSSTox_GSID>
46470

> <DSSTox_FileID_Sort>
6323

> <TS_ChemName>
Liranaftate

> <TS_ChemName_Synonyms>


> <TS_CASRN>
88678-31-3

> <CASRN_ChemName_Relationship>
primary

> <TS_Description>
single chemical compound

> <ChemNote>


> <STRUCTURE_Shown>
tested chemical

> <STRUCTURE_Formula>
C18H20N2O2S

> <STRUCTURE_MW>
328.4286

> <STRUCTURE_ChemType>
defined organic

> <STRUCTURE_DefinedOrganicForm>
parent

> <STRUCTURE_IUPAC>
O-(5,6,7,8-tetrahydronaphthalen-2-yl) (6-methoxypyridin-2-yl)methylcarbamothioate

> <STRUCTURE_SMILES>
COc1cccc(n1)N(C)C(=S)Oc2cc3CCCCc3cc2

> <STRUCTURE_SMILES_Desalt>
COc1cccc(n1)N(C)C(=S)Oc2cc3CCCCc3cc2

> <Substance_modify_yyyymmdd>
20110812

$$$$
