88768-40-5
ChemmineR-0915142007XD

 30 32  0  0  1  0  0  0  0  0  1 V2000
   11.4634   -3.9090    0.0000 C   0  0  0  0  0  0  0  0  0  0  0  0
   11.4634   -5.2273    0.0000 C   0  0  0  0  0  0  0  0  0  0  0  0
   10.3400   -3.2556    0.0000 C   0  0  0  0  0  0  0  0  0  0  0  0
   10.3400   -5.8692    0.0000 C   0  0  0  0  0  0  0  0  0  0  0  0
    9.2280   -3.9090    0.0000 N   0  0  0  0  0  0  0  0  0  0  0  0
    9.2280   -5.2273    0.0000 N   0  0  0  0  0  0  0  0  0  0  0  0
    8.1963   -3.0836    0.0000 C   0  0  0  0  0  0  0  0  0  0  0  0
    6.9468   -3.3932    0.0000 C   0  0  0  0  0  0  0  0  0  0  0  0
    8.1963   -6.0412    0.0000 C   0  0  0  0  0  0  0  0  0  0  0  0
    6.9468   -5.7317    0.0000 C   0  0  0  0  0  0  0  0  0  0  0  0
    6.3736   -4.5739    0.0000 C   0  0  0  0  0  0  0  0  0  0  0  0
   10.3400   -1.9717    0.0000 C   0  0  0  0  0  0  0  0  0  0  0  0
    9.2280   -1.3183    0.0000 O   0  0  0  0  0  0  0  0  0  0  0  0
   11.4634   -1.3183    0.0000 O   0  0  0  0  0  0  0  0  0  0  0  0
    8.4944   -1.8456    0.0000 O   0  0  0  0  0  0  0  0  0  0  0  0
    6.1214   -2.3729    0.0000 N   0  0  0  0  0  0  0  0  0  0  0  0
    4.0580   -1.1922    0.0000 C   0  0  0  0  0  0  0  0  0  0  0  0
    4.7229   -2.3729    0.0000 C   0  0  0  0  0  0  0  0  0  0  0  0
    4.7114    0.0000    0.0000 O   0  0  0  0  0  0  0  0  0  0  0  0
    4.0695   -3.5880    0.0000 C   0  0  0  0  0  0  0  0  0  0  0  0
    2.6824   -1.1922    0.0000 O   0  0  0  0  0  0  0  0  0  0  0  0
    2.7168   -3.5880    0.0000 C   0  0  0  0  0  0  0  0  0  0  0  0
    2.0405   -4.7802    0.0000 C   0  0  0  0  0  0  0  0  0  0  0  0
    2.0061   -2.4073    0.0000 C   0  0  0  0  0  0  0  0  0  0  0  0
    2.7168   -5.9495    0.0000 C   0  0  0  0  0  0  0  0  0  0  0  0
    0.6878   -4.7802    0.0000 C   0  0  0  0  0  0  0  0  0  0  0  0
    0.6419   -2.4073    0.0000 C   0  0  0  0  0  0  0  0  0  0  0  0
    2.0634   -7.1073    0.0000 C   0  0  0  0  0  0  0  0  0  0  0  0
    0.0000   -5.9953    0.0000 C   0  0  0  0  0  0  0  0  0  0  0  0
    0.6993   -7.1417    0.0000 C   0  0  0  0  0  0  0  0  0  0  0  0
  1  2  1  0  0  0  0
  1  3  1  0  0  0  0
  2  4  1  0  0  0  0
  3  5  1  0  0  0  0
  3 12  1  6  0  0  0
  4  6  1  0  0  0  0
  5  7  1  0  0  0  0
  5  6  1  0  0  0  0
  6  9  1  0  0  0  0
  7  8  1  0  0  0  0
  7 15  2  0  0  0  0
  8 11  1  0  0  0  0
  8 16  1  6  0  0  0
  9 10  1  0  0  0  0
 10 11  1  0  0  0  0
 12 13  2  0  0  0  0
 12 14  1  0  0  0  0
 16 18  1  0  0  0  0
 18 17  1  1  0  0  0
 17 19  2  0  0  0  0
 17 21  1  0  0  0  0
 18 20  1  0  0  0  0
 20 22  1  0  0  0  0
 21 24  1  0  0  0  0
 22 23  1  0  0  0  0
 23 25  2  0  0  0  0
 23 26  1  0  0  0  0
 24 27  1  0  0  0  0
 25 28  1  0  0  0  0
 26 29  2  0  0  0  0
 28 30  2  0  0  0  0
 29 30  1  0  0  0  0
M  END
> <ID>
13626

> <Formula>
C22H31N3O5

> <FW>
417.4986

> <DSSTox_CID>
28555

> <DSSTox_RID>
82827

> <DSSTox_GSID>
48629

> <DSSTox_FileID_Sort>
7504

> <TS_ChemName>
Cilazapril

> <TS_ChemName_Synonyms>


> <TS_CASRN>
88768-40-5

> <CASRN_ChemName_Relationship>
primary

> <TS_Description>
single chemical compound

> <ChemNote>
stereochem

> <STRUCTURE_Shown>
tested chemical

> <STRUCTURE_Formula>
C22H31N3O5

> <STRUCTURE_MW>
417.4986

> <STRUCTURE_ChemType>
defined organic

> <STRUCTURE_DefinedOrganicForm>
parent

> <STRUCTURE_IUPAC>
(1S,9S)-9-{[(2S)-1-ethoxy-1-oxo-4-phenylbutan-2-yl]amino}-10-oxooctahydro-6H-pyridazino[1,2-a][1,2]diazepine-1-carboxylic acid

> <STRUCTURE_SMILES>
O=C(OCC)[C@H](CCc1ccccc1)N[C@H]2CCCN3CCC[C@H](N3C2=O)C(=O)O

> <STRUCTURE_SMILES_Desalt>
O=C(OCC)[C@H](CCc1ccccc1)N[C@H]2CCCN3CCC[C@H](N3C2=O)C(=O)O

> <Substance_modify_yyyymmdd>
20111015

$$$$
