88840-42-0
ChemmineR-0915142007XD

 11 10  0  0  0  0  0  0  0  0  2 V2000
    4.9829   -5.6225    0.0000 C    0  0  0  0  0  0  0  0  0  0  0  0
    2.6746   -2.9653    0.0000 C    0  0  0  0  0  0  0  0  0  0  0  0
    4.9829   -4.2910    0.0000 C    0  0  0  0  0  0  0  0  0  0  0  0
    5.1573    0.0000    0.0000 C    0  0  0  0  0  0  0  0  0  0  0  0
    3.8258    0.0000    0.0000 C    0  0  0  0  0  0  0  0  0  0  0  0
    5.8143   -1.1512    0.0000 C    0  0  0  0  0  0  0  0  0  0  0  0
    3.8258   -3.6340    0.0000 C    0  0  0  0  0  0  0  0  0  0  0  0
    3.1572   -1.1512    0.0000 C    0  0  0  0  0  0  0  0  0  0  0  0
    5.1573   -2.3083    0.0000 C    0  0  0  0  0  0  0  0  0  0  0  0
    3.8258   -2.3083    0.0000 N    0  3  0  0  0  0  0  0  0  0  0  0
    0.0000   -1.1512    0.0000 Br   0  5  0  0  0  0  0  0  0  0  0  0
  1  3  1  0  0  0  0
  2 10  1  0  0  0  0
  3  7  1  0  0  0  0
  4  5  1  0  0  0  0
  4  6  1  0  0  0  0
  5  8  1  0  0  0  0
  6  9  1  0  0  0  0
  7 10  1  0  0  0  0
  8 10  1  0  0  0  0
  9 10  1  0  0  0  0
M  END
> <ID>
14234

> <Formula>
C9H20BrN

> <FW>
222.1658 (142.2613+79.9045)

> <DSSTox_CID>
29329

> <DSSTox_RID>
83445

> <DSSTox_GSID>
49370

> <DSSTox_FileID_Sort>
8120

> <TS_ChemName>
1-Methyl-1-propylpiperidinium bromide

> <TS_ChemName_Synonyms>


> <TS_CASRN>
88840-42-0

> <CASRN_ChemName_Relationship>
primary

> <TS_Description>
single chemical compound

> <ChemNote>


> <STRUCTURE_Shown>
tested chemical

> <STRUCTURE_Formula>
C9H20BrN

> <STRUCTURE_MW>
222.1658

> <STRUCTURE_ChemType>
defined organic

> <STRUCTURE_DefinedOrganicForm>
salt

> <STRUCTURE_IUPAC>
1-methyl-1-propylpiperidinium bromide

> <STRUCTURE_SMILES>
[Br-].CCC[N+]1(C)CCCCC1

> <STRUCTURE_SMILES_Desalt>
CCC[N+]1(C)CCCCC1

> <Substance_modify_yyyymmdd>
20111204

$$$$
