88889-14-9
ChemmineR-0915142007XD

 40 41  0  0  1  0  0  0  0  0  2 V2000
    7.9633   -6.7524    0.0000 P    0  0  0  0  0  0  0  0  0  0  0  0
    7.9633   -5.4418    0.0000 O    0  0  0  0  0  0  0  0  0  0  0  0
    2.2935   -7.4219    0.0000 C    0  0  0  0  0  0  0  0  0  0  0  0
    2.2935   -8.7325    0.0000 C    0  0  0  0  0  0  0  0  0  0  0  0
    1.1254   -6.7524    0.0000 C    0  0  0  0  0  0  0  0  0  0  0  0
    1.1254   -9.3878    0.0000 C    0  0  0  0  0  0  0  0  0  0  0  0
    0.0000   -7.4219    0.0000 C    0  0  0  0  0  0  0  0  0  0  0  0
    0.0000   -8.7325    0.0000 C    0  0  0  0  0  0  0  0  0  0  0  0
    3.4189   -6.7524    0.0000 C    0  0  0  0  0  0  0  0  0  0  0  0
    4.5586   -7.4219    0.0000 C    0  0  0  0  0  0  0  0  0  0  0  0
    5.6982   -6.7524    0.0000 C    0  0  0  0  0  0  0  0  0  0  0  0
    6.8379   -7.4219    0.0000 C    0  0  0  0  0  0  0  0  0  0  0  0
    9.1599   -4.6725    0.0000 C    0  0  0  0  0  0  0  0  0  0  0  0
   10.2568   -5.4418    0.0000 N    0  0  0  0  0  0  0  0  0  0  0  0
    9.5730   -3.4332    0.0000 C    0  0  0  0  0  0  0  0  0  0  0  0
   11.2967   -4.6725    0.0000 C    0  0  0  0  0  0  0  0  0  0  0  0
   10.8836   -3.4332    0.0000 C    0  0  0  0  0  0  0  0  0  0  0  0
   12.5503   -5.0857    0.0000 C    0  0  0  0  0  0  0  0  0  0  0  0
   13.5475   -4.1882    0.0000 O    0  0  0  0  0  0  0  0  0  0  0  0
   12.8352   -6.3678    0.0000 O    0  5  0  0  0  0  0  0  0  0  0  0
    8.9462    0.0000    0.0000 C    0  0  0  0  0  0  0  0  0  0  0  0
    9.5730   -1.1539    0.0000 C    0  0  0  0  0  0  0  0  0  0  0  0
    7.6071    0.0000    0.0000 C    0  0  0  0  0  0  0  0  0  0  0  0
    8.9462   -2.2793    0.0000 C    0  0  0  0  0  0  0  0  0  0  0  0
    6.9518   -1.1539    0.0000 C    0  0  0  0  0  0  0  0  0  0  0  0
    7.6071   -2.2793    0.0000 C    0  0  0  0  0  0  0  0  0  0  0  0
   10.2568   -6.7524    0.0000 C    0  0  0  0  0  0  0  0  0  0  0  0
    9.1171   -7.4077    0.0000 C    0  0  0  0  0  0  0  0  0  0  0  0
   11.3822   -7.4077    0.0000 O    0  0  0  0  0  0  0  0  0  0  0  0
    5.8834  -10.3708    0.0000 C    0  0  0  0  0  0  0  0  0  0  0  0
    5.8834  -11.6813    0.0000 C    0  0  0  0  0  0  0  0  0  0  0  0
    7.0231   -9.7155    0.0000 C    0  0  0  0  0  0  0  0  0  0  0  0
    4.7580   -9.7155    0.0000 C    0  0  0  0  0  0  0  0  0  0  0  0
    8.1627  -10.3708    0.0000 O    0  0  0  0  0  0  0  0  0  0  0  0
    9.2881   -9.7155    0.0000 C    0  0  0  0  0  0  0  0  0  0  0  0
   10.4562  -10.3708    0.0000 C    0  0  0  0  0  0  0  0  0  0  0  0
    9.2881   -8.4049    0.0000 O    0  0  0  0  0  0  0  0  0  0  0  0
   11.5816   -9.7155    0.0000 C    0  0  0  0  0  0  0  0  0  0  0  0
    7.0231   -8.4049    0.0000 O    0  0  0  0  0  0  0  0  0  0  0  0
   14.2455   -5.4133    0.0000 Na   0  3  0  0  0  0  0  0  0  0  0  0
  1  2  2  0  0  0  0
  1 12  1  0  0  0  0
  1 28  1  0  0  0  0
  1 39  1  0  0  0  0
  3  4  1  0  0  0  0
  3  5  2  0  0  0  0
  3  9  1  0  0  0  0
  4  6  2  0  0  0  0
  5  7  1  0  0  0  0
  6  8  1  0  0  0  0
  7  8  2  0  0  0  0
  9 10  1  0  0  0  0
 10 11  1  0  0  0  0
 11 12  1  0  0  0  0
 13 14  1  0  0  0  0
 13 15  1  0  0  0  0
 14 16  1  0  0  0  0
 14 27  1  0  0  0  0
 15 17  1  0  0  0  0
 15 24  1  6  0  0  0
 16 17  1  0  0  0  0
 16 18  1  1  0  0  0
 18 19  2  0  0  0  0
 18 20  1  0  0  0  0
 21 22  1  0  0  0  0
 21 23  1  0  0  0  0
 22 24  1  0  0  0  0
 23 25  1  0  0  0  0
 24 26  1  0  0  0  0
 25 26  1  0  0  0  0
 27 28  1  0  0  0  0
 27 29  2  0  0  0  0
 30 31  1  0  0  0  0
 30 32  1  0  0  0  0
 30 33  1  0  0  0  0
 32 34  1  0  0  0  0
 32 39  1  0  0  0  0
 34 35  1  0  0  0  0
 35 36  1  0  0  0  0
 35 37  2  0  0  0  0
 36 38  1  0  0  0  0
M  END
> <ID>
11837

> <Formula>
C30H45NNaO7P

> <FW>
585.6443 (562.6551+22.9892)

> <DSSTox_CID>
26621

> <DSSTox_RID>
81772

> <DSSTox_GSID>
46621

> <DSSTox_FileID_Sort>
6453

> <TS_ChemName>
Fosinopril sodium

> <TS_ChemName_Synonyms>


> <TS_CASRN>
88889-14-9

> <CASRN_ChemName_Relationship>
primary

> <TS_Description>
single chemical compound

> <ChemNote>
stereochem; parent [98048-97-6]

> <STRUCTURE_Shown>
tested chemical

> <STRUCTURE_Formula>
C30H45NNaO7P

> <STRUCTURE_MW>
585.6443

> <STRUCTURE_ChemType>
defined organic

> <STRUCTURE_DefinedOrganicForm>
salt

> <STRUCTURE_IUPAC>
sodium (2S,4S)-4-cyclohexyl-1-({[2-methyl-1-(propanoyloxy)propoxy](4-phenylbutyl)phosphoryl}acetyl)pyrrolidine-2-carboxylate

> <STRUCTURE_SMILES>
[Na+].O=C(CP(=O)(CCCCc1ccccc1)OC(OC(=O)CC)C(C)C)N2C[C@@H](C[C@H]2C([O-])=O)C3CCCCC3

> <STRUCTURE_SMILES_Desalt>
O=C(CP(=O)(CCCCc1ccccc1)OC(OC(=O)CC)C(C)C)N2C[C@@H](C[C@H]2C(=O)O)C3CCCCC3

> <Substance_modify_yyyymmdd>
20110809

$$$$
