89-00-9
ChemmineR-0915142007XD

 12 12  0  0  0  0  0  0  0  0  1 V2000
    1.1558   -3.9946    0.0000 N   0  0  0  0  0  0  0  0  0  0  0  0
    0.0000   -3.3182    0.0000 C   0  0  0  0  0  0  0  0  0  0  0  0
    2.3115   -3.3182    0.0000 C   0  0  0  0  0  0  0  0  0  0  0  0
    2.3115   -1.9866    0.0000 C   0  0  0  0  0  0  0  0  0  0  0  0
    0.0000   -1.9866    0.0000 C   0  0  0  0  0  0  0  0  0  0  0  0
    1.1558   -1.3315    0.0000 C   0  0  0  0  0  0  0  0  0  0  0  0
    3.4673   -3.9946    0.0000 C   0  0  0  0  0  0  0  0  0  0  0  0
    3.4673   -5.3261    0.0000 O   0  0  0  0  0  0  0  0  0  0  0  0
    4.6018   -3.3182    0.0000 O   0  0  0  0  0  0  0  0  0  0  0  0
    3.4673   -1.3315    0.0000 C   0  0  0  0  0  0  0  0  0  0  0  0
    4.6018   -1.9866    0.0000 O   0  0  0  0  0  0  0  0  0  0  0  0
    3.4673    0.0000    0.0000 O   0  0  0  0  0  0  0  0  0  0  0  0
  1  2  2  0  0  0  0
  1  3  1  0  0  0  0
  2  5  1  0  0  0  0
  3  4  2  0  0  0  0
  3  7  1  0  0  0  0
  4  6  1  0  0  0  0
  4 10  1  0  0  0  0
  5  6  2  0  0  0  0
  7  8  2  0  0  0  0
  7  9  1  0  0  0  0
 10 11  1  0  0  0  0
 10 12  2  0  0  0  0
M  END
> <ID>
8293

> <Formula>
C7H5NO4

> <FW>
167.1189

> <DSSTox_CID>
21327

> <DSSTox_RID>
79688

> <DSSTox_GSID>
41327

> <DSSTox_FileID_Sort>
4370

> <TS_ChemName>
2,3-Pyridinedicarboxylic acid

> <TS_ChemName_Synonyms>


> <TS_CASRN>
89-00-9

> <CASRN_ChemName_Relationship>
primary

> <TS_Description>
single chemical compound

> <ChemNote>


> <STRUCTURE_Shown>
tested chemical

> <STRUCTURE_Formula>
C7H5NO4

> <STRUCTURE_MW>
167.1189

> <STRUCTURE_ChemType>
defined organic

> <STRUCTURE_DefinedOrganicForm>
parent

> <STRUCTURE_IUPAC>
pyridine-2,3-dicarboxylic acid

> <STRUCTURE_SMILES>
OC(=O)c1ncccc1C(=O)O

> <STRUCTURE_SMILES_Desalt>
OC(=O)c1ncccc1C(=O)O

> <Substance_modify_yyyymmdd>
20080825

$$$$
