89-04-3
ChemmineR-0915142007XD

 39 39  0  0  0  0  0  0  0  0  1 V2000
   12.6442   -8.0751    0.0000 C   0  0  0  0  0  0  0  0  0  0  0  0
   11.9882   -6.9215    0.0000 C   0  0  0  0  0  0  0  0  0  0  0  0
   12.6442   -5.7679    0.0000 C   0  0  0  0  0  0  0  0  0  0  0  0
   11.9882   -4.6143    0.0000 C   0  0  0  0  0  0  0  0  0  0  0  0
   12.6442   -3.4607    0.0000 C   0  0  0  0  0  0  0  0  0  0  0  0
   11.9882   -2.3072    0.0000 C   0  0  0  0  0  0  0  0  0  0  0  0
   12.6442   -1.1536    0.0000 C   0  0  0  0  0  0  0  0  0  0  0  0
   11.9882    0.0000    0.0000 C   0  0  0  0  0  0  0  0  0  0  0  0
    6.6501  -13.8204    0.0000 C   0  0  0  0  0  0  0  0  0  0  0  0
    5.9941  -14.9739    0.0000 C   0  0  0  0  0  0  0  0  0  0  0  0
    4.6596  -14.9739    0.0000 C   0  0  0  0  0  0  0  0  0  0  0  0
    4.0036  -16.1275    0.0000 C   0  0  0  0  0  0  0  0  0  0  0  0
    2.6691  -16.1275    0.0000 C   0  0  0  0  0  0  0  0  0  0  0  0
    2.0131  -17.2811    0.0000 C   0  0  0  0  0  0  0  0  0  0  0  0
    0.6786  -17.2811    0.0000 C   0  0  0  0  0  0  0  0  0  0  0  0
    0.0000  -18.4347    0.0000 C   0  0  0  0  0  0  0  0  0  0  0  0
   11.9882  -13.8204    0.0000 C   0  0  0  0  0  0  0  0  0  0  0  0
   10.6537  -13.8204    0.0000 C   0  0  0  0  0  0  0  0  0  0  0  0
   10.6537  -11.5132    0.0000 C   0  0  0  0  0  0  0  0  0  0  0  0
   11.9882  -11.5358    0.0000 C   0  0  0  0  0  0  0  0  0  0  0  0
    9.9977  -12.6668    0.0000 C   0  0  0  0  0  0  0  0  0  0  0  0
   12.6442  -12.6668    0.0000 C   0  0  0  0  0  0  0  0  0  0  0  0
   13.9787  -12.6668    0.0000 C   0  0  0  0  0  0  0  0  0  0  0  0
   14.6347  -13.8204    0.0000 O   0  0  0  0  0  0  0  0  0  0  0  0
   14.6573  -11.5358    0.0000 O   0  0  0  0  0  0  0  0  0  0  0  0
   12.6442  -10.3822    0.0000 C   0  0  0  0  0  0  0  0  0  0  0  0
   11.9882   -9.2287    0.0000 O   0  0  0  0  0  0  0  0  0  0  0  0
   13.9787  -10.3822    0.0000 O   0  0  0  0  0  0  0  0  0  0  0  0
    8.6632  -12.6668    0.0000 C   0  0  0  0  0  0  0  0  0  0  0  0
    7.9846  -11.5132    0.0000 O   0  0  0  0  0  0  0  0  0  0  0  0
    7.9846  -13.8204    0.0000 O   0  0  0  0  0  0  0  0  0  0  0  0
   15.9692  -13.8204    0.0000 C   0  0  0  0  0  0  0  0  0  0  0  0
   16.6252  -14.9966    0.0000 C   0  0  0  0  0  0  0  0  0  0  0  0
   17.9597  -14.9966    0.0000 C   0  0  0  0  0  0  0  0  0  0  0  0
   18.6156  -16.1501    0.0000 C   0  0  0  0  0  0  0  0  0  0  0  0
   19.9502  -16.1501    0.0000 C   0  0  0  0  0  0  0  0  0  0  0  0
   20.6288  -17.2811    0.0000 C   0  0  0  0  0  0  0  0  0  0  0  0
   21.9633  -17.2811    0.0000 C   0  0  0  0  0  0  0  0  0  0  0  0
   22.6193  -18.4347    0.0000 C   0  0  0  0  0  0  0  0  0  0  0  0
  1  2  1  0  0  0  0
  1 27  1  0  0  0  0
  2  3  1  0  0  0  0
  3  4  1  0  0  0  0
  4  5  1  0  0  0  0
  5  6  1  0  0  0  0
  6  7  1  0  0  0  0
  7  8  1  0  0  0  0
  9 10  1  0  0  0  0
  9 31  1  0  0  0  0
 10 11  1  0  0  0  0
 11 12  1  0  0  0  0
 12 13  1  0  0  0  0
 13 14  1  0  0  0  0
 14 15  1  0  0  0  0
 15 16  1  0  0  0  0
 17 22  2  0  0  0  0
 17 18  1  0  0  0  0
 18 21  2  0  0  0  0
 19 20  2  0  0  0  0
 19 21  1  0  0  0  0
 20 26  1  0  0  0  0
 20 22  1  0  0  0  0
 21 29  1  0  0  0  0
 22 23  1  0  0  0  0
 23 24  1  0  0  0  0
 23 25  2  0  0  0  0
 24 32  1  0  0  0  0
 26 27  1  0  0  0  0
 26 28  2  0  0  0  0
 29 30  2  0  0  0  0
 29 31  1  0  0  0  0
 32 33  1  0  0  0  0
 33 34  1  0  0  0  0
 34 35  1  0  0  0  0
 35 36  1  0  0  0  0
 36 37  1  0  0  0  0
 37 38  1  0  0  0  0
 38 39  1  0  0  0  0
M  END
> <ID>
12658

> <Formula>
C33H54O6

> <FW>
546.7783

> <DSSTox_CID>
27533

> <DSSTox_RID>
82401

> <DSSTox_GSID>
47533

> <DSSTox_FileID_Sort>
7082

> <TS_ChemName>
Trioctyl trimellitate

> <TS_ChemName_Synonyms>
Tri (n-octyl) Trimellitate

> <TS_CASRN>
89-04-3

> <CASRN_ChemName_Relationship>
primary

> <TS_Description>
single chemical compound

> <ChemNote>


> <STRUCTURE_Shown>
tested chemical

> <STRUCTURE_Formula>
C33H54O6

> <STRUCTURE_MW>
546.7783

> <STRUCTURE_ChemType>
defined organic

> <STRUCTURE_DefinedOrganicForm>
parent

> <STRUCTURE_IUPAC>
trioctyl benzene-1,2,4-tricarboxylate

> <STRUCTURE_SMILES>
O=C(OCCCCCCCC)c1cc(C(=O)OCCCCCCCC)c(cc1)C(=O)OCCCCCCCC

> <STRUCTURE_SMILES_Desalt>
O=C(OCCCCCCCC)c1cc(C(=O)OCCCCCCCC)c(cc1)C(=O)OCCCCCCCC

> <Substance_modify_yyyymmdd>
20100921

$$$$
