89-32-7
ChemmineR-0915142007XD

 16 18  0  0  0  0  0  0  0  0  1 V2000
    4.3521   -3.0758    0.0000 C   0  0  0  0  0  0  0  0  0  0  0  0
    3.2545   -3.8289    0.0000 C   0  0  0  0  0  0  0  0  0  0  0  0
    2.0421   -3.1907    0.0000 C   0  0  0  0  0  0  0  0  0  0  0  0
    2.0421   -1.8506    0.0000 C   0  0  0  0  0  0  0  0  0  0  0  0
    3.1269   -1.1359    0.0000 C   0  0  0  0  0  0  0  0  0  0  0  0
    4.3394   -1.7868    0.0000 C   0  0  0  0  0  0  0  0  0  0  0  0
    6.3814   -2.3611    0.0000 O   0  0  0  0  0  0  0  0  0  0  0  0
    5.5837   -1.3082    0.0000 C   0  0  0  0  0  0  0  0  0  0  0  0
    5.6476   -3.4460    0.0000 C   0  0  0  0  0  0  0  0  0  0  0  0
    0.0000   -2.6164    0.0000 O   0  0  0  0  0  0  0  0  0  0  0  0
    0.7977   -3.6693    0.0000 C   0  0  0  0  0  0  0  0  0  0  0  0
    0.7339   -1.5188    0.0000 C   0  0  0  0  0  0  0  0  0  0  0  0
    0.4786   -4.9456    0.0000 O   0  0  0  0  0  0  0  0  0  0  0  0
    0.2553   -0.2872    0.0000 O   0  0  0  0  0  0  0  0  0  0  0  0
    5.9220    0.0000    0.0000 O   0  0  0  0  0  0  0  0  0  0  0  0
    6.1134   -4.6712    0.0000 O   0  0  0  0  0  0  0  0  0  0  0  0
  1  2  2  0  0  0  0
  1  6  1  0  0  0  0
  1  9  1  0  0  0  0
  2  3  1  0  0  0  0
  3  4  2  0  0  0  0
  3 11  1  0  0  0  0
  4  5  1  0  0  0  0
  4 12  1  0  0  0  0
  5  6  2  0  0  0  0
  6  8  1  0  0  0  0
  7  8  1  0  0  0  0
  7  9  1  0  0  0  0
  8 15  2  0  0  0  0
  9 16  2  0  0  0  0
 10 11  1  0  0  0  0
 10 12  1  0  0  0  0
 11 13  2  0  0  0  0
 12 14  2  0  0  0  0
M  END
> <ID>
4716

> <Formula>
C10H2O6

> <FW>
218.1193

> <DSSTox_CID>
6536

> <DSSTox_RID>
78142

> <DSSTox_GSID>
26536

> <DSSTox_FileID_Sort>
2825

> <TS_ChemName>
1H,3H-Benzo(1,2-c:4,5-c')difuran-1,3,5,7-tetrone

> <TS_ChemName_Synonyms>


> <TS_CASRN>
89-32-7

> <CASRN_ChemName_Relationship>
primary

> <TS_Description>
single chemical compound

> <ChemNote>


> <STRUCTURE_Shown>
tested chemical

> <STRUCTURE_Formula>
C10H2O6

> <STRUCTURE_MW>
218.1193

> <STRUCTURE_ChemType>
defined organic

> <STRUCTURE_DefinedOrganicForm>
parent

> <STRUCTURE_IUPAC>
1H,3H-benzo[1,2-c:4,5-c']difuran-1,3,5,7-tetrone

> <STRUCTURE_SMILES>
O=C2OC(=O)c1cc3c(cc12)C(=O)OC3=O

> <STRUCTURE_SMILES_Desalt>
O=C2OC(=O)c1cc3c(cc12)C(=O)OC3=O

> <Substance_modify_yyyymmdd>
20080429

$$$$
