89-33-8
ChemmineR-0915142007XD

 17 18  0  0  0  0  0  0  0  0  1 V2000
    5.8298   -1.7384    0.0000 N   0  0  0  0  0  0  0  0  0  0  0  0
    6.6142   -2.7983    0.0000 N   0  0  0  0  0  0  0  0  0  0  0  0
    4.6427   -3.4555    0.0000 C   0  0  0  0  0  0  0  0  0  0  0  0
    5.8298   -3.8583    0.0000 C   0  0  0  0  0  0  0  0  0  0  0  0
    4.6427   -2.1199    0.0000 C   0  0  0  0  0  0  0  0  0  0  0  0
    3.5615   -1.3144    0.0000 C   0  0  0  0  0  0  0  0  0  0  0  0
    3.7099    0.0000    0.0000 O   0  0  0  0  0  0  0  0  0  0  0  0
    2.2471   -1.8444    0.0000 O   0  0  0  0  0  0  0  0  0  0  0  0
    6.2326   -5.1727    0.0000 O   0  0  0  0  0  0  0  0  0  0  0  0
    9.9425   -1.6112    0.0000 C   0  0  0  0  0  0  0  0  0  0  0  0
   10.5997   -2.7983    0.0000 C   0  0  0  0  0  0  0  0  0  0  0  0
    9.9425   -3.9643    0.0000 C   0  0  0  0  0  0  0  0  0  0  0  0
    8.6070   -3.9643    0.0000 C   0  0  0  0  0  0  0  0  0  0  0  0
    7.9498   -2.7983    0.0000 C   0  0  0  0  0  0  0  0  0  0  0  0
    8.6070   -1.6112    0.0000 C   0  0  0  0  0  0  0  0  0  0  0  0
    1.1872   -1.0812    0.0000 C   0  0  0  0  0  0  0  0  0  0  0  0
    0.0000   -1.6112    0.0000 C   0  0  0  0  0  0  0  0  0  0  0  0
  1  2  1  0  0  0  0
  1  5  2  0  0  0  0
  2  4  1  0  0  0  0
  2 14  1  0  0  0  0
  3  4  1  0  0  0  0
  3  5  1  0  0  0  0
  4  9  2  0  0  0  0
  5  6  1  0  0  0  0
  6  7  2  0  0  0  0
  6  8  1  0  0  0  0
  8 16  1  0  0  0  0
 10 15  2  0  0  0  0
 10 11  1  0  0  0  0
 11 12  2  0  0  0  0
 12 13  1  0  0  0  0
 13 14  2  0  0  0  0
 14 15  1  0  0  0  0
 16 17  1  0  0  0  0
M  END
> <ID>
10390

> <Formula>
C12H12N2O3

> <FW>
232.2353

> <DSSTox_CID>
24738

> <DSSTox_RID>
80434

> <DSSTox_GSID>
44738

> <DSSTox_FileID_Sort>
5116

> <TS_ChemName>
Ethyl 5-oxo-1-phenyl-4,5-dihydro-1H-pyrazole-3-carboxylate

> <TS_ChemName_Synonyms>
Ethyl 5-oxo-1-phenyl-4,5-dihydro-1H-pyrazole-3-carboxylate (1H-Pyrazole-3-carboxylic acid, 4,5-dihydro-5-oxo-1-phenyl-, ethyl ester)

> <TS_CASRN>
89-33-8

> <CASRN_ChemName_Relationship>
primary

> <TS_Description>
single chemical compound

> <ChemNote>
tautomers

> <STRUCTURE_Shown>
tested chemical

> <STRUCTURE_Formula>
C12H12N2O3

> <STRUCTURE_MW>
232.2353

> <STRUCTURE_ChemType>
defined organic

> <STRUCTURE_DefinedOrganicForm>
parent

> <STRUCTURE_IUPAC>
ethyl 5-oxo-1-phenyl-4,5-dihydro-1H-pyrazole-3-carboxylate

> <STRUCTURE_SMILES>
O=C(OCC)C=1CC(=O)N(N=1)c2ccccc2

> <STRUCTURE_SMILES_Desalt>
O=C(OCC)C=1CC(=O)N(N=1)c2ccccc2

> <Substance_modify_yyyymmdd>
20091116

$$$$
