89-36-1
ChemmineR-0915142007XD

 17 18  0  0  0  0  0  0  0  0  1 V2000
    7.1178   -1.4470    0.0000 C   0  0  0  0  0  0  0  0  0  0  0  0
    6.4627   -2.6007    0.0000 C   0  0  0  0  0  0  0  0  0  0  0  0
    5.1330   -2.6007    0.0000 C   0  0  0  0  0  0  0  0  0  0  0  0
    4.4584   -1.4470    0.0000 C   0  0  0  0  0  0  0  0  0  0  0  0
    5.1330   -0.2933    0.0000 C   0  0  0  0  0  0  0  0  0  0  0  0
    6.4627   -0.2933    0.0000 C   0  0  0  0  0  0  0  0  0  0  0  0
    8.4475   -1.4470    0.0000 S   0  0  0  0  0  0  0  0  0  0  0  0
    8.4475   -2.7767    0.0000 O   0  0  0  0  0  0  0  0  0  0  0  0
    8.4475   -0.1173    0.0000 O   0  0  0  0  0  0  0  0  0  0  0  0
    9.7772   -1.4470    0.0000 O   0  0  0  0  0  0  0  0  0  0  0  0
    2.3367   -0.3715    0.0000 N   0  0  0  0  0  0  0  0  0  0  0  0
    3.1287   -1.4470    0.0000 N   0  0  0  0  0  0  0  0  0  0  0  0
    1.0755   -2.1021    0.0000 C   0  0  0  0  0  0  0  0  0  0  0  0
    2.3367   -2.5127    0.0000 C   0  0  0  0  0  0  0  0  0  0  0  0
    1.0755   -0.7724    0.0000 C   0  0  0  0  0  0  0  0  0  0  0  0
    0.0000    0.0000    0.0000 C   0  0  0  0  0  0  0  0  0  0  0  0
    2.7572   -3.7838    0.0000 O   0  0  0  0  0  0  0  0  0  0  0  0
  1  2  2  0  0  0  0
  1  6  1  0  0  0  0
  1  7  1  0  0  0  0
  2  3  1  0  0  0  0
  3  4  2  0  0  0  0
  4  5  1  0  0  0  0
  4 12  1  0  0  0  0
  5  6  2  0  0  0  0
  7  8  2  0  0  0  0
  7  9  1  0  0  0  0
  7 10  2  0  0  0  0
 11 12  1  0  0  0  0
 11 15  2  0  0  0  0
 12 14  1  0  0  0  0
 13 14  1  0  0  0  0
 13 15  1  0  0  0  0
 14 17  2  0  0  0  0
 15 16  1  0  0  0  0
M  END
> <ID>
10646

> <Formula>
C10H10N2O4S

> <FW>
254.2624

> <DSSTox_CID>
24999

> <DSSTox_RID>
80644

> <DSSTox_GSID>
44999

> <DSSTox_FileID_Sort>
5326

> <TS_ChemName>
4-(3-Methyl-5-oxo-4,5-dihydro-1H-pyrazol-1-yl)benzenesulfonic acid

> <TS_ChemName_Synonyms>
4-(3-Methyl-5-oxo-4,5-dihydro-1H-pyrazol-1-yl)benzenesulfonic acid (Benzenesulfonic acid, 4-(4,5-dihydro-3-methyl-5-oxo-1H-pyrazol-1-yl)-)

> <TS_CASRN>
89-36-1

> <CASRN_ChemName_Relationship>
primary

> <TS_Description>
single chemical compound

> <ChemNote>
tautomers

> <STRUCTURE_Shown>
tested chemical

> <STRUCTURE_Formula>
C10H10N2O4S

> <STRUCTURE_MW>
254.2624

> <STRUCTURE_ChemType>
defined organic

> <STRUCTURE_DefinedOrganicForm>
parent

> <STRUCTURE_IUPAC>
4-(3-methyl-5-oxo-4,5-dihydro-1H-pyrazol-1-yl)benzenesulfonic acid

> <STRUCTURE_SMILES>
O=S(=O)(O)c1ccc(cc1)N2N=C(C)CC2=O

> <STRUCTURE_SMILES_Desalt>
O=S(=O)(O)c1ccc(cc1)N2N=C(C)CC2=O

> <Substance_modify_yyyymmdd>
20091116

$$$$
