89-40-7
ChemmineR-0915142007XD

 14 15  0  0  0  0  0  0  0  0  2 V2000
    4.6038    0.0000    0.0000 O   0  0  0  0  0  0  0  0  0  0  0  0
    4.8816   -1.2985    0.0000 C   0  0  0  0  0  0  0  0  0  0  0  0
    6.0968   -1.8402    0.0000 N   0  0  0  0  0  0  0  0  0  0  0  0
    5.9579   -3.1595    0.0000 C   0  0  0  0  0  0  0  0  0  0  0  0
    6.9440   -4.0483    0.0000 O   0  0  0  0  0  0  0  0  0  0  0  0
    4.6525   -3.4373    0.0000 C   0  0  0  0  0  0  0  0  0  0  0  0
    3.9928   -4.5900    0.0000 C   0  0  0  0  0  0  0  0  0  0  0  0
    2.6595   -4.5900    0.0000 C   0  0  0  0  0  0  0  0  0  0  0  0
    1.9929   -3.4373    0.0000 C   0  0  0  0  0  0  0  0  0  0  0  0
    0.6666   -3.4373    0.0000 N   0  3  0  0  0  0  0  0  0  0  0  0
    0.0000   -4.5900    0.0000 O   0  5  0  0  0  0  0  0  0  0  0  0
    0.0000   -2.2846    0.0000 O   0  0  0  0  0  0  0  0  0  0  0  0
    2.6595   -2.2846    0.0000 C   0  0  0  0  0  0  0  0  0  0  0  0
    3.9928   -2.2846    0.0000 C   0  0  0  0  0  0  0  0  0  0  0  0
  1  2  2  0  0  0  0
  2  3  1  0  0  0  0
  2 14  1  0  0  0  0
  3  4  1  0  0  0  0
  4  5  2  0  0  0  0
  4  6  1  0  0  0  0
  6  7  2  0  0  0  0
  6 14  1  0  0  0  0
  7  8  1  0  0  0  0
  8  9  2  0  0  0  0
  9 10  1  0  0  0  0
  9 13  1  0  0  0  0
 10 11  1  0  0  0  0
 10 12  2  0  0  0  0
 13 14  2  0  0  0  0
M  END
> <ID>
4399

> <Formula>
C8H4N2O4

> <FW>
192.1284

> <DSSTox_CID>
5776

> <DSSTox_RID>
77921

> <DSSTox_GSID>
25776

> <DSSTox_FileID_Sort>
2604

> <TS_ChemName>
4-Nitrophthalimide

> <TS_ChemName_Synonyms>


> <TS_CASRN>
89-40-7

> <CASRN_ChemName_Relationship>
primary

> <TS_Description>
single chemical compound

> <ChemNote>


> <STRUCTURE_Shown>
tested chemical

> <STRUCTURE_Formula>
C8H4N2O4

> <STRUCTURE_MW>
192.1284

> <STRUCTURE_ChemType>
defined organic

> <STRUCTURE_DefinedOrganicForm>
parent

> <STRUCTURE_IUPAC>
5-nitro-1H-isoindole-1,3(2H)-dione

> <STRUCTURE_SMILES>
[O-][N+](=O)c1ccc2C(=O)NC(=O)c2c1

> <STRUCTURE_SMILES_Desalt>
[O-][N+](=O)c1ccc2C(=O)NC(=O)c2c1

> <Substance_modify_yyyymmdd>
20080429

$$$$
