89-57-6
ChemmineR-0915142007XD

 11 11  0  0  0  0  0  0  0  0  1 V2000
    0.6656   -2.3039    0.0000 C   0  0  0  0  0  0  0  0  0  0  0  0
    0.0000   -3.4583    0.0000 O   0  0  0  0  0  0  0  0  0  0  0  0
    0.0000   -1.1543    0.0000 O   0  0  0  0  0  0  0  0  0  0  0  0
    1.9968   -2.3039    0.0000 C   0  0  0  0  0  0  0  0  0  0  0  0
    2.6577   -1.1543    0.0000 C   0  0  0  0  0  0  0  0  0  0  0  0
    3.9889   -1.1543    0.0000 C   0  0  0  0  0  0  0  0  0  0  0  0
    4.6544    0.0000    0.0000 N   0  0  0  0  0  0  0  0  0  0  0  0
    4.6544   -2.3039    0.0000 C   0  0  0  0  0  0  0  0  0  0  0  0
    3.9889   -3.4583    0.0000 C   0  0  0  0  0  0  0  0  0  0  0  0
    2.6577   -3.4583    0.0000 C   0  0  0  0  0  0  0  0  0  0  0  0
    1.9968   -4.6079    0.0000 O   0  0  0  0  0  0  0  0  0  0  0  0
  1  2  2  0  0  0  0
  1  3  1  0  0  0  0
  1  4  1  0  0  0  0
  4  5  2  0  0  0  0
  4 10  1  0  0  0  0
  5  6  1  0  0  0  0
  6  7  1  0  0  0  0
  6  8  2  0  0  0  0
  8  9  1  0  0  0  0
  9 10  2  0  0  0  0
 10 11  1  0  0  0  0
M  END
> <ID>
3722

> <Formula>
C7H7NO3

> <FW>
153.1354

> <DSSTox_CID>
4506

> <DSSTox_RID>
77435

> <DSSTox_GSID>
24506

> <DSSTox_FileID_Sort>
2118

> <TS_ChemName>
5-Aminosalicylic acid

> <TS_ChemName_Synonyms>


> <TS_CASRN>
89-57-6

> <CASRN_ChemName_Relationship>
primary

> <TS_Description>
single chemical compound

> <ChemNote>


> <STRUCTURE_Shown>
tested chemical

> <STRUCTURE_Formula>
C7H7NO3

> <STRUCTURE_MW>
153.1354

> <STRUCTURE_ChemType>
defined organic

> <STRUCTURE_DefinedOrganicForm>
parent

> <STRUCTURE_IUPAC>
5-amino-2-hydroxybenzoic acid

> <STRUCTURE_SMILES>
OC(=O)c1cc(N)ccc1O

> <STRUCTURE_SMILES_Desalt>
OC(=O)c1cc(N)ccc1O

> <Substance_modify_yyyymmdd>
20080429

$$$$
