89-69-0
ChemmineR-0915142007XD

 12 12  0  0  0  0  0  0  0  0  2 V2000
    0.6641   -2.3033    0.0000 N    0  3  0  0  0  0  0  0  0  0  0  0
    0.0000   -1.1547    0.0000 O    0  0  0  0  0  0  0  0  0  0  0  0
    0.0000   -3.4580    0.0000 O    0  5  0  0  0  0  0  0  0  0  0  0
    1.9922   -2.3033    0.0000 C    0  0  0  0  0  0  0  0  0  0  0  0
    2.6563   -1.1547    0.0000 C    0  0  0  0  0  0  0  0  0  0  0  0
    3.9905   -1.1547    0.0000 C    0  0  0  0  0  0  0  0  0  0  0  0
    4.6546    0.0000    0.0000 Cl   0  0  0  0  0  0  0  0  0  0  0  0
    4.6546   -2.3033    0.0000 C    0  0  0  0  0  0  0  0  0  0  0  0
    5.9827   -2.3033    0.0000 Cl   0  0  0  0  0  0  0  0  0  0  0  0
    3.9905   -3.4580    0.0000 C    0  0  0  0  0  0  0  0  0  0  0  0
    2.6563   -3.4580    0.0000 C    0  0  0  0  0  0  0  0  0  0  0  0
    1.9922   -4.6067    0.0000 Cl   0  0  0  0  0  0  0  0  0  0  0  0
  1  2  2  0  0  0  0
  1  3  1  0  0  0  0
  1  4  1  0  0  0  0
  4  5  2  0  0  0  0
  4 11  1  0  0  0  0
  5  6  1  0  0  0  0
  6  7  1  0  0  0  0
  6  8  2  0  0  0  0
  8  9  1  0  0  0  0
  8 10  1  0  0  0  0
 10 11  2  0  0  0  0
 11 12  1  0  0  0  0
M  END
> <ID>
4590

> <Formula>
C6H2Cl3NO2

> <FW>
226.4446

> <DSSTox_CID>
6203

> <DSSTox_RID>
78055

> <DSSTox_GSID>
26203

> <DSSTox_FileID_Sort>
2738

> <TS_ChemName>
2,4,5-Trichloronitrobenzene

> <TS_ChemName_Synonyms>


> <TS_CASRN>
89-69-0

> <CASRN_ChemName_Relationship>
primary

> <TS_Description>
single chemical compound

> <ChemNote>


> <STRUCTURE_Shown>
tested chemical

> <STRUCTURE_Formula>
C6H2Cl3NO2

> <STRUCTURE_MW>
226.4446

> <STRUCTURE_ChemType>
defined organic

> <STRUCTURE_DefinedOrganicForm>
parent

> <STRUCTURE_IUPAC>
1,2,4-trichloro-5-nitrobenzene

> <STRUCTURE_SMILES>
Clc1cc([N+]([O-])=O)c(Cl)cc1Cl

> <STRUCTURE_SMILES_Desalt>
Clc1cc([N+]([O-])=O)c(Cl)cc1Cl

> <Substance_modify_yyyymmdd>
20080429

$$$$
