89-65-6
ChemmineR-0915142007XD

 12 12  0  0  1  0  0  0  0  0  1 V2000
    3.5287   -1.7088    0.0000 C   0  0  0  0  0  0  0  0  0  0  0  0
    4.6124   -0.9030    0.0000 O   0  0  0  0  0  0  0  0  0  0  0  0
    3.9177   -2.9800    0.0000 C   0  0  0  0  0  0  0  0  0  0  0  0
    5.6752   -1.7088    0.0000 C   0  0  0  0  0  0  0  0  0  0  0  0
    5.2514   -2.9800    0.0000 C   0  0  0  0  0  0  0  0  0  0  0  0
    3.1606   -4.0428    0.0000 O   0  0  0  0  0  0  0  0  0  0  0  0
    6.0433   -4.0428    0.0000 O   0  0  0  0  0  0  0  0  0  0  0  0
    6.9463   -1.2851    0.0000 O   0  0  0  0  0  0  0  0  0  0  0  0
    2.2437   -1.2851    0.0000 C   0  0  0  0  0  0  0  0  0  0  0  0
    1.2573   -2.1603    0.0000 C   0  0  0  0  0  0  0  0  0  0  0  0
    1.9658    0.0000    0.0000 O   0  0  0  0  0  0  0  0  0  0  0  0
    0.0000   -1.7713    0.0000 O   0  0  0  0  0  0  0  0  0  0  0  0
  1  2  1  1  0  0  0
  1  3  1  0  0  0  0
  1  9  1  0  0  0  0
  2  4  1  0  0  0  0
  3  5  2  0  0  0  0
  3  6  1  0  0  0  0
  4  5  1  0  0  0  0
  4  8  2  0  0  0  0
  5  7  1  0  0  0  0
  9 10  1  0  0  0  0
  9 11  1  1  0  0  0
 10 12  1  0  0  0  0
M  END
> <ID>
4717

> <Formula>
C6H8O6

> <FW>
176.1241

> <DSSTox_CID>
6537

> <DSSTox_RID>
78143

> <DSSTox_GSID>
26537

> <DSSTox_FileID_Sort>
2826

> <TS_ChemName>
Isoascorbic acid

> <TS_ChemName_Synonyms>
Isoascorbic acid (D-erythro-Hex-2-enonic acid, .gamma.-lactone)

> <TS_CASRN>
89-65-6

> <CASRN_ChemName_Relationship>
primary

> <TS_Description>
single chemical compound

> <ChemNote>
stereochem; tautomers

> <STRUCTURE_Shown>
tested chemical

> <STRUCTURE_Formula>
C6H8O6

> <STRUCTURE_MW>
176.1241

> <STRUCTURE_ChemType>
defined organic

> <STRUCTURE_DefinedOrganicForm>
parent

> <STRUCTURE_IUPAC>
(5R)-5-[(1R)-1,2-dihydroxyethyl]-3,4-dihydroxyfuran-2(5H)-one

> <STRUCTURE_SMILES>
OC=1C(=O)O[C@H]([C@H](O)CO)C=1O

> <STRUCTURE_SMILES_Desalt>
OC=1C(=O)O[C@H]([C@H](O)CO)C=1O

> <Substance_modify_yyyymmdd>
20080429

$$$$
