89-68-9
ChemmineR-0915142007XD

 12 12  0  0  0  0  0  0  0  0  1 V2000
    2.3116   -3.9823    0.0000 C    0  0  0  0  0  0  0  0  0  0  0  0
    1.1618   -3.3296    0.0000 C    0  0  0  0  0  0  0  0  0  0  0  0
    3.4554   -3.3296    0.0000 C    0  0  0  0  0  0  0  0  0  0  0  0
    1.1618   -2.0061    0.0000 C    0  0  0  0  0  0  0  0  0  0  0  0
    3.4554   -2.0061    0.0000 C    0  0  0  0  0  0  0  0  0  0  0  0
    2.3116   -1.3354    0.0000 C    0  0  0  0  0  0  0  0  0  0  0  0
    2.3116   -5.3178    0.0000 C    0  0  0  0  0  0  0  0  0  0  0  0
    0.0000   -1.3235    0.0000 Cl   0  0  0  0  0  0  0  0  0  0  0  0
    4.6171   -4.0003    0.0000 O    0  0  0  0  0  0  0  0  0  0  0  0
    2.3116    0.0000    0.0000 C    0  0  0  0  0  0  0  0  0  0  0  0
    1.1618   -5.9885    0.0000 C    0  0  0  0  0  0  0  0  0  0  0  0
    3.4554   -5.9885    0.0000 C    0  0  0  0  0  0  0  0  0  0  0  0
  1  2  2  0  0  0  0
  1  3  1  0  0  0  0
  1  7  1  0  0  0  0
  2  4  1  0  0  0  0
  3  5  2  0  0  0  0
  3  9  1  0  0  0  0
  4  8  1  0  0  0  0
  4  6  2  0  0  0  0
  5  6  1  0  0  0  0
  6 10  1  0  0  0  0
  7 11  1  0  0  0  0
  7 12  1  0  0  0  0
M  END
> <ID>
8513

> <Formula>
C10H13ClO

> <FW>
184.6626

> <DSSTox_CID>
21547

> <DSSTox_RID>
79774

> <DSSTox_GSID>
41547

> <DSSTox_FileID_Sort>
4456

> <TS_ChemName>
6-Chlorothymol

> <TS_ChemName_Synonyms>
6-Chlorothymol (4-Chloro-2-isopropyl-5-methylphenol)

> <TS_CASRN>
89-68-9

> <CASRN_ChemName_Relationship>
primary

> <TS_Description>
single chemical compound

> <ChemNote>


> <STRUCTURE_Shown>
tested chemical

> <STRUCTURE_Formula>
C10H13ClO

> <STRUCTURE_MW>
184.6626

> <STRUCTURE_ChemType>
defined organic

> <STRUCTURE_DefinedOrganicForm>
parent

> <STRUCTURE_IUPAC>
4-chloro-5-methyl-2-(propan-2-yl)phenol

> <STRUCTURE_SMILES>
Oc1cc(C)c(Cl)cc1C(C)C

> <STRUCTURE_SMILES_Desalt>
Oc1cc(C)c(Cl)cc1C(C)C

> <Substance_modify_yyyymmdd>
20080825

$$$$
