89-71-4
ChemmineR-0915142007XD

 11 11  0  0  0  0  0  0  0  0  1 V2000
    3.4648   -1.3340    0.0000 C   0  0  0  0  0  0  0  0  0  0  0  0
    3.4648    0.0000    0.0000 O   0  0  0  0  0  0  0  0  0  0  0  0
    2.3099   -1.9923    0.0000 C   0  0  0  0  0  0  0  0  0  0  0  0
    4.6198   -1.9923    0.0000 O   0  0  0  0  0  0  0  0  0  0  0  0
    1.1549   -1.3340    0.0000 C   0  0  0  0  0  0  0  0  0  0  0  0
    2.3099   -3.3205    0.0000 C   0  0  0  0  0  0  0  0  0  0  0  0
    0.0000   -1.9923    0.0000 C   0  0  0  0  0  0  0  0  0  0  0  0
    1.1549   -3.9788    0.0000 C   0  0  0  0  0  0  0  0  0  0  0  0
    0.0000   -3.3205    0.0000 C   0  0  0  0  0  0  0  0  0  0  0  0
    1.1549    0.0000    0.0000 C   0  0  0  0  0  0  0  0  0  0  0  0
    5.7747   -1.3340    0.0000 C   0  0  0  0  0  0  0  0  0  0  0  0
  1  2  2  0  0  0  0
  1  3  1  0  0  0  0
  1  4  1  0  0  0  0
  3  5  2  0  0  0  0
  3  6  1  0  0  0  0
  4 11  1  0  0  0  0
  5  7  1  0  0  0  0
  5 10  1  0  0  0  0
  6  8  2  0  0  0  0
  7  9  2  0  0  0  0
  8  9  1  0  0  0  0
M  END
> <ID>
13270

> <Formula>
C9H10O2

> <FW>
150.1745

> <DSSTox_CID>
28183

> <DSSTox_RID>
82742

> <DSSTox_GSID>
48208

> <DSSTox_FileID_Sort>
7419

> <TS_ChemName>
Methyl 2-methylbenzoate

> <TS_ChemName_Synonyms>


> <TS_CASRN>
89-71-4

> <CASRN_ChemName_Relationship>
primary

> <TS_Description>
single chemical compound

> <ChemNote>


> <STRUCTURE_Shown>
tested chemical

> <STRUCTURE_Formula>
C9H10O2

> <STRUCTURE_MW>
150.1745

> <STRUCTURE_ChemType>
defined organic

> <STRUCTURE_DefinedOrganicForm>
parent

> <STRUCTURE_IUPAC>
methyl 2-methylbenzoate

> <STRUCTURE_SMILES>
COC(=O)c1ccccc1C

> <STRUCTURE_SMILES_Desalt>
COC(=O)c1ccccc1C

> <Substance_modify_yyyymmdd>
20110902

$$$$
