89-72-5
ChemmineR-0915142007XD

 11 11  0  0  0  0  0  0  0  0  1 V2000
    2.3070   -2.6659    0.0000 C   0  0  0  0  0  0  0  0  0  0  0  0
    2.3024   -3.9989    0.0000 C   0  0  0  0  0  0  0  0  0  0  0  0
    3.4582   -1.9994    0.0000 C   0  0  0  0  0  0  0  0  0  0  0  0
    3.4489   -4.6607    0.0000 O   0  0  0  0  0  0  0  0  0  0  0  0
    1.1605   -1.9948    0.0000 C   0  0  0  0  0  0  0  0  0  0  0  0
    1.1465   -4.6514    0.0000 C   0  0  0  0  0  0  0  0  0  0  0  0
    3.4582   -0.6758    0.0000 C   0  0  0  0  0  0  0  0  0  0  0  0
    4.6094   -2.6659    0.0000 C   0  0  0  0  0  0  0  0  0  0  0  0
    4.6281    0.0000    0.0000 C   0  0  0  0  0  0  0  0  0  0  0  0
    0.0093   -2.6566    0.0000 C   0  0  0  0  0  0  0  0  0  0  0  0
    0.0000   -3.9849    0.0000 C   0  0  0  0  0  0  0  0  0  0  0  0
  1  2  2  0  0  0  0
  1  3  1  0  0  0  0
  1  5  1  0  0  0  0
  2  4  1  0  0  0  0
  2  6  1  0  0  0  0
  3  7  1  0  0  0  0
  3  8  1  0  0  0  0
  5 10  2  0  0  0  0
  6 11  2  0  0  0  0
  7  9  1  0  0  0  0
 10 11  1  0  0  0  0
M  END
> <ID>
2160

> <Formula>
C10H14O

> <FW>
150.2176

> <DSSTox_CID>
2331

> <DSSTox_RID>
76551

> <DSSTox_GSID>
22331

> <DSSTox_FileID_Sort>
1235

> <TS_ChemName>
2-(Butan-2-yl)phenol

> <TS_ChemName_Synonyms>
2-(Butan-2-yl)phenol (2-sec-Butylphenol) (o-sec-Butylphenol)

> <TS_CASRN>
89-72-5

> <CASRN_ChemName_Relationship>
primary

> <TS_Description>
single chemical compound

> <ChemNote>


> <STRUCTURE_Shown>
tested chemical

> <STRUCTURE_Formula>
C10H14O

> <STRUCTURE_MW>
150.2176

> <STRUCTURE_ChemType>
defined organic

> <STRUCTURE_DefinedOrganicForm>
parent

> <STRUCTURE_IUPAC>
2-(butan-2-yl)phenol

> <STRUCTURE_SMILES>
Oc1ccccc1C(C)CC

> <STRUCTURE_SMILES_Desalt>
Oc1ccccc1C(C)CC

> <Substance_modify_yyyymmdd>
20080429

$$$$
