89-79-2
ChemmineR-0915142007XD

 11 11  0  0  1  0  0  0  0  0  1 V2000
    2.3153   -3.3178    0.0000 C   0  0  0  0  0  0  0  0  0  0  0  0
    2.3153   -1.9811    0.0000 C   0  0  0  0  0  0  0  0  0  0  0  0
    1.1636   -1.3426    0.0000 C   0  0  0  0  0  0  0  0  0  0  0  0
    0.0000   -1.9811    0.0000 C   0  0  0  0  0  0  0  0  0  0  0  0
    0.0000   -3.3178    0.0000 C   0  0  0  0  0  0  0  0  0  0  0  0
    1.1636   -3.9742    0.0000 C   0  0  0  0  0  0  0  0  0  0  0  0
    3.4491   -3.9742    0.0000 O   0  0  0  0  0  0  0  0  0  0  0  0
    1.1636    0.0000    0.0000 C   0  0  0  0  0  0  0  0  0  0  0  0
    1.1636   -5.3109    0.0000 C   0  0  0  0  0  0  0  0  0  0  0  0
    2.3153   -5.9673    0.0000 C   0  0  0  0  0  0  0  0  0  0  0  0
    0.0000   -5.9673    0.0000 C   0  0  0  0  0  0  0  0  0  0  0  0
  1  2  1  0  0  0  0
  1  6  1  0  0  0  0
  1  7  1  6  0  0  0
  2  3  1  0  0  0  0
  3  4  1  0  0  0  0
  3  8  1  1  0  0  0
  4  5  1  0  0  0  0
  5  6  1  0  0  0  0
  6  9  1  6  0  0  0
  9 11  1  0  0  0  0
  9 10  2  0  0  0  0
M  END
> <ID>
12266

> <Formula>
C10H18O

> <FW>
154.2493

> <DSSTox_CID>
27116

> <DSSTox_RID>
82125

> <DSSTox_GSID>
47116

> <DSSTox_FileID_Sort>
6806

> <TS_ChemName>
Isopulegol

> <TS_ChemName_Synonyms>
(-)-Isopulegol

> <TS_CASRN>
89-79-2

> <CASRN_ChemName_Relationship>
primary

> <TS_Description>
single chemical compound

> <ChemNote>
stereochem

> <STRUCTURE_Shown>
tested chemical

> <STRUCTURE_Formula>
C10H18O

> <STRUCTURE_MW>
154.2493

> <STRUCTURE_ChemType>
defined organic

> <STRUCTURE_DefinedOrganicForm>
parent

> <STRUCTURE_IUPAC>
(1S,2S,5R)-5-methyl-2-(prop-1-en-2-yl)cyclohexanol

> <STRUCTURE_SMILES>
CC(=C)[C@@H]1CC[C@@H](C)C[C@@H]1O

> <STRUCTURE_SMILES_Desalt>
CC(=C)[C@@H]1CC[C@@H](C)C[C@@H]1O

> <Substance_modify_yyyymmdd>
20100429

$$$$
