89-82-7
ChemmineR-0915142007XD

 11 11  0  0  1  0  0  0  0  0  1 V2000
    3.9861   -2.3043    0.0000 C   0  0  0  0  0  0  0  0  0  0  0  0
    3.3277   -3.4594    0.0000 C   0  0  0  0  0  0  0  0  0  0  0  0
    3.3277   -1.1551    0.0000 C   0  0  0  0  0  0  0  0  0  0  0  0
    1.9990   -3.4594    0.0000 C   0  0  0  0  0  0  0  0  0  0  0  0
    1.9990   -1.1551    0.0000 C   0  0  0  0  0  0  0  0  0  0  0  0
    1.3287   -2.3043    0.0000 C   0  0  0  0  0  0  0  0  0  0  0  0
    0.0000   -2.3043    0.0000 C   0  0  0  0  0  0  0  0  0  0  0  0
    3.9861    0.0000    0.0000 O   0  0  0  0  0  0  0  0  0  0  0  0
    5.3147   -2.3043    0.0000 C   0  0  0  0  0  0  0  0  0  0  0  0
    5.9851   -3.4594    0.0000 C   0  0  0  0  0  0  0  0  0  0  0  0
    5.9851   -1.1551    0.0000 C   0  0  0  0  0  0  0  0  0  0  0  0
  1  2  1  0  0  0  0
  1  3  1  0  0  0  0
  1  9  2  0  0  0  0
  2  4  1  0  0  0  0
  3  5  1  0  0  0  0
  3  8  2  0  0  0  0
  4  6  1  0  0  0  0
  5  6  1  0  0  0  0
  6  7  1  1  0  0  0
  9 10  1  0  0  0  0
  9 11  1  0  0  0  0
M  END
> <ID>
4488

> <Formula>
C10H16O

> <FW>
152.2334

> <DSSTox_CID>
5975

> <DSSTox_RID>
77978

> <DSSTox_GSID>
25975

> <DSSTox_FileID_Sort>
2661

> <TS_ChemName>
R-(+)-Pulegone

> <TS_ChemName_Synonyms>


> <TS_CASRN>
89-82-7

> <CASRN_ChemName_Relationship>
primary

> <TS_Description>
single chemical compound

> <ChemNote>


> <STRUCTURE_Shown>
tested chemical

> <STRUCTURE_Formula>
C10H16O

> <STRUCTURE_MW>
152.2334

> <STRUCTURE_ChemType>
defined organic

> <STRUCTURE_DefinedOrganicForm>
parent

> <STRUCTURE_IUPAC>
(5R)-5-methyl-2-(propan-2-ylidene)cyclohexanone

> <STRUCTURE_SMILES>
C/C(C)=C1/CC[C@@H](C)CC1=O

> <STRUCTURE_SMILES_Desalt>
C/C(C)=C1/CC[C@@H](C)CC1=O

> <Substance_modify_yyyymmdd>
20080429

$$$$
