89-98-5
ChemmineR-0915142007XD

  9  9  0  0  0  0  0  0  0  0  1 V2000
    0.0000   -3.4550    0.0000 O    0  0  0  0  0  0  0  0  0  0  0  0
    0.6659   -2.3049    0.0000 C    0  0  0  0  0  0  0  0  0  0  0  0
    1.9976   -2.3049    0.0000 C    0  0  0  0  0  0  0  0  0  0  0  0
    2.6588   -1.1501    0.0000 C    0  0  0  0  0  0  0  0  0  0  0  0
    3.9905   -1.1501    0.0000 C    0  0  0  0  0  0  0  0  0  0  0  0
    4.6563   -2.3049    0.0000 C    0  0  0  0  0  0  0  0  0  0  0  0
    3.9905   -3.4550    0.0000 C    0  0  0  0  0  0  0  0  0  0  0  0
    1.9976    0.0000    0.0000 Cl   0  0  0  0  0  0  0  0  0  0  0  0
    2.6588   -3.4550    0.0000 C    0  0  0  0  0  0  0  0  0  0  0  0
  1  2  2  0  0  0  0
  2  3  1  0  0  0  0
  3  4  2  0  0  0  0
  3  9  1  0  0  0  0
  4  5  1  0  0  0  0
  4  8  1  0  0  0  0
  5  6  2  0  0  0  0
  6  7  1  0  0  0  0
  7  9  2  0  0  0  0
M  END
> <ID>
3842

> <Formula>
C7H5ClO

> <FW>
140.567

> <DSSTox_CID>
4764

> <DSSTox_RID>
77522

> <DSSTox_GSID>
24764

> <DSSTox_FileID_Sort>
2205

> <TS_ChemName>
2-Chlorobenzaldehyde

> <TS_ChemName_Synonyms>


> <TS_CASRN>
89-98-5

> <CASRN_ChemName_Relationship>
primary

> <TS_Description>
single chemical compound

> <ChemNote>


> <STRUCTURE_Shown>
tested chemical

> <STRUCTURE_Formula>
C7H5ClO

> <STRUCTURE_MW>
140.567

> <STRUCTURE_ChemType>
defined organic

> <STRUCTURE_DefinedOrganicForm>
parent

> <STRUCTURE_IUPAC>
2-chlorobenzaldehyde

> <STRUCTURE_SMILES>
O=Cc1ccccc1Cl

> <STRUCTURE_SMILES_Desalt>
O=Cc1ccccc1Cl

> <Substance_modify_yyyymmdd>
20080429

$$$$
