89197-32-0
ChemmineR-0915142007XD

 16 18  0  0  0  0  0  0  0  0  1 V2000
    7.4833   -1.4443    0.0000 C   0  0  0  0  0  0  0  0  0  0  0  0
    7.4833   -2.7613    0.0000 C   0  0  0  0  0  0  0  0  0  0  0  0
    6.3234   -0.7708    0.0000 C   0  0  0  0  0  0  0  0  0  0  0  0
    6.3234   -3.4348    0.0000 C   0  0  0  0  0  0  0  0  0  0  0  0
    5.1710   -1.4443    0.0000 C   0  0  0  0  0  0  0  0  0  0  0  0
    5.1710   -2.7613    0.0000 C   0  0  0  0  0  0  0  0  0  0  0  0
    3.8988   -1.0402    0.0000 C   0  0  0  0  0  0  0  0  0  0  0  0
    3.1280   -2.1028    0.0000 C   0  0  0  0  0  0  0  0  0  0  0  0
    3.8988   -3.1804    0.0000 O   0  0  0  0  0  0  0  0  0  0  0  0
    2.0579   -2.8886    0.0000 C   0  0  0  0  0  0  0  0  0  0  0  0
    2.0579   -1.3320    0.0000 C   0  0  0  0  0  0  0  0  0  0  0  0
    2.0878    0.0000    0.0000 C   0  0  0  0  0  0  0  0  0  0  0  0
    0.7857   -2.4695    0.0000 N   0  0  0  0  0  0  0  0  0  0  0  0
    2.0579   -4.2056    0.0000 N   0  0  0  0  0  0  0  0  0  0  0  0
    0.0000   -3.5471    0.0000 C   0  0  0  0  0  0  0  0  0  0  0  0
    0.7857   -4.6247    0.0000 C   0  0  0  0  0  0  0  0  0  0  0  0
  1  2  1  0  0  0  0
  1  3  2  0  0  0  0
  2  4  2  0  0  0  0
  3  5  1  0  0  0  0
  4  6  1  0  0  0  0
  5  6  2  0  0  0  0
  5  7  1  0  0  0  0
  6  9  1  0  0  0  0
  7  8  1  0  0  0  0
  8  9  1  0  0  0  0
  8 10  1  0  0  0  0
  8 11  1  0  0  0  0
 10 13  2  0  0  0  0
 10 14  1  0  0  0  0
 11 12  1  0  0  0  0
 13 15  1  0  0  0  0
 14 16  1  0  0  0  0
 15 16  1  0  0  0  0
M  END
> <ID>
10772

> <Formula>
C13H16N2O

> <FW>
216.2789

> <DSSTox_CID>
25149

> <DSSTox_RID>
80703

> <DSSTox_GSID>
45149

> <DSSTox_FileID_Sort>
5384

> <TS_ChemName>
Efaroxan

> <TS_ChemName_Synonyms>


> <TS_CASRN>
89197-32-0

> <CASRN_ChemName_Relationship>
primary

> <TS_Description>
single chemical compound

> <ChemNote>


> <STRUCTURE_Shown>
tested chemical

> <STRUCTURE_Formula>
C13H16N2O

> <STRUCTURE_MW>
216.2789

> <STRUCTURE_ChemType>
defined organic

> <STRUCTURE_DefinedOrganicForm>
parent

> <STRUCTURE_IUPAC>
2-(2-ethyl-2,3-dihydro-1-benzofuran-2-yl)-4,5-dihydro-1H-imidazole

> <STRUCTURE_SMILES>
CCC1(Cc2ccccc2O1)C3=NCCN3

> <STRUCTURE_SMILES_Desalt>
CCC1(Cc2ccccc2O1)C3=NCCN3

> <Substance_modify_yyyymmdd>
20100107

$$$$
