89226-75-5
ChemmineR-0915142007XD

 47 49  0  0  0  0  0  0  0  0  2 V2000
    4.6118   -2.6933    0.0000 C    0  0  0  0  0  0  0  0  0  0  0  0
    5.7739   -2.0107    0.0000 C    0  0  0  0  0  0  0  0  0  0  0  0
    3.4680   -2.0107    0.0000 C    0  0  0  0  0  0  0  0  0  0  0  0
    4.6118   -4.0030    0.0000 C    0  0  0  0  0  0  0  0  0  0  0  0
    5.7739   -0.6825    0.0000 C    0  0  0  0  0  0  0  0  0  0  0  0
    6.9176   -2.6933    0.0000 C    0  0  0  0  0  0  0  0  0  0  0  0
    3.4680   -0.6825    0.0000 C    0  0  0  0  0  0  0  0  0  0  0  0
    2.3243   -2.6933    0.0000 C    0  0  0  0  0  0  0  0  0  0  0  0
    5.7739   -4.6671    0.0000 C    0  0  0  0  0  0  0  0  0  0  0  0
    3.4680   -4.6671    0.0000 C    0  0  0  0  0  0  0  0  0  0  0  0
    4.6118    0.0000    0.0000 N    0  0  0  0  0  0  0  0  0  0  0  0
    6.9176    0.0000    0.0000 C    0  0  0  0  0  0  0  0  0  0  0  0
    8.0614   -2.0107    0.0000 O    0  0  0  0  0  0  0  0  0  0  0  0
    6.9176   -4.0030    0.0000 O    0  0  0  0  0  0  0  0  0  0  0  0
    2.3243    0.0000    0.0000 C    0  0  0  0  0  0  0  0  0  0  0  0
    1.1437   -2.0107    0.0000 O    0  0  0  0  0  0  0  0  0  0  0  0
    2.3243   -4.0030    0.0000 O    0  0  0  0  0  0  0  0  0  0  0  0
    5.7739   -5.9953    0.0000 C    0  0  0  0  0  0  0  0  0  0  0  0
    3.4680   -5.9953    0.0000 C    0  0  0  0  0  0  0  0  0  0  0  0
    9.2235   -2.6933    0.0000 C    0  0  0  0  0  0  0  0  0  0  0  0
    0.0000   -2.6933    0.0000 C    0  0  0  0  0  0  0  0  0  0  0  0
    4.6118   -6.6594    0.0000 C    0  0  0  0  0  0  0  0  0  0  0  0
    6.9176   -6.6594    0.0000 N    0  3  0  0  0  0  0  0  0  0  0  0
   10.3857   -2.0107    0.0000 C    0  0  0  0  0  0  0  0  0  0  0  0
    8.0614   -5.9953    0.0000 O    0  0  0  0  0  0  0  0  0  0  0  0
    6.9176   -7.9876    0.0000 O    0  5  0  0  0  0  0  0  0  0  0  0
   11.5294   -2.6933    0.0000 N    0  0  0  0  0  0  0  0  0  0  0  0
   12.6731   -2.0107    0.0000 C    0  0  0  0  0  0  0  0  0  0  0  0
   11.5294   -4.0030    0.0000 C    0  0  0  0  0  0  0  0  0  0  0  0
   13.8353   -2.6933    0.0000 C    0  0  0  0  0  0  0  0  0  0  0  0
   12.6731   -4.6671    0.0000 C    0  0  0  0  0  0  0  0  0  0  0  0
   13.8353   -4.0030    0.0000 N    0  0  0  0  0  0  0  0  0  0  0  0
   14.9790   -4.6671    0.0000 C    0  0  0  0  0  0  0  0  0  0  0  0
   16.1227   -4.0030    0.0000 C    0  0  0  0  0  0  0  0  0  0  0  0
   14.9790   -5.9953    0.0000 C    0  0  0  0  0  0  0  0  0  0  0  0
   16.1227   -2.6933    0.0000 C    0  0  0  0  0  0  0  0  0  0  0  0
   17.2849   -4.6671    0.0000 C    0  0  0  0  0  0  0  0  0  0  0  0
   16.1227   -6.6594    0.0000 C    0  0  0  0  0  0  0  0  0  0  0  0
   13.8353   -6.6594    0.0000 C    0  0  0  0  0  0  0  0  0  0  0  0
   17.2849   -2.0107    0.0000 C    0  0  0  0  0  0  0  0  0  0  0  0
   18.4470   -4.0030    0.0000 C    0  0  0  0  0  0  0  0  0  0  0  0
   16.1227   -7.9876    0.0000 C    0  0  0  0  0  0  0  0  0  0  0  0
   13.8353   -7.9876    0.0000 C    0  0  0  0  0  0  0  0  0  0  0  0
   18.4470   -2.6933    0.0000 C    0  0  0  0  0  0  0  0  0  0  0  0
   14.9790   -8.6701    0.0000 C    0  0  0  0  0  0  0  0  0  0  0  0
    9.4449   -0.3136    0.0000 Cl   0  0  0  0  0  0  0  0  0  0  0  0
   11.1051   -0.3136    0.0000 Cl   0  0  0  0  0  0  0  0  0  0  0  0
  1  2  1  0  0  0  0
  1  3  1  0  0  0  0
  1  4  1  0  0  0  0
  2  5  2  0  0  0  0
  2  6  1  0  0  0  0
  3  7  2  0  0  0  0
  3  8  1  0  0  0  0
  4  9  2  0  0  0  0
  4 10  1  0  0  0  0
  5 11  1  0  0  0  0
  5 12  1  0  0  0  0
  6 13  1  0  0  0  0
  6 14  2  0  0  0  0
  7 15  1  0  0  0  0
  7 11  1  0  0  0  0
  8 16  1  0  0  0  0
  8 17  2  0  0  0  0
  9 18  1  0  0  0  0
 10 19  2  0  0  0  0
 13 20  1  0  0  0  0
 16 21  1  0  0  0  0
 18 22  2  0  0  0  0
 18 23  1  0  0  0  0
 19 22  1  0  0  0  0
 20 24  1  0  0  0  0
 23 25  2  0  0  0  0
 23 26  1  0  0  0  0
 24 27  1  0  0  0  0
 27 28  1  0  0  0  0
 27 29  1  0  0  0  0
 28 30  1  0  0  0  0
 29 31  1  0  0  0  0
 30 32  1  0  0  0  0
 31 32  1  0  0  0  0
 32 33  1  0  0  0  0
 33 34  1  0  0  0  0
 33 35  1  0  0  0  0
 34 36  2  0  0  0  0
 34 37  1  0  0  0  0
 35 38  2  0  0  0  0
 35 39  1  0  0  0  0
 36 40  1  0  0  0  0
 37 41  2  0  0  0  0
 38 42  1  0  0  0  0
 39 43  2  0  0  0  0
 40 44  2  0  0  0  0
 41 44  1  0  0  0  0
 42 45  2  0  0  0  0
 43 45  1  0  0  0  0
M  END
> <ID>
763

> <Formula>
C35H40Cl2N4O6

> <FW>
683.6213 (610.6994+36.4609+36.4609)

> <DSSTox_CID>
796

> <DSSTox_RID>
75794

> <DSSTox_GSID>
20796

> <DSSTox_FileID_Sort>
478

> <TS_ChemName>
Manidipine dihydrochloride

> <TS_ChemName_Synonyms>


> <TS_CASRN>
89226-75-5

> <CASRN_ChemName_Relationship>
primary

> <TS_Description>
single chemical compound

> <ChemNote>
parent [89226-50-6]

> <STRUCTURE_Shown>
tested chemical

> <STRUCTURE_Formula>
C35H40Cl2N4O6

> <STRUCTURE_MW>
683.6213

> <STRUCTURE_ChemType>
defined organic

> <STRUCTURE_DefinedOrganicForm>
complex

> <STRUCTURE_IUPAC>
2-[4-(diphenylmethyl)piperazin-1-yl]ethyl methyl 2,6-dimethyl-4-(3-nitrophenyl)-1,4-dihydropyridine-3,5-dicarboxylate dihydrochloride

> <STRUCTURE_SMILES>
Cl.Cl.[O-][N+](=O)c1cccc(c1)C2C(C(=O)OC)=C(C)NC(C)=C2C(=O)OCCN3CCN(CC3)C(c4ccccc4)c5ccccc5

> <STRUCTURE_SMILES_Desalt>
[O-][N+](=O)c1cccc(c1)C2C(C(=O)OC)=C(C)NC(C)=C2C(=O)OCCN3CCN(CC3)C(c4ccccc4)c5ccccc5

> <Substance_modify_yyyymmdd>
20080429

$$$$
