893-01-6
ChemmineR-0915142007XD

 19 21  0  0  0  0  0  0  0  0  1 V2000
    5.5553    0.0000    0.0000 O   0  0  0  0  0  0  0  0  0  0  0  0
    5.5553   -1.3248    0.0000 C   0  0  0  0  0  0  0  0  0  0  0  0
    6.7131   -1.9705    0.0000 C   0  0  0  0  0  0  0  0  0  0  0  0
    6.7131   -3.3065    0.0000 C   0  0  0  0  0  0  0  0  0  0  0  0
    5.5553   -3.9633    0.0000 C   0  0  0  0  0  0  0  0  0  0  0  0
    4.4198   -3.3065    0.0000 C   0  0  0  0  0  0  0  0  0  0  0  0
    4.4198   -1.9928    0.0000 C   0  0  0  0  0  0  0  0  0  0  0  0
    3.2619   -1.3137    0.0000 C   0  0  0  0  0  0  0  0  0  0  0  0
    2.1041   -1.9928    0.0000 C   0  0  0  0  0  0  0  0  0  0  0  0
    0.9018   -1.4361    0.0000 C   0  0  0  0  0  0  0  0  0  0  0  0
    0.0000   -2.4381    0.0000 C   0  0  0  0  0  0  0  0  0  0  0  0
    0.6791   -3.5959    0.0000 C   0  0  0  0  0  0  0  0  0  0  0  0
    1.9705   -3.3065    0.0000 S   0  0  0  0  0  0  0  0  0  0  0  0
    7.8710   -1.3137    0.0000 C   0  0  0  0  0  0  0  0  0  0  0  0
    9.0177   -1.9705    0.0000 C   0  0  0  0  0  0  0  0  0  0  0  0
   10.2311   -1.4361    0.0000 C   0  0  0  0  0  0  0  0  0  0  0  0
   11.1329   -2.4158    0.0000 C   0  0  0  0  0  0  0  0  0  0  0  0
   10.4761   -3.5737    0.0000 C   0  0  0  0  0  0  0  0  0  0  0  0
    9.1624   -3.3065    0.0000 S   0  0  0  0  0  0  0  0  0  0  0  0
  1  2  2  0  0  0  0
  2  3  1  0  0  0  0
  2  7  1  0  0  0  0
  3  4  1  0  0  0  0
  3 14  2  3  0  0  0
  4  5  1  0  0  0  0
  5  6  1  0  0  0  0
  6  7  1  0  0  0  0
  7  8  2  3  0  0  0
  8  9  1  0  0  0  0
  9 10  2  0  0  0  0
  9 13  1  0  0  0  0
 10 11  1  0  0  0  0
 11 12  2  0  0  0  0
 12 13  1  0  0  0  0
 14 15  1  0  0  0  0
 15 16  2  0  0  0  0
 15 19  1  0  0  0  0
 16 17  1  0  0  0  0
 17 18  2  0  0  0  0
 18 19  1  0  0  0  0
M  END
> <ID>
11548

> <Formula>
C16H14OS2

> <FW>
286.4118

> <DSSTox_CID>
26254

> <DSSTox_RID>
81481

> <DSSTox_GSID>
46254

> <DSSTox_FileID_Sort>
6162

> <TS_ChemName>
Tenylidone

> <TS_ChemName_Synonyms>


> <TS_CASRN>
893-01-6

> <CASRN_ChemName_Relationship>
primary

> <TS_Description>
mixture of Z,E isomers

> <ChemNote>
mixture of Z,E isomers

> <STRUCTURE_Shown>
representative isomer in mixture

> <STRUCTURE_Formula>
C16H14OS2

> <STRUCTURE_MW>
286.4118

> <STRUCTURE_ChemType>
defined organic

> <STRUCTURE_DefinedOrganicForm>
parent

> <STRUCTURE_IUPAC>
2,6-bis(thiophen-2-ylmethylidene)cyclohexanone

> <STRUCTURE_SMILES>
O=C2C(CCCC2=Cc1cccs1)=Cc3cccs3

> <STRUCTURE_SMILES_Desalt>
O=C2C(CCCC2=Cc1cccs1)=Cc3cccs3

> <Substance_modify_yyyymmdd>
20110817

$$$$
