893443-18-0
ChemmineR-0915142007XD

 16 15  0  0  0  0  0  0  0  0  2 V2000
    8.2190   -4.2899    0.0000 C   0  0  0  0  0  0  0  0  0  0  0  0
    6.6553   -2.1349    0.0000 C   0  0  0  0  0  0  0  0  0  0  0  0
    7.4372   -3.2174    0.0000 C   0  0  0  0  0  0  0  0  0  0  0  0
   10.0231   -1.3331    0.0000 C   0  0  0  0  0  0  0  0  0  0  0  0
    9.2413   -0.2606    0.0000 C   0  0  0  0  0  0  0  0  0  0  0  0
    9.2413   -2.4055    0.0000 C   0  0  0  0  0  0  0  0  0  0  0  0
    7.9784   -0.6715    0.0000 C   0  0  0  0  0  0  0  0  0  0  0  0
    7.9784   -1.9946    0.0000 N   0  3  0  0  0  0  0  0  0  0  0  0
    1.3331   -1.3331    0.0000 C   0  0  0  0  0  0  0  0  0  0  0  0
    0.0000   -1.3331    0.0000 F   0  0  0  0  0  0  0  0  0  0  0  0
    1.3331   -2.6661    0.0000 F   0  0  0  0  0  0  0  0  0  0  0  0
    1.3331    0.0000    0.0000 F   0  0  0  0  0  0  0  0  0  0  0  0
    2.6561   -2.6661    0.0000 O   0  5  0  0  0  0  0  0  0  0  0  0
    2.6561    0.0000    0.0000 O   0  0  0  0  0  0  0  0  0  0  0  0
    3.9892   -1.3331    0.0000 O   0  0  0  0  0  0  0  0  0  0  0  0
    2.6561   -1.3331    0.0000 S   0  0  0  0  0  0  0  0  0  0  0  0
  1  3  1  0  0  0  0
  2  8  1  0  0  0  0
  3  8  1  0  0  0  0
  4  5  1  0  0  0  0
  4  6  1  0  0  0  0
  5  7  1  0  0  0  0
  6  8  1  0  0  0  0
  7  8  1  0  0  0  0
  9 10  1  0  0  0  0
  9 11  1  0  0  0  0
  9 12  1  0  0  0  0
  9 16  1  0  0  0  0
 13 16  1  0  0  0  0
 14 16  2  0  0  0  0
 15 16  2  0  0  0  0
M  END
> <ID>
14236

> <Formula>
C8H16F3NO3S

> <FW>
263.2777 (114.2081+149.0697)

> <DSSTox_CID>
29331

> <DSSTox_RID>
83447

> <DSSTox_GSID>
49372

> <DSSTox_FileID_Sort>
8122

> <TS_ChemName>
1-Ethyl-1-methylpyrrolidinium trifluoromethanesulfonate

> <TS_ChemName_Synonyms>


> <TS_CASRN>
893443-18-0

> <CASRN_ChemName_Relationship>
primary

> <TS_Description>
single chemical compound

> <ChemNote>


> <STRUCTURE_Shown>
tested chemical

> <STRUCTURE_Formula>
C8H16F3NO3S

> <STRUCTURE_MW>
263.2777

> <STRUCTURE_ChemType>
defined organic

> <STRUCTURE_DefinedOrganicForm>
complex

> <STRUCTURE_IUPAC>
1-ethyl-1-methylpyrrolidinium trifluoromethanesulfonate

> <STRUCTURE_SMILES>
C[N+]1(CC)CCCC1.FC(F)(F)S([O-])(=O)=O

> <STRUCTURE_SMILES_Desalt>
C[N+]1(CC)CCCC1

> <Substance_modify_yyyymmdd>
20111204

$$$$
