89365-50-4
ChemmineR-0915142007XD

 30 31  0  0  0  0  0  0  0  0  1 V2000
    3.4520   -2.6696    0.0000 C   0  0  0  0  0  0  0  0  0  0  0  0
    2.3014   -2.0022    0.0000 C   0  0  0  0  0  0  0  0  0  0  0  0
    3.4520   -4.0044    0.0000 C   0  0  0  0  0  0  0  0  0  0  0  0
    4.6027   -2.0022    0.0000 C   0  0  0  0  0  0  0  0  0  0  0  0
    1.1507   -2.6696    0.0000 C   0  0  0  0  0  0  0  0  0  0  0  0
    2.3014   -4.6487    0.0000 C   0  0  0  0  0  0  0  0  0  0  0  0
    5.7534   -2.6696    0.0000 C   0  0  0  0  0  0  0  0  0  0  0  0
    4.6027   -0.6674    0.0000 O   0  0  0  0  0  0  0  0  0  0  0  0
    1.1507   -4.0044    0.0000 C   0  0  0  0  0  0  0  0  0  0  0  0
    0.0000   -2.0022    0.0000 C   0  0  0  0  0  0  0  0  0  0  0  0
    6.9041   -2.0022    0.0000 N   0  0  0  0  0  0  0  0  0  0  0  0
    0.0000   -4.6487    0.0000 O   0  0  0  0  0  0  0  0  0  0  0  0
    0.0000   -0.6674    0.0000 O   0  0  0  0  0  0  0  0  0  0  0  0
    8.0548   -2.6696    0.0000 C   0  0  0  0  0  0  0  0  0  0  0  0
    9.2054   -2.0022    0.0000 C   0  0  0  0  0  0  0  0  0  0  0  0
   10.3561   -2.6696    0.0000 C   0  0  0  0  0  0  0  0  0  0  0  0
   11.5068   -2.0022    0.0000 C   0  0  0  0  0  0  0  0  0  0  0  0
   12.6575   -2.6696    0.0000 C   0  0  0  0  0  0  0  0  0  0  0  0
   13.8082   -2.0022    0.0000 C   0  0  0  0  0  0  0  0  0  0  0  0
   14.9588   -2.6696    0.0000 O   0  0  0  0  0  0  0  0  0  0  0  0
   16.1095   -2.0022    0.0000 C   0  0  0  0  0  0  0  0  0  0  0  0
   17.2602   -2.6696    0.0000 C   0  0  0  0  0  0  0  0  0  0  0  0
   18.4109   -2.0022    0.0000 C   0  0  0  0  0  0  0  0  0  0  0  0
   19.5616   -2.6696    0.0000 C   0  0  0  0  0  0  0  0  0  0  0  0
   20.7122   -2.0022    0.0000 C   0  0  0  0  0  0  0  0  0  0  0  0
   21.8629   -2.6696    0.0000 C   0  0  0  0  0  0  0  0  0  0  0  0
   20.7122   -0.6674    0.0000 C   0  0  0  0  0  0  0  0  0  0  0  0
   23.0136   -2.0022    0.0000 C   0  0  0  0  0  0  0  0  0  0  0  0
   21.8629    0.0000    0.0000 C   0  0  0  0  0  0  0  0  0  0  0  0
   23.0136   -0.6674    0.0000 C   0  0  0  0  0  0  0  0  0  0  0  0
  1  2  2  0  0  0  0
  1  3  1  0  0  0  0
  1  4  1  0  0  0  0
  2  5  1  0  0  0  0
  3  6  2  0  0  0  0
  4  7  1  0  0  0  0
  4  8  1  0  0  0  0
  5  9  2  0  0  0  0
  5 10  1  0  0  0  0
  6  9  1  0  0  0  0
  7 11  1  0  0  0  0
  9 12  1  0  0  0  0
 10 13  1  0  0  0  0
 11 14  1  0  0  0  0
 14 15  1  0  0  0  0
 15 16  1  0  0  0  0
 16 17  1  0  0  0  0
 17 18  1  0  0  0  0
 18 19  1  0  0  0  0
 19 20  1  0  0  0  0
 20 21  1  0  0  0  0
 21 22  1  0  0  0  0
 22 23  1  0  0  0  0
 23 24  1  0  0  0  0
 24 25  1  0  0  0  0
 25 26  2  0  0  0  0
 25 27  1  0  0  0  0
 26 28  1  0  0  0  0
 27 29  2  0  0  0  0
 28 30  2  0  0  0  0
 29 30  1  0  0  0  0
M  END
> <ID>
3193

> <Formula>
C25H37NO4

> <FW>
415.5656

> <DSSTox_CID>
3571

> <DSSTox_RID>
77087

> <DSSTox_GSID>
23571

> <DSSTox_FileID_Sort>
1770

> <TS_ChemName>
Salmeterol

> <TS_ChemName_Synonyms>


> <TS_CASRN>
89365-50-4

> <CASRN_ChemName_Relationship>
primary

> <TS_Description>
single chemical compound

> <ChemNote>


> <STRUCTURE_Shown>
tested chemical

> <STRUCTURE_Formula>
C25H37NO4

> <STRUCTURE_MW>
415.5656

> <STRUCTURE_ChemType>
defined organic

> <STRUCTURE_DefinedOrganicForm>
parent

> <STRUCTURE_IUPAC>
2-(hydroxymethyl)-4-(1-hydroxy-2-{[6-(4-phenylbutoxy)hexyl]amino}ethyl)phenol

> <STRUCTURE_SMILES>
OCc1cc(ccc1O)C(O)CNCCCCCCOCCCCc2ccccc2

> <STRUCTURE_SMILES_Desalt>
OCc1cc(ccc1O)C(O)CNCCCCCCOCCCCc2ccccc2

> <Substance_modify_yyyymmdd>
20080429

$$$$
