89371-44-8
ChemmineR-0915142007XD

 27 28  0  0  0  0  0  0  0  0  1 V2000
    5.9584   -6.9050    0.0000 C   0  0  0  0  0  0  0  0  0  0  0  0
    6.6380   -5.7521    0.0000 C   0  0  0  0  0  0  0  0  0  0  0  0
    5.9584   -4.5993    0.0000 N   0  0  0  0  0  0  0  0  0  0  0  0
    4.6478   -4.5993    0.0000 C   0  0  0  0  0  0  0  0  0  0  0  0
    3.9804   -3.4464    0.0000 C   0  0  0  0  0  0  0  0  0  0  0  0
    2.6576   -3.4707    0.0000 C   0  0  0  0  0  0  0  0  0  0  0  0
    2.0023   -2.3057    0.0000 C   0  0  0  0  0  0  0  0  0  0  0  0
    2.6576   -1.1529    0.0000 C   0  0  0  0  0  0  0  0  0  0  0  0
    2.0023    0.0000    0.0000 C   0  0  0  0  0  0  0  0  0  0  0  0
    0.6674    0.0000    0.0000 C   0  0  0  0  0  0  0  0  0  0  0  0
    0.0000   -1.1529    0.0000 C   0  0  0  0  0  0  0  0  0  0  0  0
    0.6553   -2.3057    0.0000 C   0  0  0  0  0  0  0  0  0  0  0  0
    3.9804   -5.7521    0.0000 C   0  0  0  0  0  0  0  0  0  0  0  0
    2.6576   -5.7521    0.0000 O   0  0  0  0  0  0  0  0  0  0  0  0
    4.0289   -7.0991    0.0000 O   0  0  0  0  0  0  0  0  0  0  0  0
    7.9486   -5.7521    0.0000 C   0  0  0  0  0  0  0  0  0  0  0  0
    8.6161   -4.5993    0.0000 O   0  0  0  0  0  0  0  0  0  0  0  0
    8.6282   -6.9050    0.0000 N   0  0  0  0  0  0  0  0  0  0  0  0
    9.9509   -7.0506    0.0000 C   0  0  0  0  0  0  0  0  0  0  0  0
   10.2301   -8.3491    0.0000 C   0  0  0  0  0  0  0  0  0  0  0  0
    9.0772   -9.0044    0.0000 N   0  0  0  0  0  0  0  0  0  0  0  0
    8.9316  -10.3271    0.0000 C   0  0  0  0  0  0  0  0  0  0  0  0
    8.0700   -8.1064    0.0000 C   0  0  0  0  0  0  0  0  0  0  0  0
    6.7958   -8.3976    0.0000 O   0  0  0  0  0  0  0  0  0  0  0  0
   10.8368   -6.0555    0.0000 C   0  0  0  0  0  0  0  0  0  0  0  0
   10.4242   -4.7934    0.0000 O   0  0  0  0  0  0  0  0  0  0  0  0
   12.1353   -6.3346    0.0000 O   0  0  0  0  0  0  0  0  0  0  0  0
  1  2  1  0  0  0  0
  2  3  1  0  0  0  0
  2 16  1  0  0  0  0
  3  4  1  0  0  0  0
  4  5  1  0  0  0  0
  4 13  1  0  0  0  0
  5  6  1  0  0  0  0
  6  7  1  0  0  0  0
  7  8  2  0  0  0  0
  7 12  1  0  0  0  0
  8  9  1  0  0  0  0
  9 10  2  0  0  0  0
 10 11  1  0  0  0  0
 11 12  2  0  0  0  0
 13 14  1  0  0  0  0
 13 15  2  0  0  0  0
 16 17  2  0  0  0  0
 16 18  1  0  0  0  0
 18 19  1  0  0  0  0
 18 23  1  0  0  0  0
 19 20  1  0  0  0  0
 19 25  1  0  0  0  0
 20 21  1  0  0  0  0
 21 22  1  0  0  0  0
 21 23  1  0  0  0  0
 23 24  2  0  0  0  0
 25 26  1  0  0  0  0
 25 27  2  0  0  0  0
M  END
> <ID>
16248

> <Formula>
C18H23N3O6

> <FW>
377.3917

> <DSSTox_CID>
31639

> <DSSTox_RID>
97523

> <DSSTox_GSID>
57850

> <DSSTox_FileID_Sort>
8590

> <TS_ChemName>
Imidaprilat

> <TS_ChemName_Synonyms>


> <TS_CASRN>
89371-44-8

> <CASRN_ChemName_Relationship>
primary

> <TS_Description>
single chemical compound

> <ChemNote>


> <STRUCTURE_Shown>
tested chemical

> <STRUCTURE_Formula>
C18H23N3O6

> <STRUCTURE_MW>
377.3917

> <STRUCTURE_ChemType>
defined organic

> <STRUCTURE_DefinedOrganicForm>
parent

> <STRUCTURE_IUPAC>
3-[N-(1-carboxy-3-phenylpropyl)alanyl]-1-methyl-2-oxoimidazolidine-4-carboxylic acid

> <STRUCTURE_SMILES>
OC(=O)C2CN(C)C(=O)N2C(=O)C(C)NC(CCc1ccccc1)C(=O)O

> <STRUCTURE_SMILES_Desalt>
OC(=O)C2CN(C)C(=O)N2C(=O)C(C)NC(CCc1ccccc1)C(=O)O

> <Substance_modify_yyyymmdd>
20131018

$$$$
