89396-94-1
ChemmineR-0915142007XD

 30 30  0  0  1  0  0  0  0  0  1 V2000
    2.2939   -2.6574    0.0000 C    0  0  0  0  0  0  0  0  0  0  0  0
    3.4346   -1.9930    0.0000 C    0  0  0  0  0  0  0  0  0  0  0  0
    4.6003   -2.6574    0.0000 C    0  0  0  0  0  0  0  0  0  0  0  0
    5.7535   -1.9930    0.0000 C    0  0  0  0  0  0  0  0  0  0  0  0
    6.8817   -2.6574    0.0000 N    0  0  0  0  0  0  0  0  0  0  0  0
    1.1407   -1.9930    0.0000 C    0  0  0  0  0  0  0  0  0  0  0  0
    0.0000   -2.6574    0.0000 C    0  0  0  0  0  0  0  0  0  0  0  0
    0.0000   -3.9986    0.0000 C    0  0  0  0  0  0  0  0  0  0  0  0
    1.1407   -4.6630    0.0000 C    0  0  0  0  0  0  0  0  0  0  0  0
    2.2939   -3.9986    0.0000 C    0  0  0  0  0  0  0  0  0  0  0  0
    5.7535   -0.6894    0.0000 C    0  0  0  0  0  0  0  0  0  0  0  0
    4.6003    0.0000    0.0000 O    0  0  0  0  0  0  0  0  0  0  0  0
    3.4346   -0.6894    0.0000 C    0  0  0  0  0  0  0  0  0  0  0  0
    2.2939    0.0000    0.0000 C    0  0  0  0  0  0  0  0  0  0  0  0
    6.8817    0.0000    0.0000 O    0  0  0  0  0  0  0  0  0  0  0  0
    6.8691   -4.3621    0.0000 O    0  0  0  0  0  0  0  0  0  0  0  0
    9.2132   -2.6574    0.0000 C    0  0  0  0  0  0  0  0  0  0  0  0
    8.0599   -1.9930    0.0000 C    0  0  0  0  0  0  0  0  0  0  0  0
    8.0599   -0.6894    0.0000 C    0  0  0  0  0  0  0  0  0  0  0  0
   10.3538   -1.9930    0.0000 O    0  0  0  0  0  0  0  0  0  0  0  0
    9.2132   -3.9986    0.0000 N    0  0  0  0  0  0  0  0  0  0  0  0
    8.1226   -4.7758    0.0000 C    0  0  0  0  0  0  0  0  0  0  0  0
    8.5363   -6.0544    0.0000 N    0  0  0  0  0  0  0  0  0  0  0  0
    9.8650   -6.0544    0.0000 C    0  0  0  0  0  0  0  0  0  0  0  0
   10.2912   -4.7758    0.0000 C    0  0  0  0  0  0  0  0  0  0  0  0
   11.5446   -4.3621    0.0000 C    0  0  0  0  0  0  0  0  0  0  0  0
   11.8204   -3.0711    0.0000 O    0  0  0  0  0  0  0  0  0  0  0  0
   12.5349   -5.2521    0.0000 O    0  0  0  0  0  0  0  0  0  0  0  0
    7.7591   -7.1324    0.0000 C    0  0  0  0  0  0  0  0  0  0  0  0
    3.9736   -4.5376    0.0000 Cl   0  0  0  0  0  0  0  0  0  0  0  0
  1 10  1  0  0  0  0
  1  6  2  0  0  0  0
  1  2  1  0  0  0  0
  2  3  1  0  0  0  0
  3  4  1  0  0  0  0
  4  5  1  0  0  0  0
  4 11  1  1  0  0  0
  5 18  1  0  0  0  0
  6  7  1  0  0  0  0
  7  8  2  0  0  0  0
  8  9  1  0  0  0  0
  9 10  2  0  0  0  0
 11 15  2  0  0  0  0
 11 12  1  0  0  0  0
 12 13  1  0  0  0  0
 13 14  1  0  0  0  0
 16 22  2  0  0  0  0
 17 21  1  0  0  0  0
 17 18  1  0  0  0  0
 17 20  2  0  0  0  0
 18 19  1  1  0  0  0
 21 22  1  0  0  0  0
 21 25  1  0  0  0  0
 22 23  1  0  0  0  0
 23 24  1  0  0  0  0
 23 29  1  0  0  0  0
 24 25  1  0  0  0  0
 25 26  1  6  0  0  0
 26 27  1  0  0  0  0
 26 28  2  0  0  0  0
M  END
> <ID>
12072

> <Formula>
C20H28ClN3O6

> <FW>
441.9058 (405.4449+36.4609)

> <DSSTox_CID>
26912

> <DSSTox_RID>
82010

> <DSSTox_GSID>
46912

> <DSSTox_FileID_Sort>
6691

> <TS_ChemName>
Imidapril hydrochloride

> <TS_ChemName_Synonyms>


> <TS_CASRN>
89396-94-1

> <CASRN_ChemName_Relationship>
primary

> <TS_Description>
single chemical compound

> <ChemNote>
stereochem; parent [89371-37-9]

> <STRUCTURE_Shown>
tested chemical

> <STRUCTURE_Formula>
C20H28ClN3O6

> <STRUCTURE_MW>
441.9058

> <STRUCTURE_ChemType>
defined organic

> <STRUCTURE_DefinedOrganicForm>
complex

> <STRUCTURE_IUPAC>
(4S)-3-{N-[(2S)-1-ethoxy-1-oxo-4-phenylbutan-2-yl]-L-alanyl}-1-methyl-2-oxoimidazolidine-4-carboxylic acid hydrochloride (1:1)

> <STRUCTURE_SMILES>
Cl.OC(=O)[C@@H]2CN(C)C(=O)N2C(=O)[C@H](C)N[C@@H](CCc1ccccc1)C(=O)OCC

> <STRUCTURE_SMILES_Desalt>
OC(=O)[C@@H]2CN(C)C(=O)N2C(=O)[C@H](C)N[C@@H](CCc1ccccc1)C(=O)OCC

> <Substance_modify_yyyymmdd>
20110725

$$$$
