894-71-3
ChemmineR-0915142007XD

 21 22  0  0  0  0  0  0  0  0  1 V2000
    8.6877   -2.5021    0.0000 C    0  0  0  0  0  0  0  0  0  0  0  0
    8.1230   -3.6836    0.0000 C    0  0  0  0  0  0  0  0  0  0  0  0
    6.7938   -3.7965    0.0000 C    0  0  0  0  0  0  0  0  0  0  0  0
    6.0467   -2.6932    0.0000 C    0  0  0  0  0  0  0  0  0  0  0  0
    6.6200   -1.4943    0.0000 C    0  0  0  0  0  0  0  0  0  0  0  0
    7.9493   -1.3987    0.0000 C    0  0  0  0  0  0  0  0  0  0  0  0
    6.0467   -0.3041    0.0000 C    0  0  0  0  0  0  0  0  0  0  0  0
    4.7435    0.0000    0.0000 C    0  0  0  0  0  0  0  0  0  0  0  0
    3.7010   -0.8340    0.0000 C    0  0  0  0  0  0  0  0  0  0  0  0
    3.7010   -2.1632    0.0000 C    0  0  0  0  0  0  0  0  0  0  0  0
    4.7435   -2.9799    0.0000 C    0  0  0  0  0  0  0  0  0  0  0  0
    4.4568   -4.2830    0.0000 C    0  0  0  0  0  0  0  0  0  0  0  0
    3.1536   -4.6306    0.0000 C    0  0  0  0  0  0  0  0  0  0  0  0
    2.2241   -3.6836    0.0000 C    0  0  0  0  0  0  0  0  0  0  0  0
    0.9470   -4.0398    0.0000 N    0  0  0  0  0  0  0  0  0  0  0  0
    0.0000   -3.0928    0.0000 C    0  0  0  0  0  0  0  0  0  0  0  0
    2.5455   -2.8235    0.0000 C    0  0  0  0  0  0  0  0  0  0  0  0
    1.3987   -2.1632    0.0000 C    0  0  0  0  0  0  0  0  0  0  0  0
    1.3987   -0.8340    0.0000 C    0  0  0  0  0  0  0  0  0  0  0  0
    2.5455   -0.1738    0.0000 C    0  0  0  0  0  0  0  0  0  0  0  0
    7.5323   -6.2204    0.0000 Cl   0  0  0  0  0  0  0  0  0  0  0  0
  1  2  1  0  0  0  0
  1  6  2  0  0  0  0
  2  3  2  0  0  0  0
  3  4  1  0  0  0  0
  4  5  2  0  0  0  0
  4 11  1  0  0  0  0
  5  6  1  0  0  0  0
  5  7  1  0  0  0  0
  7  8  1  0  0  0  0
  8  9  1  0  0  0  0
  9 10  2  0  0  0  0
  9 20  1  0  0  0  0
 10 11  1  0  0  0  0
 10 17  1  0  0  0  0
 11 12  2  0  0  0  0
 12 13  1  0  0  0  0
 13 14  1  0  0  0  0
 14 15  1  0  0  0  0
 15 16  1  0  0  0  0
 17 18  2  0  0  0  0
 18 19  1  0  0  0  0
 19 20  2  0  0  0  0
M  END
> <ID>
10745

> <Formula>
C19H22ClN

> <FW>
299.8377 (263.3767+36.4609)

> <DSSTox_CID>
25109

> <DSSTox_RID>
80676

> <DSSTox_GSID>
45109

> <DSSTox_FileID_Sort>
5358

> <TS_ChemName>
Nortriptyline hdrochloride

> <TS_ChemName_Synonyms>


> <TS_CASRN>
894-71-3

> <CASRN_ChemName_Relationship>
primary

> <TS_Description>
single chemical compound

> <ChemNote>
parent [72-69-5]

> <STRUCTURE_Shown>
tested chemical

> <STRUCTURE_Formula>
C19H22ClN

> <STRUCTURE_MW>
299.8377

> <STRUCTURE_ChemType>
defined organic

> <STRUCTURE_DefinedOrganicForm>
complex

> <STRUCTURE_IUPAC>
3-(10,11-dihydro-5H-dibenzo[a,d][7]annulen-5-ylidene)-N-methylpropan-1-amine hydrochloride (1:1)

> <STRUCTURE_SMILES>
Cl.CNCC\C=C1\c3ccccc3CCc2ccccc12

> <STRUCTURE_SMILES_Desalt>
CNCC\C=C1\c3ccccc3CCc2ccccc12

> <Substance_modify_yyyymmdd>


$$$$
