89419-40-9
ChemmineR-0915142007XD

 34 39  0  0  0  0  0  0  0  0  1 V2000
    0.5175   -6.2783    0.0000 Cl   0  0  0  0  0  0  0  0  0  0  0  0
    1.7024   -2.4650    0.0000 C    0  0  0  0  0  0  0  0  0  0  0  0
    2.6012   -3.4320    0.0000 C    0  0  0  0  0  0  0  0  0  0  0  0
    1.8930   -1.1576    0.0000 C    0  0  0  0  0  0  0  0  0  0  0  0
    3.9359   -3.3367    0.0000 N    0  0  0  0  0  0  0  0  0  0  0  0
    3.0507   -0.4903    0.0000 C    0  0  0  0  0  0  0  0  0  0  0  0
    4.2764   -0.9669    0.0000 C    0  0  0  0  0  0  0  0  0  0  0  0
    4.6849   -2.2471    0.0000 C    0  0  0  0  0  0  0  0  0  0  0  0
    5.2025    0.0000    0.0000 C    0  0  0  0  0  0  0  0  0  0  0  0
    6.4826   -0.2860    0.0000 C    0  0  0  0  0  0  0  0  0  0  0  0
    5.9651   -2.5331    0.0000 C    0  0  0  0  0  0  0  0  0  0  0  0
    6.8640   -1.5662    0.0000 C    0  0  0  0  0  0  0  0  0  0  0  0
    0.3950   -2.7647    0.0000 C    0  0  0  0  0  0  0  0  0  0  0  0
    0.0000   -4.0312    0.0000 C    0  0  0  0  0  0  0  0  0  0  0  0
    2.2199   -4.6985    0.0000 C    0  0  0  0  0  0  0  0  0  0  0  0
    0.8989   -5.0118    0.0000 C    0  0  0  0  0  0  0  0  0  0  0  0
    4.5896   -4.4943    0.0000 C    0  0  0  0  0  0  0  0  0  0  0  0
    9.9010   -6.7959    0.0000 C    0  0  0  0  0  0  0  0  0  0  0  0
   10.5683   -5.6383    0.0000 C    0  0  0  0  0  0  0  0  0  0  0  0
    8.5663   -6.7959    0.0000 C    0  0  0  0  0  0  0  0  0  0  0  0
    9.9010   -4.4943    0.0000 C    0  0  0  0  0  0  0  0  0  0  0  0
    7.9126   -5.6383    0.0000 N    0  0  0  0  0  0  0  0  0  0  0  0
    8.5663   -4.4943    0.0000 C    0  0  0  0  0  0  0  0  0  0  0  0
   11.3582   -4.5624    0.0000 C    0  0  0  0  0  0  0  0  0  0  0  0
   11.3582   -6.7142    0.0000 N    0  0  0  0  0  0  0  0  0  0  0  0
   12.6248   -4.9709    0.0000 N    0  0  0  0  0  0  0  0  0  0  0  0
   12.6248   -6.3056    0.0000 C    0  0  0  0  0  0  0  0  0  0  0  0
   11.0722   -8.0216    0.0000 C    0  0  0  0  0  0  0  0  0  0  0  0
   12.0664   -8.9068    0.0000 C    0  0  0  0  0  0  0  0  0  0  0  0
   13.6190   -7.1908    0.0000 C    0  0  0  0  0  0  0  0  0  0  0  0
   13.3330   -8.5119    0.0000 C    0  0  0  0  0  0  0  0  0  0  0  0
   10.9360   -3.3094    0.0000 O    0  0  0  0  0  0  0  0  0  0  0  0
    6.5916   -5.6383    0.0000 C    0  0  0  0  0  0  0  0  0  0  0  0
    5.9243   -4.4943    0.0000 C    0  0  0  0  0  0  0  0  0  0  0  0
  1 16  1  0  0  0  0
  2  4  1  0  0  0  0
  2 13  1  0  0  0  0
  2  3  2  0  0  0  0
  3  5  1  0  0  0  0
  3 15  1  0  0  0  0
  4  6  1  0  0  0  0
  5  8  1  0  0  0  0
  5 17  1  0  0  0  0
  6  7  1  0  0  0  0
  7  9  1  0  0  0  0
  7  8  2  0  0  0  0
  8 11  1  0  0  0  0
  9 10  2  0  0  0  0
 10 12  1  0  0  0  0
 11 12  2  0  0  0  0
 13 14  2  0  0  0  0
 14 16  1  0  0  0  0
 15 16  2  0  0  0  0
 17 34  1  0  0  0  0
 18 19  1  0  0  0  0
 18 20  1  0  0  0  0
 19 21  1  0  0  0  0
 19 24  1  0  0  0  0
 19 25  1  0  0  0  0
 20 22  1  0  0  0  0
 21 23  1  0  0  0  0
 22 23  1  0  0  0  0
 22 33  1  0  0  0  0
 24 26  1  0  0  0  0
 24 32  2  0  0  0  0
 25 28  1  0  0  0  0
 25 27  1  0  0  0  0
 26 27  1  0  0  0  0
 27 30  1  0  0  0  0
 28 29  1  0  0  0  0
 29 31  1  0  0  0  0
 30 31  1  0  0  0  0
 33 34  1  0  0  0  0
M  END
> <ID>
13835

> <Formula>
C28H35ClN4O

> <FW>
479.0567

> <DSSTox_CID>
28772

> <DSSTox_RID>
83041

> <DSSTox_GSID>
48846

> <DSSTox_FileID_Sort>
7718

> <TS_ChemName>
Mosapramine

> <TS_ChemName_Synonyms>


> <TS_CASRN>
89419-40-9

> <CASRN_ChemName_Relationship>
primary

> <TS_Description>
single chemical compound

> <ChemNote>


> <STRUCTURE_Shown>
tested chemical

> <STRUCTURE_Formula>
C28H35ClN4O

> <STRUCTURE_MW>
479.0567

> <STRUCTURE_ChemType>
defined organic

> <STRUCTURE_DefinedOrganicForm>
parent

> <STRUCTURE_IUPAC>
1'-[3-(3-chloro-10,11-dihydro-5H-dibenzo[b,f]azepin-5-yl)propyl]hexahydro-2H-spiro[imidazo[1,2-a]pyridine-3,4'-piperidin]-2-one

> <STRUCTURE_SMILES>
Clc5ccc6CCc1ccccc1N(CCCN2CCC4(CC2)C(=O)NC3CCCCN34)c6c5

> <STRUCTURE_SMILES_Desalt>
Clc5ccc6CCc1ccccc1N(CCCN2CCC4(CC2)C(=O)NC3CCCCN34)c6c5

> <Substance_modify_yyyymmdd>
20111204

$$$$
