89565-68-4
ChemmineR-0915142007XD

 23 26  0  0  1  0  0  0  0  0  1 V2000
    3.7579   -4.2632    0.0000 O   0  0  0  0  0  0  0  0  0  0  0  0
    4.4470   -5.4209    0.0000 C   0  0  0  0  0  0  0  0  0  0  0  0
    5.8343   -5.4209    0.0000 C   0  0  0  0  0  0  0  0  0  0  0  0
    6.3856   -6.6337    0.0000 C   0  0  0  0  0  0  0  0  0  0  0  0
    6.8358   -4.4929    0.0000 C   0  0  0  0  0  0  0  0  0  0  0  0
    7.7271   -6.4959    0.0000 N   0  0  0  0  0  0  0  0  0  0  0  0
    8.0119   -5.1728    0.0000 C   0  0  0  0  0  0  0  0  0  0  0  0
    6.8358   -3.1239    0.0000 C   0  0  0  0  0  0  0  0  0  0  0  0
    8.0119   -2.4348    0.0000 C   0  0  0  0  0  0  0  0  0  0  0  0
    9.1879   -4.4929    0.0000 C   0  0  0  0  0  0  0  0  0  0  0  0
    9.1879   -3.1239    0.0000 C   0  0  0  0  0  0  0  0  0  0  0  0
    3.7762   -6.5786    0.0000 O   0  0  0  0  0  0  0  0  0  0  0  0
    2.0030   -2.0673    0.0000 C   0  0  0  0  0  0  0  0  0  0  0  0
    3.7487   -3.3812    0.0000 C   0  0  0  0  0  0  0  0  0  0  0  0
    2.9034   -2.6829    0.0000 C   0  0  0  0  0  0  0  0  0  0  0  0
    1.3139   -2.6829    0.0000 C   0  0  0  0  0  0  0  0  0  0  0  0
    1.0842   -1.3506    0.0000 N   0  0  0  0  0  0  0  0  0  0  0  0
    3.5282   -2.0489    0.0000 C   0  0  0  0  0  0  0  0  0  0  0  0
    0.4594   -3.8497    0.0000 C   0  0  0  0  0  0  0  0  0  0  0  0
    1.4793   -3.2342    0.0000 C   0  0  0  0  0  0  0  0  0  0  0  0
    0.0000   -2.3705    0.0000 H   0  0  0  0  0  0  0  0  0  0  0  0
    2.4348   -0.7902    0.0000 H   0  0  0  0  0  0  0  0  0  0  0  0
    1.0566    0.0000    0.0000 C   0  0  0  0  0  0  0  0  0  0  0  0
  1  2  1  0  0  0  0
  1 14  1  6  0  0  0
  2  3  1  0  0  0  0
  2 12  2  0  0  0  0
  3  4  2  0  0  0  0
  3  5  1  0  0  0  0
  4  6  1  0  0  0  0
  5  8  1  0  0  0  0
  5  7  2  0  0  0  0
  6  7  1  0  0  0  0
  7 10  1  0  0  0  0
  8  9  2  0  0  0  0
  9 11  1  0  0  0  0
 10 11  2  0  0  0  0
 13 17  1  0  0  0  0
 13 18  1  0  0  0  0
 13 20  1  0  0  0  0
 13 22  1  6  0  0  0
 14 15  1  0  0  0  0
 14 18  1  0  0  0  0
 15 16  1  0  0  0  0
 16 17  1  0  0  0  0
 16 19  1  0  0  0  0
 16 21  1  1  0  0  0
 17 23  1  0  0  0  0
 19 20  1  0  0  0  0
M  END
> <ID>
9869

> <Formula>
C17H20N2O2

> <FW>
284.3529

> <DSSTox_CID>
24137

> <DSSTox_RID>
80108

> <DSSTox_GSID>
44137

> <DSSTox_FileID_Sort>
4790

> <TS_ChemName>
Tropisetron

> <TS_ChemName_Synonyms>


> <TS_CASRN>
89565-68-4

> <CASRN_ChemName_Relationship>
primary

> <TS_Description>
single chemical compound

> <ChemNote>
stereochem

> <STRUCTURE_Shown>
tested chemical

> <STRUCTURE_Formula>
C17H20N2O2

> <STRUCTURE_MW>
284.3529

> <STRUCTURE_ChemType>
defined organic

> <STRUCTURE_DefinedOrganicForm>
parent

> <STRUCTURE_IUPAC>
(3-endo)-8-methyl-8-azabicyclo[3.2.1]oct-3-yl 1H-indole-3-carboxylate

> <STRUCTURE_SMILES>
CN4[C@H]1CC[C@@H]4CC(C1)OC(=O)c3cnc2ccccc23

> <STRUCTURE_SMILES_Desalt>
CN4[C@H]1CC[C@@H]4CC(C1)OC(=O)c3cnc2ccccc23

> <Substance_modify_yyyymmdd>
20090220

$$$$
