897-15-4
ChemmineR-0915142007XD

 22 23  0  0  0  0  0  0  0  0  1 V2000
    3.7219   -3.3145    0.0000 C    0  0  0  0  0  0  0  0  0  0  0  0
    4.9255   -3.9071    0.0000 C    0  0  0  0  0  0  0  0  0  0  0  0
    2.5554   -3.9071    0.0000 C    0  0  0  0  0  0  0  0  0  0  0  0
    4.4163   -6.2402    0.0000 S    0  0  0  0  0  0  0  0  0  0  0  0
    5.2311   -5.1848    0.0000 C    0  0  0  0  0  0  0  0  0  0  0  0
    3.7219   -1.9906    0.0000 C    0  0  0  0  0  0  0  0  0  0  0  0
    2.2591   -5.1848    0.0000 C    0  0  0  0  0  0  0  0  0  0  0  0
    3.0831   -6.2402    0.0000 C    0  0  0  0  0  0  0  0  0  0  0  0
    7.1939   -1.3332    0.0000 N    0  0  0  0  0  0  0  0  0  0  0  0
    4.8978   -1.3332    0.0000 C    0  0  0  0  0  0  0  0  0  0  0  0
    5.8977   -2.9905    0.0000 C    0  0  0  0  0  0  0  0  0  0  0  0
    1.5647   -2.9905    0.0000 C    0  0  0  0  0  0  0  0  0  0  0  0
    6.0458   -1.9906    0.0000 C    0  0  0  0  0  0  0  0  0  0  0  0
    6.5087   -5.5829    0.0000 C    0  0  0  0  0  0  0  0  0  0  0  0
    0.9721   -5.5829    0.0000 C    0  0  0  0  0  0  0  0  0  0  0  0
    8.3512   -1.9906    0.0000 C    0  0  0  0  0  0  0  0  0  0  0  0
    7.1939    0.0000    0.0000 C    0  0  0  0  0  0  0  0  0  0  0  0
    7.1754   -3.3979    0.0000 C    0  0  0  0  0  0  0  0  0  0  0  0
    0.3055   -3.3979    0.0000 C    0  0  0  0  0  0  0  0  0  0  0  0
    0.0000   -4.6848    0.0000 C    0  0  0  0  0  0  0  0  0  0  0  0
    7.4809   -4.6848    0.0000 C    0  0  0  0  0  0  0  0  0  0  0  0
    9.2585   -4.7496    0.0000 Cl   0  0  0  0  0  0  0  0  0  0  0  0
  1  2  1  0  0  0  0
  1  3  1  0  0  0  0
  1  6  2  0  0  0  0
  2  5  2  0  0  0  0
  2 11  1  0  0  0  0
  3  7  2  0  0  0  0
  3 12  1  0  0  0  0
  4  5  1  0  0  0  0
  4  8  1  0  0  0  0
  5 14  1  0  0  0  0
  6 10  1  0  0  0  0
  7  8  1  0  0  0  0
  7 15  1  0  0  0  0
  9 13  1  0  0  0  0
  9 16  1  0  0  0  0
  9 17  1  0  0  0  0
 10 13  1  0  0  0  0
 11 18  2  0  0  0  0
 12 19  2  0  0  0  0
 14 21  2  0  0  0  0
 15 20  2  0  0  0  0
 18 21  1  0  0  0  0
 19 20  1  0  0  0  0
M  END
> <ID>
12879

> <Formula>
C19H22ClNS

> <FW>
331.9027 (295.4417+36.4609)

> <DSSTox_CID>
27758

> <DSSTox_RID>
82535

> <DSSTox_GSID>
47778

> <DSSTox_FileID_Sort>
7216

> <TS_ChemName>
Dothiepin hydrochloride

> <TS_ChemName_Synonyms>
Dosulepin hydrochloride

> <TS_CASRN>
897-15-4

> <CASRN_ChemName_Relationship>
primary

> <TS_Description>
single chemical compound

> <ChemNote>
parent [113-53-1]

> <STRUCTURE_Shown>
tested chemical

> <STRUCTURE_Formula>
C19H22ClNS

> <STRUCTURE_MW>
331.9027

> <STRUCTURE_ChemType>
defined organic

> <STRUCTURE_DefinedOrganicForm>
complex

> <STRUCTURE_IUPAC>
(3Z)-3-(dibenzo[b,e]thiepin-11(6H)-ylidene)-N,N-dimethylpropan-1-amine hydrochloride (1:1)

> <STRUCTURE_SMILES>
Cl.CN(C)CC\C=C1/c3ccccc3SCc2ccccc12

> <STRUCTURE_SMILES_Desalt>
CN(C)CC\C=C1/c3ccccc3SCc2ccccc12

> <Substance_modify_yyyymmdd>


$$$$
