89778-27-8
ChemmineR-0915142007XD

 42 43  0  0  0  0  0  0  0  0  1 V2000
   12.2854  -12.5955    0.0000 C    0  0  0  0  0  0  0  0  0  0  0  0
   11.6062  -11.4585    0.0000 C    0  0  0  0  0  0  0  0  0  0  0  0
   10.2920  -11.4585    0.0000 C    0  0  0  0  0  0  0  0  0  0  0  0
    8.9630  -11.4585    0.0000 O    0  0  0  0  0  0  0  0  0  0  0  0
   10.2920  -10.1295    0.0000 C    0  0  0  0  0  0  0  0  0  0  0  0
   10.2920  -12.7727    0.0000 C    0  0  0  0  0  0  0  0  0  0  0  0
    9.1402  -13.4372    0.0000 C    0  0  0  0  0  0  0  0  0  0  0  0
   11.6062  -13.7620    0.0000 O    0  0  0  0  0  0  0  0  0  0  0  0
   13.5996  -12.5955    0.0000 O    0  0  0  0  0  0  0  0  0  0  0  0
    9.1402   -9.4798    0.0000 O    0  0  0  0  0  0  0  0  0  0  0  0
   11.4585   -9.4798    0.0000 O    0  0  0  0  0  0  0  0  0  0  0  0
    9.1402  -14.7661    0.0000 O    0  0  0  0  0  0  0  0  0  0  0  0
    8.0180  -12.7727    0.0000 O    0  0  0  0  0  0  0  0  0  0  0  0
    3.4848   -4.0311    0.0000 C    0  0  0  0  0  0  0  0  0  0  0  0
    3.4848   -2.6874    0.0000 C    0  0  0  0  0  0  0  0  0  0  0  0
    4.6218   -4.7104    0.0000 C    0  0  0  0  0  0  0  0  0  0  0  0
    2.3183   -4.7104    0.0000 C    0  0  0  0  0  0  0  0  0  0  0  0
    4.6366   -2.0082    0.0000 C    0  0  0  0  0  0  0  0  0  0  0  0
    4.6218   -6.0393    0.0000 C    0  0  0  0  0  0  0  0  0  0  0  0
    5.7735   -4.0311    0.0000 C    0  0  0  0  0  0  0  0  0  0  0  0
   11.5619   -6.0393    0.0000 N    0  0  0  0  0  0  0  0  0  0  0  0
    6.9253   -6.0393    0.0000 C    0  0  0  0  0  0  0  0  0  0  0  0
    5.7735   -6.6890    0.0000 C    0  0  0  0  0  0  0  0  0  0  0  0
    6.9253   -4.7104    0.0000 C    0  0  0  0  0  0  0  0  0  0  0  0
    2.3478   -2.0230    0.0000 C    0  0  0  0  0  0  0  0  0  0  0  0
    8.1066   -6.7038    0.0000 O    0  0  0  0  0  0  0  0  0  0  0  0
    0.0295   -2.0230    0.0000 Cl   0  0  0  0  0  0  0  0  0  0  0  0
    9.2731   -6.0393    0.0000 C    0  0  0  0  0  0  0  0  0  0  0  0
   10.4249   -6.6890    0.0000 C    0  0  0  0  0  0  0  0  0  0  0  0
    5.8178   -2.6579    0.0000 C    0  0  0  0  0  0  0  0  0  0  0  0
    1.1665   -4.0311    0.0000 C    0  0  0  0  0  0  0  0  0  0  0  0
    4.6366   -0.6792    0.0000 C    0  0  0  0  0  0  0  0  0  0  0  0
    2.3183   -6.0393    0.0000 C    0  0  0  0  0  0  0  0  0  0  0  0
    1.1665   -2.6874    0.0000 C    0  0  0  0  0  0  0  0  0  0  0  0
   12.7136   -6.6890    0.0000 C    0  0  0  0  0  0  0  0  0  0  0  0
   11.5619   -4.7104    0.0000 C    0  0  0  0  0  0  0  0  0  0  0  0
    5.8178    0.0000    0.0000 C    0  0  0  0  0  0  0  0  0  0  0  0
    0.0148   -4.7104    0.0000 C    0  0  0  0  0  0  0  0  0  0  0  0
    1.1665   -6.6890    0.0000 C    0  0  0  0  0  0  0  0  0  0  0  0
    6.9548   -2.0082    0.0000 C    0  0  0  0  0  0  0  0  0  0  0  0
    6.9548   -0.6792    0.0000 C    0  0  0  0  0  0  0  0  0  0  0  0
    0.0000   -6.0393    0.0000 C    0  0  0  0  0  0  0  0  0  0  0  0
  1  2  1  0  0  0  0
  1  8  2  0  0  0  0
  1  9  1  0  0  0  0
  2  3  1  0  0  0  0
  3  4  1  0  0  0  0
  3  5  1  0  0  0  0
  3  6  1  0  0  0  0
  5 10  2  0  0  0  0
  5 11  1  0  0  0  0
  6  7  1  0  0  0  0
  7 12  2  0  0  0  0
  7 13  1  0  0  0  0
 14 15  2  0  0  0  0
 14 16  1  0  0  0  0
 14 17  1  0  0  0  0
 15 18  1  0  0  0  0
 15 25  1  0  0  0  0
 16 19  1  0  0  0  0
 16 20  2  0  0  0  0
 17 31  1  0  0  0  0
 17 33  2  0  0  0  0
 18 30  2  0  0  0  0
 18 32  1  0  0  0  0
 19 23  2  0  0  0  0
 20 24  1  0  0  0  0
 21 29  1  0  0  0  0
 21 35  1  0  0  0  0
 21 36  1  0  0  0  0
 22 24  2  0  0  0  0
 22 26  1  0  0  0  0
 22 23  1  0  0  0  0
 25 34  1  0  0  0  0
 26 28  1  0  0  0  0
 27 34  1  0  0  0  0
 28 29  1  0  0  0  0
 30 40  1  0  0  0  0
 31 38  2  0  0  0  0
 32 37  2  0  0  0  0
 33 39  1  0  0  0  0
 37 41  1  0  0  0  0
 38 42  1  0  0  0  0
 39 42  2  0  0  0  0
 40 41  2  0  0  0  0
M  END
> <ID>
1314

> <Formula>
C32H36ClNO8

> <FW>
598.0831 (192.1235+405.9596)

> <DSSTox_CID>
1367

> <DSSTox_RID>
76113

> <DSSTox_GSID>
21367

> <DSSTox_FileID_Sort>
797

> <TS_ChemName>
Toremifene citrate

> <TS_ChemName_Synonyms>


> <TS_CASRN>
89778-27-8

> <CASRN_ChemName_Relationship>
primary

> <TS_Description>
single chemical compound

> <ChemNote>
stereochem; parent [89778-26-7]

> <STRUCTURE_Shown>
tested chemical

> <STRUCTURE_Formula>
C32H36ClNO8

> <STRUCTURE_MW>
598.0831

> <STRUCTURE_ChemType>
defined organic

> <STRUCTURE_DefinedOrganicForm>
complex

> <STRUCTURE_IUPAC>
2-{4-[(1Z)-4-chloro-1,2-diphenylbut-1-en-1-yl]phenoxy}-N,N-dimethylethanamine 2-hydroxypropane-1,2,3-tricarboxylate (1:1)

> <STRUCTURE_SMILES>
O=C(O)C(O)(CC(=O)O)CC(=O)O.CN(C)CCOc1ccc(cc1)/C(c2ccccc2)=C(/CCCl)c3ccccc3

> <STRUCTURE_SMILES_Desalt>
CN(C)CCOc1ccc(cc1)/C(c2ccccc2)=C(/CCCl)c3ccccc3

> <Substance_modify_yyyymmdd>
20080429

$$$$
