89785-84-2
ChemmineR-0915142007XD

 22 23  0  0  1  0  0  0  0  0  2 V2000
    4.3452   -2.4091    0.0000 C    0  0  0  0  0  0  0  0  0  0  0  0
    3.5918   -3.4692    0.0000 C    0  0  0  0  0  0  0  0  0  0  0  0
    3.5918   -1.3228    0.0000 S    0  0  0  0  0  0  0  0  0  0  0  0
    5.5104   -1.7083    0.0000 C    0  0  0  0  0  0  0  0  0  0  0  0
    5.5104   -3.0487    0.0000 C    0  0  0  0  0  0  0  0  0  0  0  0
    2.2777   -3.0487    0.0000 N    0  0  0  0  0  0  0  0  0  0  0  0
    4.0123   -4.7482    0.0000 C    0  0  0  0  0  0  0  0  0  0  0  0
    2.2777   -1.7083    0.0000 C    0  0  0  0  0  0  0  0  0  0  0  0
    3.2940    0.0000    0.0000 O    0  0  0  0  0  0  0  0  0  0  0  0
    4.5730   -0.4030    0.0000 O    0  0  0  0  0  0  0  0  0  0  0  0
    6.6755   -2.4091    0.0000 N    0  0  0  0  0  0  0  0  0  0  0  0
    0.9199   -3.0487    0.0000 C    0  0  0  0  0  0  0  0  0  0  0  0
    5.2826   -5.0548    0.0000 O    0  5  0  0  0  0  0  0  0  0  0  0
    3.0837   -5.7819    0.0000 O    0  0  0  0  0  0  0  0  0  0  0  0
    0.9199   -1.7083    0.0000 C    0  0  0  0  0  0  0  0  0  0  0  0
    7.9546   -1.9886    0.0000 C    0  0  0  0  0  0  0  0  0  0  0  0
    6.6755   -3.7320    0.0000 N    0  0  0  0  0  0  0  0  0  0  0  0
    0.0000   -4.0211    0.0000 O    0  0  0  0  0  0  0  0  0  0  0  0
    8.7605   -3.0487    0.0000 C    0  0  0  0  0  0  0  0  0  0  0  0
    7.9546   -4.1875    0.0000 N    0  0  0  0  0  0  0  0  0  0  0  0
    2.2777   -0.7709    0.0000 H    0  0  0  0  0  0  0  0  0  0  0  0
    4.6080   -6.5441    0.0000 Na   0  3  0  0  0  0  0  0  0  0  0  0
  1  2  1  0  0  0  0
  1  3  1  0  0  0  0
  1  4  1  1  0  0  0
  1  5  1  6  0  0  0
  2  6  1  0  0  0  0
  2  7  1  6  0  0  0
  3  8  1  0  0  0  0
  3  9  2  0  0  0  0
  3 10  2  0  0  0  0
  4 11  1  0  0  0  0
  6 12  1  0  0  0  0
  6  8  1  0  0  0  0
  7 13  1  0  0  0  0
  7 14  2  0  0  0  0
  8 15  1  0  0  0  0
  8 21  1  6  0  0  0
 11 16  1  0  0  0  0
 11 17  1  0  0  0  0
 12 18  2  0  0  0  0
 12 15  1  0  0  0  0
 16 19  2  0  0  0  0
 17 20  2  0  0  0  0
 19 20  1  0  0  0  0
M  END
> <ID>
11367

> <Formula>
C10H11N4NaO5S

> <FW>
322.2729 (299.2837+22.9892)

> <DSSTox_CID>
26030

> <DSSTox_RID>
81299

> <DSSTox_GSID>
46030

> <DSSTox_FileID_Sort>
5980

> <TS_ChemName>
Tazobactam sodium

> <TS_ChemName_Synonyms>


> <TS_CASRN>
89785-84-2

> <CASRN_ChemName_Relationship>
primary

> <TS_Description>
single chemical compound

> <ChemNote>
stereochem; parent [89786-04-9]

> <STRUCTURE_Shown>
tested chemical

> <STRUCTURE_Formula>
C10H11N4NaO5S

> <STRUCTURE_MW>
322.2729

> <STRUCTURE_ChemType>
defined organic

> <STRUCTURE_DefinedOrganicForm>
salt

> <STRUCTURE_IUPAC>
sodium (2S,3S,5R)-3-methyl-7-oxo-3-(1H-1,2,3-triazol-1-ylmethyl)-4-thia-1-azabicyclo[3.2.0]heptane-2-carboxylate 4,4-dioxide

> <STRUCTURE_SMILES>
[Na+].O=S3(=O)[C@@](C)(Cn1ccnn1)[C@@H](N2C(=O)C[C@H]23)C([O-])=O

> <STRUCTURE_SMILES_Desalt>
O=S3(=O)[C@@](C)(Cn1ccnn1)[C@@H](N2C(=O)C[C@H]23)C(=O)O

> <Substance_modify_yyyymmdd>
20110824

$$$$
