89796-99-6
ChemmineR-0915142007XD

 23 24  0  0  0  0  0  0  0  0  1 V2000
   11.5228   -4.6552    0.0000 O    0  0  0  0  0  0  0  0  0  0  0  0
   10.3706   -3.9869    0.0000 C    0  0  0  0  0  0  0  0  0  0  0  0
   10.3706   -2.6618    0.0000 O    0  0  0  0  0  0  0  0  0  0  0  0
    9.2183   -4.6552    0.0000 C    0  0  0  0  0  0  0  0  0  0  0  0
    8.0660   -3.9869    0.0000 O    0  0  0  0  0  0  0  0  0  0  0  0
    6.9137   -4.6552    0.0000 C    0  0  0  0  0  0  0  0  0  0  0  0
    6.9137   -5.9804    0.0000 O    0  0  0  0  0  0  0  0  0  0  0  0
    5.7614   -3.9869    0.0000 C    0  0  0  0  0  0  0  0  0  0  0  0
    4.6091   -4.6552    0.0000 C    0  0  0  0  0  0  0  0  0  0  0  0
    3.4569   -3.9869    0.0000 C    0  0  0  0  0  0  0  0  0  0  0  0
    3.4569   -2.6618    0.0000 N    0  0  0  0  0  0  0  0  0  0  0  0
    2.3046   -1.9935    0.0000 C    0  0  0  0  0  0  0  0  0  0  0  0
    1.1523   -2.6618    0.0000 C    0  0  0  0  0  0  0  0  0  0  0  0
    1.1523   -3.9869    0.0000 Cl   0  0  0  0  0  0  0  0  0  0  0  0
    0.0000   -1.9935    0.0000 C    0  0  0  0  0  0  0  0  0  0  0  0
    0.0000   -0.6568    0.0000 C    0  0  0  0  0  0  0  0  0  0  0  0
    1.1523    0.0000    0.0000 C    0  0  0  0  0  0  0  0  0  0  0  0
    2.3046   -0.6568    0.0000 C    0  0  0  0  0  0  0  0  0  0  0  0
    3.4569    0.0000    0.0000 Cl   0  0  0  0  0  0  0  0  0  0  0  0
    2.3046   -4.6552    0.0000 C    0  0  0  0  0  0  0  0  0  0  0  0
    2.3046   -5.9804    0.0000 C    0  0  0  0  0  0  0  0  0  0  0  0
    3.4569   -6.6487    0.0000 C    0  0  0  0  0  0  0  0  0  0  0  0
    4.6091   -5.9804    0.0000 C    0  0  0  0  0  0  0  0  0  0  0  0
  1  2  1  0  0  0  0
  2  3  2  0  0  0  0
  2  4  1  0  0  0  0
  4  5  1  0  0  0  0
  5  6  1  0  0  0  0
  6  7  2  0  0  0  0
  6  8  1  0  0  0  0
  8  9  1  0  0  0  0
  9 10  2  0  0  0  0
  9 23  1  0  0  0  0
 10 11  1  0  0  0  0
 10 20  1  0  0  0  0
 11 12  1  0  0  0  0
 12 13  2  0  0  0  0
 12 18  1  0  0  0  0
 13 14  1  0  0  0  0
 13 15  1  0  0  0  0
 15 16  2  0  0  0  0
 16 17  1  0  0  0  0
 17 18  2  0  0  0  0
 18 19  1  0  0  0  0
 20 21  2  0  0  0  0
 21 22  1  0  0  0  0
 22 23  2  0  0  0  0
M  END
> <ID>
10996

> <Formula>
C16H13Cl2NO4

> <FW>
354.1847

> <DSSTox_CID>
25522

> <DSSTox_RID>
80928

> <DSSTox_GSID>
45522

> <DSSTox_FileID_Sort>
5609

> <TS_ChemName>
Aceclofenac

> <TS_ChemName_Synonyms>


> <TS_CASRN>
89796-99-6

> <CASRN_ChemName_Relationship>
primary

> <TS_Description>
single chemical compound

> <ChemNote>


> <STRUCTURE_Shown>
tested chemical

> <STRUCTURE_Formula>
C16H13Cl2NO4

> <STRUCTURE_MW>
354.1847

> <STRUCTURE_ChemType>
defined organic

> <STRUCTURE_DefinedOrganicForm>
parent

> <STRUCTURE_IUPAC>
[({2-[(2,6-dichlorophenyl)amino]phenyl}acetyl)oxy]acetic acid

> <STRUCTURE_SMILES>
Clc2cccc(Cl)c2Nc1ccccc1CC(=O)OCC(=O)O

> <STRUCTURE_SMILES_Desalt>
Clc2cccc(Cl)c2Nc1ccccc1CC(=O)OCC(=O)O

> <Substance_modify_yyyymmdd>
20100107

$$$$
