898128-45-5
ChemmineR-0915142007XD

 18 19  0  0  0  0  0  0  0  0  1 V2000
    3.4511   -1.3302    0.0000 C    0  0  0  0  0  0  0  0  0  0  0  0
    4.6139   -1.9907    0.0000 O    0  0  0  0  0  0  0  0  0  0  0  0
    2.3162   -1.9907    0.0000 C    0  0  0  0  0  0  0  0  0  0  0  0
    3.4511    0.0000    0.0000 O    0  0  0  0  0  0  0  0  0  0  0  0
    2.3162   -3.3302    0.0000 C    0  0  0  0  0  0  0  0  0  0  0  0
    1.1535   -1.3302    0.0000 C    0  0  0  0  0  0  0  0  0  0  0  0
    1.1535   -3.9999    0.0000 C    0  0  0  0  0  0  0  0  0  0  0  0
    0.0000   -1.9907    0.0000 C    0  0  0  0  0  0  0  0  0  0  0  0
    0.0000   -3.3302    0.0000 C    0  0  0  0  0  0  0  0  0  0  0  0
    3.4511   -3.9999    0.0000 N    0  0  0  0  0  0  0  0  0  0  0  0
    4.6139   -7.3115    0.0000 C    0  0  0  0  0  0  0  0  0  0  0  0
    3.4511   -7.9719    0.0000 C    0  0  0  0  0  0  0  0  0  0  0  0
    2.3162   -7.3115    0.0000 C    0  0  0  0  0  0  0  0  0  0  0  0
    2.3162   -5.9720    0.0000 C    0  0  0  0  0  0  0  0  0  0  0  0
    3.4511   -5.3208    0.0000 C    0  0  0  0  0  0  0  0  0  0  0  0
    4.6139   -5.9720    0.0000 C    0  0  0  0  0  0  0  0  0  0  0  0
    3.4511   -9.3021    0.0000 Cl   0  0  0  0  0  0  0  0  0  0  0  0
    5.7673   -7.9719    0.0000 C    0  0  0  0  0  0  0  0  0  0  0  0
  1  2  1  0  0  0  0
  1  3  1  0  0  0  0
  1  4  2  0  0  0  0
  3  5  2  0  0  0  0
  3  6  1  0  0  0  0
  5  7  1  0  0  0  0
  5 10  1  0  0  0  0
  6  8  2  0  0  0  0
  7  9  2  0  0  0  0
  8  9  1  0  0  0  0
 10 15  1  0  0  0  0
 11 16  2  0  0  0  0
 11 12  1  0  0  0  0
 11 18  1  0  0  0  0
 12 13  2  0  0  0  0
 12 17  1  0  0  0  0
 13 14  1  0  0  0  0
 14 15  2  0  0  0  0
 15 16  1  0  0  0  0
M  END
> <ID>
13681

> <Formula>
C14H12ClNO2

> <FW>
261.7036

> <DSSTox_CID>
28614

> <DSSTox_RID>
82884

> <DSSTox_GSID>
48688

> <DSSTox_FileID_Sort>
7561

> <TS_ChemName>
2-[(4-Chloro-3-methylphenyl)amino]benzoic acid

> <TS_ChemName_Synonyms>
Benzoic acid, 2-[(4-chloro-3-methylphenyl)amino]-

> <TS_CASRN>
898128-45-5

> <CASRN_ChemName_Relationship>
primary

> <TS_Description>
single chemical compound

> <ChemNote>


> <STRUCTURE_Shown>
tested chemical

> <STRUCTURE_Formula>
C14H12ClNO2

> <STRUCTURE_MW>
261.7036

> <STRUCTURE_ChemType>
defined organic

> <STRUCTURE_DefinedOrganicForm>
parent

> <STRUCTURE_IUPAC>
2-[(4-chloro-3-methylphenyl)amino]benzoic acid

> <STRUCTURE_SMILES>
Cc2cc(Nc1ccccc1C(=O)O)ccc2Cl

> <STRUCTURE_SMILES_Desalt>
Cc2cc(Nc1ccccc1C(=O)O)ccc2Cl

> <Substance_modify_yyyymmdd>
20111204

$$$$
