90-03-9
ChemmineR-0915142007XD

  9  9  0  0  0  0  0  0  0  0  1 V2000
    2.3208   -2.0209    0.0000 C    0  0  0  0  0  0  0  0  0  0  0  0
    3.4512   -2.6899    0.0000 O    0  0  0  0  0  0  0  0  0  0  0  0
    2.3208   -0.6690    0.0000 C    0  0  0  0  0  0  0  0  0  0  0  0
    1.1627   -2.6576    0.0000 C    0  0  0  0  0  0  0  0  0  0  0  0
    0.0138   -1.9886    0.0000 C    0  0  0  0  0  0  0  0  0  0  0  0
    1.1765    0.0000    0.0000 C    0  0  0  0  0  0  0  0  0  0  0  0
    0.0000   -0.6690    0.0000 C    0  0  0  0  0  0  0  0  0  0  0  0
    3.4835    0.0000    0.0000 Hg   0  0  0  0  0  0  0  0  0  0  0  0
    4.6139   -0.6690    0.0000 Cl   0  0  0  0  0  0  0  0  0  0  0  0
  1  2  1  0  0  0  0
  1  3  2  0  0  0  0
  1  4  1  0  0  0  0
  3  6  1  0  0  0  0
  3  8  1  0  0  0  0
  4  5  2  0  0  0  0
  5  7  1  0  0  0  0
  6  7  2  0  0  0  0
  8  9  1  0  0  0  0
M  END
> <ID>
9153

> <Formula>
C6H5ClHgO

> <FW>
329.1463

> <DSSTox_CID>
22224

> <DSSTox_RID>
79965

> <DSSTox_GSID>
42224

> <DSSTox_FileID_Sort>
4647

> <TS_ChemName>
o-(Chloromercuri)phenol

> <TS_ChemName_Synonyms>


> <TS_CASRN>
90-03-9

> <CASRN_ChemName_Relationship>
primary

> <TS_Description>
single chemical compound

> <ChemNote>


> <STRUCTURE_Shown>
tested chemical

> <STRUCTURE_Formula>
C6H5ClHgO

> <STRUCTURE_MW>
329.1463

> <STRUCTURE_ChemType>
organometallic

> <STRUCTURE_DefinedOrganicForm>


> <STRUCTURE_IUPAC>
chloro(2-hydroxyphenyl)mercury

> <STRUCTURE_SMILES>
Cl[Hg]c1ccccc1O

> <STRUCTURE_SMILES_Desalt>
Cl[Hg]c1ccccc1O

> <Substance_modify_yyyymmdd>
20080825

$$$$
