90-02-8
ChemmineR-0915142007XD

  9  9  0  0  0  0  0  0  0  0  1 V2000
    4.6563   -3.4550    0.0000 O   0  0  0  0  0  0  0  0  0  0  0  0
    3.9905   -2.3049    0.0000 C   0  0  0  0  0  0  0  0  0  0  0  0
    2.6588   -2.3049    0.0000 C   0  0  0  0  0  0  0  0  0  0  0  0
    1.9976   -3.4550    0.0000 C   0  0  0  0  0  0  0  0  0  0  0  0
    0.6659   -3.4550    0.0000 C   0  0  0  0  0  0  0  0  0  0  0  0
    0.0000   -2.3049    0.0000 C   0  0  0  0  0  0  0  0  0  0  0  0
    0.6659   -1.1501    0.0000 C   0  0  0  0  0  0  0  0  0  0  0  0
    1.9976   -1.1501    0.0000 C   0  0  0  0  0  0  0  0  0  0  0  0
    2.6588    0.0000    0.0000 O   0  0  0  0  0  0  0  0  0  0  0  0
  1  2  2  0  0  0  0
  2  3  1  0  0  0  0
  3  4  2  0  0  0  0
  3  8  1  0  0  0  0
  4  5  1  0  0  0  0
  5  6  2  0  0  0  0
  6  7  1  0  0  0  0
  7  8  2  0  0  0  0
  8  9  1  0  0  0  0
M  END
> <ID>
1692

> <Formula>
C7H6O2

> <FW>
122.1213

> <DSSTox_CID>
1792

> <DSSTox_RID>
76329

> <DSSTox_GSID>
21792

> <DSSTox_FileID_Sort>
1013

> <TS_ChemName>
Salicylaldehyde

> <TS_ChemName_Synonyms>
Salicylaldehyde (2-Hydroxy-benzaldehyde)

> <TS_CASRN>
90-02-8

> <CASRN_ChemName_Relationship>
primary

> <TS_Description>
single chemical compound

> <ChemNote>


> <STRUCTURE_Shown>
tested chemical

> <STRUCTURE_Formula>
C7H6O2

> <STRUCTURE_MW>
122.1213

> <STRUCTURE_ChemType>
defined organic

> <STRUCTURE_DefinedOrganicForm>
parent

> <STRUCTURE_IUPAC>
2-hydroxybenzaldehyde

> <STRUCTURE_SMILES>
O=Cc1ccccc1O

> <STRUCTURE_SMILES_Desalt>
O=Cc1ccccc1O

> <Substance_modify_yyyymmdd>
20080429

$$$$
