90-00-6
ChemmineR-0915142007XD

  9  9  0  0  0  0  0  0  0  0  1 V2000
    1.9976   -1.1501    0.0000 C   0  0  0  0  0  0  0  0  0  0  0  0
    2.6588   -2.3049    0.0000 C   0  0  0  0  0  0  0  0  0  0  0  0
    3.9905   -2.3049    0.0000 C   0  0  0  0  0  0  0  0  0  0  0  0
    4.6563   -3.4550    0.0000 C   0  0  0  0  0  0  0  0  0  0  0  0
    1.9976   -3.4550    0.0000 C   0  0  0  0  0  0  0  0  0  0  0  0
    0.6659   -3.4550    0.0000 C   0  0  0  0  0  0  0  0  0  0  0  0
    0.0000   -2.3049    0.0000 C   0  0  0  0  0  0  0  0  0  0  0  0
    0.6659   -1.1501    0.0000 C   0  0  0  0  0  0  0  0  0  0  0  0
    2.6588    0.0000    0.0000 O   0  0  0  0  0  0  0  0  0  0  0  0
  1  2  2  0  0  0  0
  1  8  1  0  0  0  0
  1  9  1  0  0  0  0
  2  3  1  0  0  0  0
  2  5  1  0  0  0  0
  3  4  1  0  0  0  0
  5  6  2  0  0  0  0
  6  7  1  0  0  0  0
  7  8  2  0  0  0  0
M  END
> <ID>
2254

> <Formula>
C8H10O

> <FW>
122.1644

> <DSSTox_CID>
2479

> <DSSTox_RID>
76599

> <DSSTox_GSID>
22479

> <DSSTox_FileID_Sort>
1283

> <TS_ChemName>
2-Ethylphenol

> <TS_ChemName_Synonyms>
2-Ethylphenol (o-Ethyl phenol)

> <TS_CASRN>
90-00-6

> <CASRN_ChemName_Relationship>
primary

> <TS_Description>
single chemical compound

> <ChemNote>


> <STRUCTURE_Shown>
tested chemical

> <STRUCTURE_Formula>
C8H10O

> <STRUCTURE_MW>
122.1644

> <STRUCTURE_ChemType>
defined organic

> <STRUCTURE_DefinedOrganicForm>
parent

> <STRUCTURE_IUPAC>
2-ethylphenol

> <STRUCTURE_SMILES>
CCc1ccccc1O

> <STRUCTURE_SMILES_Desalt>
CCc1ccccc1O

> <Substance_modify_yyyymmdd>
20080429

$$$$
