90-04-0
ChemmineR-0915142007XD

  9  9  0  0  0  0  0  0  0  0  1 V2000
    1.9859   -1.1507    0.0000 C   0  0  0  0  0  0  0  0  0  0  0  0
    2.6540   -2.3061    0.0000 C   0  0  0  0  0  0  0  0  0  0  0  0
    2.6540    0.0000    0.0000 N   0  0  0  0  0  0  0  0  0  0  0  0
    3.9857   -2.3061    0.0000 O   0  0  0  0  0  0  0  0  0  0  0  0
    0.6542   -1.1507    0.0000 C   0  0  0  0  0  0  0  0  0  0  0  0
    1.9859   -3.4568    0.0000 C   0  0  0  0  0  0  0  0  0  0  0  0
    4.6399   -1.1507    0.0000 C   0  0  0  0  0  0  0  0  0  0  0  0
    0.0000   -2.3061    0.0000 C   0  0  0  0  0  0  0  0  0  0  0  0
    0.6542   -3.4568    0.0000 C   0  0  0  0  0  0  0  0  0  0  0  0
  1  2  1  0  0  0  0
  1  3  1  0  0  0  0
  1  5  2  0  0  0  0
  2  4  1  0  0  0  0
  2  6  2  0  0  0  0
  4  7  1  0  0  0  0
  5  8  1  0  0  0  0
  6  9  1  0  0  0  0
  8  9  2  0  0  0  0
M  END
> <ID>
3402

> <Formula>
C7H9NO

> <FW>
123.1525

> <DSSTox_CID>
3877

> <DSSTox_RID>
77215

> <DSSTox_GSID>
23877

> <DSSTox_FileID_Sort>
1898

> <TS_ChemName>
2-Anisidine

> <TS_ChemName_Synonyms>
2-Methoxy-benzeneamine; o-Anisidine

> <TS_CASRN>
90-04-0

> <CASRN_ChemName_Relationship>
primary

> <TS_Description>
single chemical compound

> <ChemNote>


> <STRUCTURE_Shown>
tested chemical

> <STRUCTURE_Formula>
C7H9NO

> <STRUCTURE_MW>
123.1525

> <STRUCTURE_ChemType>
defined organic

> <STRUCTURE_DefinedOrganicForm>
parent

> <STRUCTURE_IUPAC>
2-methoxyaniline

> <STRUCTURE_SMILES>
Nc1ccccc1OC

> <STRUCTURE_SMILES_Desalt>
Nc1ccccc1OC

> <Substance_modify_yyyymmdd>
20080429

$$$$
