90-05-1
ChemmineR-0915142007XD

  9  9  0  0  0  0  0  0  0  0  1 V2000
    3.9905   -1.1501    0.0000 C   0  0  0  0  0  0  0  0  0  0  0  0
    4.6563   -2.3049    0.0000 C   0  0  0  0  0  0  0  0  0  0  0  0
    3.9905   -3.4550    0.0000 C   0  0  0  0  0  0  0  0  0  0  0  0
    2.6588   -3.4550    0.0000 C   0  0  0  0  0  0  0  0  0  0  0  0
    1.9976   -2.3049    0.0000 C   0  0  0  0  0  0  0  0  0  0  0  0
    0.6659   -2.3049    0.0000 O   0  0  0  0  0  0  0  0  0  0  0  0
    0.0000   -3.4550    0.0000 C   0  0  0  0  0  0  0  0  0  0  0  0
    2.6588   -1.1501    0.0000 C   0  0  0  0  0  0  0  0  0  0  0  0
    1.9976    0.0000    0.0000 O   0  0  0  0  0  0  0  0  0  0  0  0
  1  2  2  0  0  0  0
  1  8  1  0  0  0  0
  2  3  1  0  0  0  0
  3  4  2  0  0  0  0
  4  5  1  0  0  0  0
  5  6  1  0  0  0  0
  5  8  2  0  0  0  0
  6  7  1  0  0  0  0
  8  9  1  0  0  0  0
M  END
> <ID>
2795

> <Formula>
C7H8O2

> <FW>
124.1372

> <DSSTox_CID>
3113

> <DSSTox_RID>
76880

> <DSSTox_GSID>
23113

> <DSSTox_FileID_Sort>
1564

> <TS_ChemName>
2-Methoxyphenol

> <TS_ChemName_Synonyms>
2-Methoxyphenol (o-Methoxyphenol) (Guaiacol)

> <TS_CASRN>
90-05-1

> <CASRN_ChemName_Relationship>
primary

> <TS_Description>
single chemical compound

> <ChemNote>


> <STRUCTURE_Shown>
tested chemical

> <STRUCTURE_Formula>
C7H8O2

> <STRUCTURE_MW>
124.1372

> <STRUCTURE_ChemType>
defined organic

> <STRUCTURE_DefinedOrganicForm>
parent

> <STRUCTURE_IUPAC>
2-methoxyphenol

> <STRUCTURE_SMILES>
Oc1ccccc1OC

> <STRUCTURE_SMILES_Desalt>
Oc1ccccc1OC

> <Substance_modify_yyyymmdd>
20080429

$$$$
