90-17-5
ChemmineR-0915142007XD

 15 15  0  0  0  0  0  0  0  0  1 V2000
    1.1602   -2.0198    0.0000 C    0  0  0  0  0  0  0  0  0  0  0  0
    1.1602   -3.3423    0.0000 O    0  0  0  0  0  0  0  0  0  0  0  0
    2.3084   -1.3526    0.0000 O    0  0  0  0  0  0  0  0  0  0  0  0
    0.0000   -1.3526    0.0000 C    0  0  0  0  0  0  0  0  0  0  0  0
    3.4806   -2.0198    0.0000 C    0  0  0  0  0  0  0  0  0  0  0  0
    4.6107   -1.3225    0.0000 C    0  0  0  0  0  0  0  0  0  0  0  0
    5.7589   -1.9898    0.0000 Cl   0  0  0  0  0  0  0  0  0  0  0  0
    4.6107    0.0000    0.0000 Cl   0  0  0  0  0  0  0  0  0  0  0  0
    4.6107   -2.6691    0.0000 Cl   0  0  0  0  0  0  0  0  0  0  0  0
    2.3084   -5.3141    0.0000 C    0  0  0  0  0  0  0  0  0  0  0  0
    3.4806   -6.0114    0.0000 C    0  0  0  0  0  0  0  0  0  0  0  0
    4.6107   -5.3441    0.0000 C    0  0  0  0  0  0  0  0  0  0  0  0
    4.6107   -4.0216    0.0000 C    0  0  0  0  0  0  0  0  0  0  0  0
    3.4806   -3.3423    0.0000 C    0  0  0  0  0  0  0  0  0  0  0  0
    2.3084   -4.0216    0.0000 C    0  0  0  0  0  0  0  0  0  0  0  0
  1  2  2  0  0  0  0
  1  3  1  0  0  0  0
  1  4  1  0  0  0  0
  3  5  1  0  0  0  0
  5  6  1  0  0  0  0
  5 14  1  0  0  0  0
  6  7  1  0  0  0  0
  6  8  1  0  0  0  0
  6  9  1  0  0  0  0
 10 15  2  0  0  0  0
 10 11  1  0  0  0  0
 11 12  2  0  0  0  0
 12 13  1  0  0  0  0
 13 14  2  0  0  0  0
 14 15  1  0  0  0  0
M  END
> <ID>
12835

> <Formula>
C10H9Cl3O2

> <FW>
267.5363

> <DSSTox_CID>
27714

> <DSSTox_RID>
82523

> <DSSTox_GSID>
47725

> <DSSTox_FileID_Sort>
7204

> <TS_ChemName>
2,2,2-Trichloro-1-phenylethyl acetate

> <TS_ChemName_Synonyms>


> <TS_CASRN>
90-17-5

> <CASRN_ChemName_Relationship>
primary

> <TS_Description>
single chemical compound

> <ChemNote>


> <STRUCTURE_Shown>
tested chemical

> <STRUCTURE_Formula>
C10H9Cl3O2

> <STRUCTURE_MW>
267.5363

> <STRUCTURE_ChemType>
defined organic

> <STRUCTURE_DefinedOrganicForm>
parent

> <STRUCTURE_IUPAC>
2,2,2-trichloro-1-phenylethyl acetate

> <STRUCTURE_SMILES>
ClC(Cl)(Cl)C(OC(C)=O)c1ccccc1

> <STRUCTURE_SMILES_Desalt>
ClC(Cl)(Cl)C(OC(C)=O)c1ccccc1

> <Substance_modify_yyyymmdd>
20101216

$$$$
