90-13-1
ChemmineR-0915142007XD

 11 12  0  0  0  0  0  0  0  0  1 V2000
    0.0000   -1.5884    0.0000 C    0  0  0  0  0  0  0  0  0  0  0  0
    0.0000   -2.9586    0.0000 C    0  0  0  0  0  0  0  0  0  0  0  0
    1.1854   -3.6461    0.0000 C    0  0  0  0  0  0  0  0  0  0  0  0
    2.3660   -2.9634    0.0000 C    0  0  0  0  0  0  0  0  0  0  0  0
    2.3660   -1.5979    0.0000 C    0  0  0  0  0  0  0  0  0  0  0  0
    1.1854   -0.9151    0.0000 C    0  0  0  0  0  0  0  0  0  0  0  0
    3.5608   -3.6509    0.0000 C    0  0  0  0  0  0  0  0  0  0  0  0
    4.7414   -2.9681    0.0000 C    0  0  0  0  0  0  0  0  0  0  0  0
    4.7414   -1.6073    0.0000 C    0  0  0  0  0  0  0  0  0  0  0  0
    3.5608   -0.9246    0.0000 C    0  0  0  0  0  0  0  0  0  0  0  0
    3.5703    0.0000    0.0000 Cl   0  0  0  0  0  0  0  0  0  0  0  0
  1  2  1  0  0  0  0
  1  6  2  0  0  0  0
  2  3  2  0  0  0  0
  3  4  1  0  0  0  0
  4  5  1  0  0  0  0
  4  7  2  0  0  0  0
  5  6  1  0  0  0  0
  5 10  2  0  0  0  0
  7  8  1  0  0  0  0
  8  9  2  0  0  0  0
  9 10  1  0  0  0  0
 10 11  1  0  0  0  0
M  END
> <ID>
3855

> <Formula>
C10H7Cl

> <FW>
162.6156

> <DSSTox_CID>
4791

> <DSSTox_RID>
77533

> <DSSTox_GSID>
24791

> <DSSTox_FileID_Sort>
2216

> <TS_ChemName>
1-Chloronaphthalene

> <TS_ChemName_Synonyms>


> <TS_CASRN>
90-13-1

> <CASRN_ChemName_Relationship>
primary

> <TS_Description>
single chemical compound

> <ChemNote>


> <STRUCTURE_Shown>
tested chemical

> <STRUCTURE_Formula>
C10H7Cl

> <STRUCTURE_MW>
162.6156

> <STRUCTURE_ChemType>
defined organic

> <STRUCTURE_DefinedOrganicForm>
parent

> <STRUCTURE_IUPAC>
1-chloronaphthalene

> <STRUCTURE_SMILES>
Clc2cccc1ccccc12

> <STRUCTURE_SMILES_Desalt>
Clc2cccc1ccccc12

> <Substance_modify_yyyymmdd>
20080429

$$$$
