90-16-4
ChemmineR-0915142007XD

 11 12  0  0  0  0  0  0  0  0  1 V2000
    1.1551   -3.9945    0.0000 N   0  0  0  0  0  0  0  0  0  0  0  0
    0.0000   -3.3226    0.0000 N   0  0  0  0  0  0  0  0  0  0  0  0
    0.0000   -1.9880    0.0000 N   0  0  0  0  0  0  0  0  0  0  0  0
    1.1551   -1.3346    0.0000 C   0  0  0  0  0  0  0  0  0  0  0  0
    2.3102   -1.9880    0.0000 C   0  0  0  0  0  0  0  0  0  0  0  0
    2.3102   -3.3226    0.0000 C   0  0  0  0  0  0  0  0  0  0  0  0
    3.4469   -3.9945    0.0000 C   0  0  0  0  0  0  0  0  0  0  0  0
    4.6019   -3.3226    0.0000 C   0  0  0  0  0  0  0  0  0  0  0  0
    4.6019   -1.9880    0.0000 C   0  0  0  0  0  0  0  0  0  0  0  0
    3.4469   -1.3346    0.0000 C   0  0  0  0  0  0  0  0  0  0  0  0
    1.1551    0.0000    0.0000 O   0  0  0  0  0  0  0  0  0  0  0  0
  1  2  1  0  0  0  0
  1  6  1  0  0  0  0
  2  3  2  0  0  0  0
  3  4  1  0  0  0  0
  4  5  1  0  0  0  0
  4 11  2  0  0  0  0
  5  6  2  0  0  0  0
  5 10  1  0  0  0  0
  6  7  1  0  0  0  0
  7  8  2  0  0  0  0
  8  9  1  0  0  0  0
  9 10  2  0  0  0  0
M  END
> <ID>
4718

> <Formula>
C7H5N3O

> <FW>
147.1341

> <DSSTox_CID>
6544

> <DSSTox_RID>
78144

> <DSSTox_GSID>
26544

> <DSSTox_FileID_Sort>
2827

> <TS_ChemName>
1,2,3-Benzotriazin-4(1H)-one

> <TS_ChemName_Synonyms>


> <TS_CASRN>
90-16-4

> <CASRN_ChemName_Relationship>
primary

> <TS_Description>
single chemical compound

> <ChemNote>
tautomers

> <STRUCTURE_Shown>
tested chemical

> <STRUCTURE_Formula>
C7H5N3O

> <STRUCTURE_MW>
147.1341

> <STRUCTURE_ChemType>
defined organic

> <STRUCTURE_DefinedOrganicForm>
parent

> <STRUCTURE_IUPAC>
1,2,3-benzotriazin-4(1H)-one

> <STRUCTURE_SMILES>
O=C2N=NNc1ccccc12

> <STRUCTURE_SMILES_Desalt>
O=C2N=NNc1ccccc12

> <Substance_modify_yyyymmdd>
20080429

$$$$
