90-22-2
ChemmineR-0915142007XD

 23 22  0  0  0  0  0  0  0  0  2 V2000
    4.5983   -3.9702    0.0000 C    0  0  0  0  0  0  0  0  0  0  0  0
    3.4543   -3.3085    0.0000 C    0  0  0  0  0  0  0  0  0  0  0  0
    9.2077   -3.9478    0.0000 N    0  3  0  0  0  0  0  0  0  0  0  0
    4.5983   -5.2824    0.0000 O    0  0  0  0  0  0  0  0  0  0  0  0
    2.2991   -3.9814    0.0000 C    0  0  0  0  0  0  0  0  0  0  0  0
    5.7534   -3.2973    0.0000 O    0  0  0  0  0  0  0  0  0  0  0  0
    3.4543   -1.9963    0.0000 C    0  0  0  0  0  0  0  0  0  0  0  0
    6.9086   -3.9478    0.0000 C    0  0  0  0  0  0  0  0  0  0  0  0
    8.0526   -3.2749    0.0000 C    0  0  0  0  0  0  0  0  0  0  0  0
    8.5460   -5.1142    0.0000 C    0  0  0  0  0  0  0  0  0  0  0  0
    9.8806   -2.7814    0.0000 C    0  0  0  0  0  0  0  0  0  0  0  0
   10.3629   -4.6095    0.0000 C    0  0  0  0  0  0  0  0  0  0  0  0
    2.2991   -5.3160    0.0000 C    0  0  0  0  0  0  0  0  0  0  0  0
    1.1552   -3.3309    0.0000 C    0  0  0  0  0  0  0  0  0  0  0  0
    2.3103   -1.3346    0.0000 C    0  0  0  0  0  0  0  0  0  0  0  0
    4.6095   -1.3122    0.0000 C    0  0  0  0  0  0  0  0  0  0  0  0
   11.2153   -2.7814    0.0000 C    0  0  0  0  0  0  0  0  0  0  0  0
    7.2114   -5.1142    0.0000 C    0  0  0  0  0  0  0  0  0  0  0  0
    2.3103    0.0000    0.0000 C    0  0  0  0  0  0  0  0  0  0  0  0
    1.1552   -5.9777    0.0000 C    0  0  0  0  0  0  0  0  0  0  0  0
    0.0000   -3.9814    0.0000 C    0  0  0  0  0  0  0  0  0  0  0  0
    0.0000   -5.3160    0.0000 C    0  0  0  0  0  0  0  0  0  0  0  0
    5.8431   -7.2787    0.0000 Br   0  5  0  0  0  0  0  0  0  0  0  0
  1  2  1  0  0  0  0
  1  4  2  0  0  0  0
  1  6  1  0  0  0  0
  2  5  1  0  0  0  0
  2  7  1  0  0  0  0
  3  9  1  0  0  0  0
  3 10  1  0  0  0  0
  3 11  1  0  0  0  0
  3 12  1  0  0  0  0
  5 13  1  0  0  0  0
  5 14  2  0  0  0  0
  6  8  1  0  0  0  0
  7 15  1  0  0  0  0
  7 16  1  0  0  0  0
  8  9  1  0  0  0  0
 10 18  1  0  0  0  0
 11 17  1  0  0  0  0
 13 20  2  0  0  0  0
 14 21  1  0  0  0  0
 15 19  1  0  0  0  0
 20 22  1  0  0  0  0
 21 22  2  0  0  0  0
M  END
> <ID>
14011

> <Formula>
C19H32BrNO2

> <FW>
386.3669 (306.4623+79.9045)

> <DSSTox_CID>
28953

> <DSSTox_RID>
83218

> <DSSTox_GSID>
49027

> <DSSTox_FileID_Sort>
7894

> <TS_ChemName>
Diethylmethyl(2-3-methyl-2-phenylvaleryloxy)-ethyl)ammonium bromide

> <TS_ChemName_Synonyms>
DIETHYLMETHYL(2-(3-METHYL-2-PHENYLVALERYLOXY)-ETHYL)AMMONIUM BROMIDE

> <TS_CASRN>
90-22-2

> <CASRN_ChemName_Relationship>
primary

> <TS_Description>
single chemical compound

> <ChemNote>


> <STRUCTURE_Shown>
tested chemical

> <STRUCTURE_Formula>
C19H32BrNO2

> <STRUCTURE_MW>
386.3669

> <STRUCTURE_ChemType>
defined organic

> <STRUCTURE_DefinedOrganicForm>
salt

> <STRUCTURE_IUPAC>
N,N-diethyl-N-methyl-2-[(3-methyl-2-phenylpentanoyl)oxy]ethanaminium bromide

> <STRUCTURE_SMILES>
[Br-].CC[N+](C)(CC)CCOC(=O)C(C(C)CC)c1ccccc1

> <STRUCTURE_SMILES_Desalt>
CC[N+](C)(CC)CCOC(=O)C(C(C)CC)c1ccccc1

> <Substance_modify_yyyymmdd>
20111204

$$$$
