90-33-5
ChemmineR-0915142007XD

 13 14  0  0  0  0  0  0  0  0  1 V2000
    5.7578   -3.3248    0.0000 C   0  0  0  0  0  0  0  0  0  0  0  0
    6.9122   -3.9883    0.0000 O   0  0  0  0  0  0  0  0  0  0  0  0
    4.6104   -3.9883    0.0000 C   0  0  0  0  0  0  0  0  0  0  0  0
    3.4561   -3.3248    0.0000 C   0  0  0  0  0  0  0  0  0  0  0  0
    2.3018   -3.9883    0.0000 O   0  0  0  0  0  0  0  0  0  0  0  0
    1.1543   -3.3248    0.0000 C   0  0  0  0  0  0  0  0  0  0  0  0
    0.0000   -3.9883    0.0000 O   0  0  0  0  0  0  0  0  0  0  0  0
    1.1543   -1.9907    0.0000 C   0  0  0  0  0  0  0  0  0  0  0  0
    2.3018   -1.3271    0.0000 C   0  0  0  0  0  0  0  0  0  0  0  0
    2.3018    0.0000    0.0000 C   0  0  0  0  0  0  0  0  0  0  0  0
    3.4561   -1.9907    0.0000 C   0  0  0  0  0  0  0  0  0  0  0  0
    4.6104   -1.3271    0.0000 C   0  0  0  0  0  0  0  0  0  0  0  0
    5.7578   -1.9907    0.0000 C   0  0  0  0  0  0  0  0  0  0  0  0
  1  2  1  0  0  0  0
  1  3  2  0  0  0  0
  1 13  1  0  0  0  0
  3  4  1  0  0  0  0
  4  5  1  0  0  0  0
  4 11  2  0  0  0  0
  5  6  1  0  0  0  0
  6  7  2  0  0  0  0
  6  8  1  0  0  0  0
  8  9  2  0  0  0  0
  9 10  1  0  0  0  0
  9 11  1  0  0  0  0
 11 12  1  0  0  0  0
 12 13  2  0  0  0  0
M  END
> <ID>
4337

> <Formula>
C10H8O3

> <FW>
176.1687

> <DSSTox_CID>
5670

> <DSSTox_RID>
77877

> <DSSTox_GSID>
25670

> <DSSTox_FileID_Sort>
2560

> <TS_ChemName>
4-Methylumbelliferone

> <TS_ChemName_Synonyms>
7-Hydroxy-4-methyl-chromen-2-one (4-Methylumbelliferone) (beta-Methylumbelliferone)

> <TS_CASRN>
90-33-5

> <CASRN_ChemName_Relationship>
primary

> <TS_Description>
single chemical compound

> <ChemNote>


> <STRUCTURE_Shown>
tested chemical

> <STRUCTURE_Formula>
C10H8O3

> <STRUCTURE_MW>
176.1687

> <STRUCTURE_ChemType>
defined organic

> <STRUCTURE_DefinedOrganicForm>
parent

> <STRUCTURE_IUPAC>
7-hydroxy-4-methyl-2H-chromen-2-one

> <STRUCTURE_SMILES>
Oc1ccc2c(c1)OC(=O)C=C2C

> <STRUCTURE_SMILES_Desalt>
Oc1ccc2c(c1)OC(=O)C=C2C

> <Substance_modify_yyyymmdd>
20080429

$$$$
