90-44-8
ChemmineR-0915142007XD

 15 17  0  0  0  0  0  0  0  0  1 V2000
    3.4295   -1.3222    0.0000 C   0  0  0  0  0  0  0  0  0  0  0  0
    4.5933   -1.9627    0.0000 C   0  0  0  0  0  0  0  0  0  0  0  0
    2.2932   -1.9764    0.0000 C   0  0  0  0  0  0  0  0  0  0  0  0
    4.5933   -3.3331    0.0000 C   0  0  0  0  0  0  0  0  0  0  0  0
    2.2932   -3.3193    0.0000 C   0  0  0  0  0  0  0  0  0  0  0  0
    3.4295   -3.9735    0.0000 C   0  0  0  0  0  0  0  0  0  0  0  0
    3.4295    0.0000    0.0000 O   0  0  0  0  0  0  0  0  0  0  0  0
    5.7365   -1.3084    0.0000 C   0  0  0  0  0  0  0  0  0  0  0  0
    1.1501   -1.3222    0.0000 C   0  0  0  0  0  0  0  0  0  0  0  0
    5.7365   -3.9873    0.0000 C   0  0  0  0  0  0  0  0  0  0  0  0
    1.1501   -3.9735    0.0000 C   0  0  0  0  0  0  0  0  0  0  0  0
    6.8866   -1.9627    0.0000 C   0  0  0  0  0  0  0  0  0  0  0  0
    0.0000   -1.9627    0.0000 C   0  0  0  0  0  0  0  0  0  0  0  0
    6.8866   -3.3469    0.0000 C   0  0  0  0  0  0  0  0  0  0  0  0
    0.0000   -3.3331    0.0000 C   0  0  0  0  0  0  0  0  0  0  0  0
  1  2  1  0  0  0  0
  1  3  1  0  0  0  0
  1  7  2  0  0  0  0
  2  4  2  0  0  0  0
  2  8  1  0  0  0  0
  3  5  2  0  0  0  0
  3  9  1  0  0  0  0
  4 10  1  0  0  0  0
  4  6  1  0  0  0  0
  5  6  1  0  0  0  0
  5 11  1  0  0  0  0
  8 12  2  0  0  0  0
  9 13  2  0  0  0  0
 10 14  2  0  0  0  0
 11 15  2  0  0  0  0
 12 14  1  0  0  0  0
 13 15  1  0  0  0  0
M  END
> <ID>
14295

> <Formula>
C14H10O

> <FW>
194.2286

> <DSSTox_CID>
29391

> <DSSTox_RID>
83506

> <DSSTox_GSID>
49431

> <DSSTox_FileID_Sort>
8181

> <TS_ChemName>
Anthrone

> <TS_ChemName_Synonyms>


> <TS_CASRN>
90-44-8

> <CASRN_ChemName_Relationship>
primary

> <TS_Description>
single chemical compound

> <ChemNote>


> <STRUCTURE_Shown>
tested chemical

> <STRUCTURE_Formula>
C14H10O

> <STRUCTURE_MW>
194.2286

> <STRUCTURE_ChemType>
defined organic

> <STRUCTURE_DefinedOrganicForm>
parent

> <STRUCTURE_IUPAC>
anthracen-9(10H)-one

> <STRUCTURE_SMILES>
O=C1c3ccccc3Cc2ccccc12

> <STRUCTURE_SMILES_Desalt>
O=C1c3ccccc3Cc2ccccc12

> <Substance_modify_yyyymmdd>
20111204

$$$$
