90-41-5
ChemmineR-0915142007XD

 13 14  0  0  0  0  0  0  0  0  1 V2000
    2.6584   -1.1535    0.0000 C   0  0  0  0  0  0  0  0  0  0  0  0
    3.9842   -1.1535    0.0000 C   0  0  0  0  0  0  0  0  0  0  0  0
    1.9888   -2.3070    0.0000 C   0  0  0  0  0  0  0  0  0  0  0  0
    1.9888    0.0000    0.0000 C   0  0  0  0  0  0  0  0  0  0  0  0
    4.6405    0.0000    0.0000 C   0  0  0  0  0  0  0  0  0  0  0  0
    4.6405   -2.3070    0.0000 C   0  0  0  0  0  0  0  0  0  0  0  0
    0.6563   -2.3070    0.0000 C   0  0  0  0  0  0  0  0  0  0  0  0
    5.9730    0.0000    0.0000 C   0  0  0  0  0  0  0  0  0  0  0  0
    5.9730   -2.3070    0.0000 C   0  0  0  0  0  0  0  0  0  0  0  0
    0.6563    0.0000    0.0000 C   0  0  0  0  0  0  0  0  0  0  0  0
    0.0000   -1.1535    0.0000 C   0  0  0  0  0  0  0  0  0  0  0  0
    6.6294   -1.1535    0.0000 C   0  0  0  0  0  0  0  0  0  0  0  0
    2.6584   -3.4605    0.0000 N   0  0  0  0  0  0  0  0  0  0  0  0
  1  2  1  0  0  0  0
  1  3  2  0  0  0  0
  1  4  1  0  0  0  0
  2  5  2  0  0  0  0
  2  6  1  0  0  0  0
  3  7  1  0  0  0  0
  3 13  1  0  0  0  0
  4 10  2  0  0  0  0
  5  8  1  0  0  0  0
  6  9  2  0  0  0  0
  7 11  2  0  0  0  0
  8 12  2  0  0  0  0
  9 12  1  0  0  0  0
 10 11  1  0  0  0  0
M  END
> <ID>
6263

> <Formula>
C12H11N

> <FW>
169.2224

> <DSSTox_CID>
10189

> <DSSTox_RID>
78839

> <DSSTox_GSID>
30189

> <DSSTox_FileID_Sort>
3521

> <TS_ChemName>
2-Biphenylamine

> <TS_ChemName_Synonyms>
2-Biphenylamine (2-Aminobiphenyl)

> <TS_CASRN>
90-41-5

> <CASRN_ChemName_Relationship>
primary

> <TS_Description>
single chemical compound

> <ChemNote>


> <STRUCTURE_Shown>
tested chemical

> <STRUCTURE_Formula>
C12H11N

> <STRUCTURE_MW>
169.2224

> <STRUCTURE_ChemType>
defined organic

> <STRUCTURE_DefinedOrganicForm>
parent

> <STRUCTURE_IUPAC>
biphenyl-2-amine

> <STRUCTURE_SMILES>
Nc2ccccc2c1ccccc1

> <STRUCTURE_SMILES_Desalt>
Nc2ccccc2c1ccccc1

> <Substance_modify_yyyymmdd>
20080429

$$$$
