90-42-6
ChemmineR-0915142007XD

 13 14  0  0  0  0  0  0  0  0  1 V2000
    2.6577   -2.2989    0.0000 C   0  0  0  0  0  0  0  0  0  0  0  0
    1.9999   -3.4551    0.0000 C   0  0  0  0  0  0  0  0  0  0  0  0
    1.9999   -1.1495    0.0000 C   0  0  0  0  0  0  0  0  0  0  0  0
    0.6711   -3.4551    0.0000 C   0  0  0  0  0  0  0  0  0  0  0  0
    0.6711   -1.1495    0.0000 C   0  0  0  0  0  0  0  0  0  0  0  0
    0.0000   -2.2989    0.0000 C   0  0  0  0  0  0  0  0  0  0  0  0
    3.9866   -2.2989    0.0000 C   0  0  0  0  0  0  0  0  0  0  0  0
    4.6577   -1.1495    0.0000 C   0  0  0  0  0  0  0  0  0  0  0  0
    4.6577   -3.4551    0.0000 C   0  0  0  0  0  0  0  0  0  0  0  0
    5.9866   -1.1495    0.0000 C   0  0  0  0  0  0  0  0  0  0  0  0
    5.9866   -3.4551    0.0000 C   0  0  0  0  0  0  0  0  0  0  0  0
    6.6443   -2.2989    0.0000 C   0  0  0  0  0  0  0  0  0  0  0  0
    3.9866    0.0000    0.0000 O   0  0  0  0  0  0  0  0  0  0  0  0
  1  2  1  0  0  0  0
  1  3  1  0  0  0  0
  1  7  1  0  0  0  0
  2  4  1  0  0  0  0
  3  5  1  0  0  0  0
  4  6  1  0  0  0  0
  5  6  1  0  0  0  0
  7  8  1  0  0  0  0
  7  9  1  0  0  0  0
  8 10  1  0  0  0  0
  8 13  2  0  0  0  0
  9 11  1  0  0  0  0
 10 12  1  0  0  0  0
 11 12  1  0  0  0  0
M  END
> <ID>
12566

> <Formula>
C12H20O

> <FW>
180.2866

> <DSSTox_CID>
27424

> <DSSTox_RID>
82337

> <DSSTox_GSID>
47424

> <DSSTox_FileID_Sort>
7018

> <TS_ChemName>
1,1'-Bi(cyclohexyl)-2-one

> <TS_ChemName_Synonyms>
Lavamenthe

> <TS_CASRN>
90-42-6

> <CASRN_ChemName_Relationship>
primary

> <TS_Description>
single chemical compound

> <ChemNote>


> <STRUCTURE_Shown>
tested chemical

> <STRUCTURE_Formula>
C12H20O

> <STRUCTURE_MW>
180.2866

> <STRUCTURE_ChemType>
defined organic

> <STRUCTURE_DefinedOrganicForm>
parent

> <STRUCTURE_IUPAC>
1,1'-bi(cyclohexyl)-2-one

> <STRUCTURE_SMILES>
O=C1CCCCC1C2CCCCC2

> <STRUCTURE_SMILES_Desalt>
O=C1CCCCC1C2CCCCC2

> <Substance_modify_yyyymmdd>
20100619

$$$$
