90-51-7
ChemmineR-0915142007XD

 16 17  0  0  0  0  0  0  0  0  1 V2000
    3.4351   -1.7894    0.0000 C   0  0  0  0  0  0  0  0  0  0  0  0
    3.4351   -3.1156    0.0000 C   0  0  0  0  0  0  0  0  0  0  0  0
    2.2847   -1.1184    0.0000 C   0  0  0  0  0  0  0  0  0  0  0  0
    2.2847   -3.7866    0.0000 C   0  0  0  0  0  0  0  0  0  0  0  0
    4.5535   -3.7866    0.0000 C   0  0  0  0  0  0  0  0  0  0  0  0
    4.5535   -1.1184    0.0000 C   0  0  0  0  0  0  0  0  0  0  0  0
    5.7039   -1.7894    0.0000 C   0  0  0  0  0  0  0  0  0  0  0  0
    5.7039   -3.1156    0.0000 C   0  0  0  0  0  0  0  0  0  0  0  0
    1.1344   -3.1156    0.0000 C   0  0  0  0  0  0  0  0  0  0  0  0
    1.1344   -1.7894    0.0000 C   0  0  0  0  0  0  0  0  0  0  0  0
    6.8702   -1.1184    0.0000 S   0  0  0  0  0  0  0  0  0  0  0  0
    7.5892   -2.3966    0.0000 O   0  0  0  0  0  0  0  0  0  0  0  0
    7.9886   -0.4793    0.0000 O   0  0  0  0  0  0  0  0  0  0  0  0
    6.2311    0.0000    0.0000 O   0  0  0  0  0  0  0  0  0  0  0  0
    0.0000   -3.7866    0.0000 N   0  0  0  0  0  0  0  0  0  0  0  0
    4.5535   -5.1127    0.0000 O   0  0  0  0  0  0  0  0  0  0  0  0
  1  2  2  0  0  0  0
  1  3  1  0  0  0  0
  1  6  1  0  0  0  0
  2  4  1  0  0  0  0
  2  5  1  0  0  0  0
  3 10  2  0  0  0  0
  4  9  2  0  0  0  0
  5  8  2  0  0  0  0
  5 16  1  0  0  0  0
  6  7  2  0  0  0  0
  7  8  1  0  0  0  0
  7 11  1  0  0  0  0
  9 10  1  0  0  0  0
  9 15  1  0  0  0  0
 11 12  2  0  0  0  0
 11 13  1  0  0  0  0
 11 14  2  0  0  0  0
M  END
> <ID>
4719

> <Formula>
C10H9NO4S

> <FW>
239.2478

> <DSSTox_CID>
6547

> <DSSTox_RID>
78145

> <DSSTox_GSID>
26547

> <DSSTox_FileID_Sort>
2828

> <TS_ChemName>
6-Amino-4-hydroxynaphthalene-2-sulfonic acid

> <TS_ChemName_Synonyms>


> <TS_CASRN>
90-51-7

> <CASRN_ChemName_Relationship>
primary

> <TS_Description>
single chemical compound

> <ChemNote>


> <STRUCTURE_Shown>
tested chemical

> <STRUCTURE_Formula>
C10H9NO4S

> <STRUCTURE_MW>
239.2478

> <STRUCTURE_ChemType>
defined organic

> <STRUCTURE_DefinedOrganicForm>
parent

> <STRUCTURE_IUPAC>
6-amino-4-hydroxynaphthalene-2-sulfonic acid

> <STRUCTURE_SMILES>
O=S(=O)(O)c1cc(O)c2cc(N)ccc2c1

> <STRUCTURE_SMILES_Desalt>
O=S(=O)(O)c1cc(O)c2cc(N)ccc2c1

> <Substance_modify_yyyymmdd>
20080429

$$$$
