90-54-0
ChemmineR-0915142007XD

 24 25  0  0  0  0  0  0  0  0  1 V2000
    2.2798   -2.0491    0.0000 C   0  0  0  0  0  0  0  0  0  0  0  0
    3.4612   -1.3383    0.0000 C   0  0  0  0  0  0  0  0  0  0  0  0
    2.2798   -3.3689    0.0000 C   0  0  0  0  0  0  0  0  0  0  0  0
    3.4612    0.0000    0.0000 O   0  0  0  0  0  0  0  0  0  0  0  0
    4.5965   -2.0306    0.0000 C   0  0  0  0  0  0  0  0  0  0  0  0
    5.7780   -5.4457    0.0000 N   0  0  0  0  0  0  0  0  0  0  0  0
    5.7687   -1.3937    0.0000 C   0  0  0  0  0  0  0  0  0  0  0  0
    3.4612   -4.0704    0.0000 O   0  0  0  0  0  0  0  0  0  0  0  0
    6.8948   -2.0583    0.0000 C   0  0  0  0  0  0  0  0  0  0  0  0
    4.6611   -3.4520    0.0000 C   0  0  0  0  0  0  0  0  0  0  0  0
    1.1630   -1.3937    0.0000 C   0  0  0  0  0  0  0  0  0  0  0  0
    5.7780   -4.1166    0.0000 C   0  0  0  0  0  0  0  0  0  0  0  0
    1.1630   -4.0243    0.0000 C   0  0  0  0  0  0  0  0  0  0  0  0
    4.6427   -6.1010    0.0000 C   0  0  0  0  0  0  0  0  0  0  0  0
    6.9317   -6.1010    0.0000 C   0  0  0  0  0  0  0  0  0  0  0  0
    6.8948   -3.3874    0.0000 C   0  0  0  0  0  0  0  0  0  0  0  0
    8.0670   -1.4030    0.0000 C   0  0  0  0  0  0  0  0  0  0  0  0
    0.0000   -2.0306    0.0000 C   0  0  0  0  0  0  0  0  0  0  0  0
    3.4982   -5.4457    0.0000 C   0  0  0  0  0  0  0  0  0  0  0  0
    8.0670   -5.4457    0.0000 C   0  0  0  0  0  0  0  0  0  0  0  0
    0.0000   -3.3874    0.0000 C   0  0  0  0  0  0  0  0  0  0  0  0
    9.2300   -2.0767    0.0000 C   0  0  0  0  0  0  0  0  0  0  0  0
    8.0209   -4.0612    0.0000 C   0  0  0  0  0  0  0  0  0  0  0  0
    9.2300   -3.3874    0.0000 C   0  0  0  0  0  0  0  0  0  0  0  0
  1  2  1  0  0  0  0
  1  3  2  0  0  0  0
  1 11  1  0  0  0  0
  2  4  2  0  0  0  0
  2  5  1  0  0  0  0
  3  8  1  0  0  0  0
  3 13  1  0  0  0  0
  5  7  1  0  0  0  0
  6 12  1  0  0  0  0
  6 14  1  0  0  0  0
  6 15  1  0  0  0  0
  7  9  1  0  0  0  0
  8 10  1  0  0  0  0
  9 16  2  0  0  0  0
  9 17  1  0  0  0  0
 10 12  1  0  0  0  0
 11 18  2  0  0  0  0
 13 21  2  0  0  0  0
 14 19  1  0  0  0  0
 15 20  1  0  0  0  0
 16 23  1  0  0  0  0
 17 22  2  0  0  0  0
 18 21  1  0  0  0  0
 22 24  1  0  0  0  0
 23 24  2  0  0  0  0
M  END
> <ID>
11479

> <Formula>
C21H27NO2

> <FW>
325.4446

> <DSSTox_CID>
26181

> <DSSTox_RID>
81412

> <DSSTox_GSID>
46181

> <DSSTox_FileID_Sort>
6093

> <TS_ChemName>
Etafenone

> <TS_ChemName_Synonyms>


> <TS_CASRN>
90-54-0

> <CASRN_ChemName_Relationship>
primary

> <TS_Description>
single chemical compound

> <ChemNote>


> <STRUCTURE_Shown>
tested chemical

> <STRUCTURE_Formula>
C21H27NO2

> <STRUCTURE_MW>
325.4446

> <STRUCTURE_ChemType>
defined organic

> <STRUCTURE_DefinedOrganicForm>
parent

> <STRUCTURE_IUPAC>
1-{2-[2-(diethylamino)ethoxy]phenyl}-3-phenylpropan-1-one

> <STRUCTURE_SMILES>
CCN(CCOc2ccccc2C(=O)CCc1ccccc1)CC

> <STRUCTURE_SMILES_Desalt>
CCN(CCOc2ccccc2C(=O)CCc1ccccc1)CC

> <Substance_modify_yyyymmdd>
20110818

$$$$
