90-72-2
ChemmineR-0915142007XD

 19 19  0  0  0  0  0  0  0  0  1 V2000
    4.6079   -2.0013    0.0000 C   0  0  0  0  0  0  0  0  0  0  0  0
    4.6079   -0.6537    0.0000 O   0  0  0  0  0  0  0  0  0  0  0  0
    5.7618   -2.6550    0.0000 C   0  0  0  0  0  0  0  0  0  0  0  0
    3.4620   -2.6550    0.0000 C   0  0  0  0  0  0  0  0  0  0  0  0
    3.4620   -3.9865    0.0000 C   0  0  0  0  0  0  0  0  0  0  0  0
    5.7618   -3.9865    0.0000 C   0  0  0  0  0  0  0  0  0  0  0  0
    4.6079   -4.6563    0.0000 C   0  0  0  0  0  0  0  0  0  0  0  0
    6.9158   -2.0013    0.0000 C   0  0  0  0  0  0  0  0  0  0  0  0
    6.9158   -0.6537    0.0000 N   0  0  0  0  0  0  0  0  0  0  0  0
    8.0698    0.0000    0.0000 C   0  0  0  0  0  0  0  0  0  0  0  0
    5.7618    0.0000    0.0000 C   0  0  0  0  0  0  0  0  0  0  0  0
    4.6079   -5.9878    0.0000 C   0  0  0  0  0  0  0  0  0  0  0  0
    5.7618   -6.6415    0.0000 N   0  0  0  0  0  0  0  0  0  0  0  0
    5.7618   -7.9730    0.0000 C   0  0  0  0  0  0  0  0  0  0  0  0
    6.9158   -5.9878    0.0000 C   0  0  0  0  0  0  0  0  0  0  0  0
    2.3080   -2.0013    0.0000 C   0  0  0  0  0  0  0  0  0  0  0  0
    1.1540   -2.6550    0.0000 N   0  0  0  0  0  0  0  0  0  0  0  0
    0.0000   -2.0013    0.0000 C   0  0  0  0  0  0  0  0  0  0  0  0
    1.1540   -3.9865    0.0000 C   0  0  0  0  0  0  0  0  0  0  0  0
  1  2  1  0  0  0  0
  1  3  2  0  0  0  0
  1  4  1  0  0  0  0
  3  6  1  0  0  0  0
  3  8  1  0  0  0  0
  4  5  2  0  0  0  0
  4 16  1  0  0  0  0
  5  7  1  0  0  0  0
  6  7  2  0  0  0  0
  7 12  1  0  0  0  0
  8  9  1  0  0  0  0
  9 10  1  0  0  0  0
  9 11  1  0  0  0  0
 12 13  1  0  0  0  0
 13 14  1  0  0  0  0
 13 15  1  0  0  0  0
 16 17  1  0  0  0  0
 17 18  1  0  0  0  0
 17 19  1  0  0  0  0
M  END
> <ID>
4720

> <Formula>
C15H27N3O

> <FW>
265.3944

> <DSSTox_CID>
6548

> <DSSTox_RID>
78146

> <DSSTox_GSID>
26548

> <DSSTox_FileID_Sort>
2829

> <TS_ChemName>
2,4,6-Tris(dimethylaminomethyl)phenol

> <TS_ChemName_Synonyms>
2,4,6-Tris(dimethylaminomethyl)phenol (Phenol, 2,4,6-tris[(dimethylamino)methyl]-)

> <TS_CASRN>
90-72-2

> <CASRN_ChemName_Relationship>
primary

> <TS_Description>
single chemical compound

> <ChemNote>


> <STRUCTURE_Shown>
tested chemical

> <STRUCTURE_Formula>
C15H27N3O

> <STRUCTURE_MW>
265.3944

> <STRUCTURE_ChemType>
defined organic

> <STRUCTURE_DefinedOrganicForm>
parent

> <STRUCTURE_IUPAC>
2,4,6-tris[(dimethylamino)methyl]phenol

> <STRUCTURE_SMILES>
Oc1c(cc(cc1CN(C)C)CN(C)C)CN(C)C

> <STRUCTURE_SMILES_Desalt>
Oc1c(cc(cc1CN(C)C)CN(C)C)CN(C)C

> <Substance_modify_yyyymmdd>
20080429

$$$$
