90-86-8
ChemmineR-0915142007XD

 21 22  0  0  0  0  0  0  0  0  1 V2000
    1.1500   -1.9995    0.0000 C   0  0  0  0  0  0  0  0  0  0  0  0
    2.2999   -1.3261    0.0000 C   0  0  0  0  0  0  0  0  0  0  0  0
    3.4499   -1.9995    0.0000 N   0  0  0  0  0  0  0  0  0  0  0  0
    5.7601   -1.9995    0.0000 C   0  0  0  0  0  0  0  0  0  0  0  0
    6.9101   -1.3261    0.0000 C   0  0  0  0  0  0  0  0  0  0  0  0
    1.1500   -3.3255    0.0000 C   0  0  0  0  0  0  0  0  0  0  0  0
    0.0000   -1.3261    0.0000 O   0  0  0  0  0  0  0  0  0  0  0  0
    8.0600   -1.9995    0.0000 C   0  0  0  0  0  0  0  0  0  0  0  0
    4.6205   -1.3261    0.0000 C   0  0  0  0  0  0  0  0  0  0  0  0
    2.2999    0.0000    0.0000 C   0  0  0  0  0  0  0  0  0  0  0  0
    3.4499   -3.3255    0.0000 C   0  0  0  0  0  0  0  0  0  0  0  0
    2.2999   -3.9782    0.0000 C   0  0  0  0  0  0  0  0  0  0  0  0
    0.0000   -3.9782    0.0000 C   0  0  0  0  0  0  0  0  0  0  0  0
    9.2100   -1.3261    0.0000 C   0  0  0  0  0  0  0  0  0  0  0  0
    8.0600   -3.3255    0.0000 C   0  0  0  0  0  0  0  0  0  0  0  0
    2.2999   -5.3250    0.0000 C   0  0  0  0  0  0  0  0  0  0  0  0
    0.0000   -5.3250    0.0000 C   0  0  0  0  0  0  0  0  0  0  0  0
    9.2100   -3.9782    0.0000 C   0  0  0  0  0  0  0  0  0  0  0  0
   10.3599   -1.9995    0.0000 C   0  0  0  0  0  0  0  0  0  0  0  0
   10.3599   -3.3255    0.0000 C   0  0  0  0  0  0  0  0  0  0  0  0
    1.1500   -5.9777    0.0000 C   0  0  0  0  0  0  0  0  0  0  0  0
  1  2  1  0  0  0  0
  1  6  1  0  0  0  0
  1  7  1  0  0  0  0
  2  3  1  0  0  0  0
  2 10  1  0  0  0  0
  3  9  1  0  0  0  0
  3 11  1  0  0  0  0
  4  9  1  0  0  0  0
  4  5  2  0  0  0  0
  5  8  1  0  0  0  0
  6 12  1  0  0  0  0
  6 13  2  0  0  0  0
  8 14  2  0  0  0  0
  8 15  1  0  0  0  0
 12 16  2  0  0  0  0
 13 17  1  0  0  0  0
 14 19  1  0  0  0  0
 15 18  2  0  0  0  0
 16 21  1  0  0  0  0
 17 21  2  0  0  0  0
 18 20  1  0  0  0  0
 19 20  2  0  0  0  0
M  END
> <ID>
16249

> <Formula>
C19H23NO

> <FW>
281.392

> <DSSTox_CID>
31640

> <DSSTox_RID>
97524

> <DSSTox_GSID>
57851

> <DSSTox_FileID_Sort>
8591

> <TS_ChemName>
Cinnamedrine

> <TS_ChemName_Synonyms>


> <TS_CASRN>
90-86-8

> <CASRN_ChemName_Relationship>
primary

> <TS_Description>
single chemical compound

> <ChemNote>


> <STRUCTURE_Shown>
tested chemical

> <STRUCTURE_Formula>
C19H23NO

> <STRUCTURE_MW>
281.392

> <STRUCTURE_ChemType>
defined organic

> <STRUCTURE_DefinedOrganicForm>
parent

> <STRUCTURE_IUPAC>
2-{methyl[(2E)-3-phenylprop-2-en-1-yl]amino}-1-phenylpropan-1-ol

> <STRUCTURE_SMILES>
OC(C(C)N(C)C/C=C/c1ccccc1)c2ccccc2

> <STRUCTURE_SMILES_Desalt>
OC(C(C)N(C)C/C=C/c1ccccc1)c2ccccc2

> <Substance_modify_yyyymmdd>
20131018

$$$$
