90-98-2
ChemmineR-0915142007XD

 16 17  0  0  0  0  0  0  0  0  1 V2000
    4.6048   -1.3262    0.0000 C    0  0  0  0  0  0  0  0  0  0  0  0
    4.6048    0.0000    0.0000 O    0  0  0  0  0  0  0  0  0  0  0  0
    5.7560   -1.9893    0.0000 C    0  0  0  0  0  0  0  0  0  0  0  0
    6.9072   -1.3262    0.0000 C    0  0  0  0  0  0  0  0  0  0  0  0
    5.7560   -3.3247    0.0000 C    0  0  0  0  0  0  0  0  0  0  0  0
    8.0584   -1.9893    0.0000 C    0  0  0  0  0  0  0  0  0  0  0  0
    6.9072   -3.9878    0.0000 C    0  0  0  0  0  0  0  0  0  0  0  0
    8.0584   -3.3247    0.0000 C    0  0  0  0  0  0  0  0  0  0  0  0
    3.4536   -1.9893    0.0000 C    0  0  0  0  0  0  0  0  0  0  0  0
    3.4536   -3.3247    0.0000 C    0  0  0  0  0  0  0  0  0  0  0  0
    2.3024   -1.3262    0.0000 C    0  0  0  0  0  0  0  0  0  0  0  0
    2.3024   -3.9878    0.0000 C    0  0  0  0  0  0  0  0  0  0  0  0
    1.1512   -1.9893    0.0000 C    0  0  0  0  0  0  0  0  0  0  0  0
    1.1512   -3.3247    0.0000 C    0  0  0  0  0  0  0  0  0  0  0  0
    0.0000   -3.9878    0.0000 Cl   0  0  0  0  0  0  0  0  0  0  0  0
    9.2096   -3.9878    0.0000 Cl   0  0  0  0  0  0  0  0  0  0  0  0
  1  2  2  0  0  0  0
  1  3  1  0  0  0  0
  1  9  1  0  0  0  0
  3  4  2  0  0  0  0
  3  5  1  0  0  0  0
  4  6  1  0  0  0  0
  5  7  2  0  0  0  0
  6  8  2  0  0  0  0
  7  8  1  0  0  0  0
  8 16  1  0  0  0  0
  9 10  2  0  0  0  0
  9 11  1  0  0  0  0
 10 12  1  0  0  0  0
 11 13  2  0  0  0  0
 12 14  2  0  0  0  0
 13 14  1  0  0  0  0
 14 15  1  0  0  0  0
M  END
> <ID>
7374

> <Formula>
C13H8Cl2O

> <FW>
251.108

> <DSSTox_CID>
17626

> <DSSTox_RID>
79350

> <DSSTox_GSID>
37626

> <DSSTox_FileID_Sort>
4032

> <TS_ChemName>
4,4'-Dichlorobenzophenone

> <TS_ChemName_Synonyms>


> <TS_CASRN>
90-98-2

> <CASRN_ChemName_Relationship>
primary

> <TS_Description>
single chemical compound

> <ChemNote>


> <STRUCTURE_Shown>
tested chemical

> <STRUCTURE_Formula>
C13H8Cl2O

> <STRUCTURE_MW>
251.108

> <STRUCTURE_ChemType>
defined organic

> <STRUCTURE_DefinedOrganicForm>
parent

> <STRUCTURE_IUPAC>
bis(4-chlorophenyl)methanone

> <STRUCTURE_SMILES>
O=C(c1ccc(Cl)cc1)c2ccc(Cl)cc2

> <STRUCTURE_SMILES_Desalt>
O=C(c1ccc(Cl)cc1)c2ccc(Cl)cc2

> <Substance_modify_yyyymmdd>
20080429

$$$$
