900-95-8
ChemmineR-0915142007XD

 23 25  0  0  0  0  0  0  0  0  1 V2000
    0.0000   -4.2917    0.0000 C    0  0  0  0  0  0  0  0  0  0  0  0
    1.1749   -3.7450    0.0000 C    0  0  0  0  0  0  0  0  0  0  0  0
    1.1749   -2.4477    0.0000 O    0  0  0  0  0  0  0  0  0  0  0  0
    2.1703   -4.5773    0.0000 O    0  0  0  0  0  0  0  0  0  0  0  0
    3.8348   -4.2917    0.0000 Sn   0  0  0  0  0  0  0  0  0  0  0  0
    3.8348   -2.5946    0.0000 C    0  0  0  0  0  0  0  0  0  0  0  0
    2.7088   -1.9500    0.0000 C    0  0  0  0  0  0  0  0  0  0  0  0
    2.7088   -0.6527    0.0000 C    0  0  0  0  0  0  0  0  0  0  0  0
    3.8348    0.0000    0.0000 C    0  0  0  0  0  0  0  0  0  0  0  0
    4.9607   -0.6527    0.0000 C    0  0  0  0  0  0  0  0  0  0  0  0
    4.9607   -1.9500    0.0000 C    0  0  0  0  0  0  0  0  0  0  0  0
    5.1321   -4.2101    0.0000 C    0  0  0  0  0  0  0  0  0  0  0  0
    5.7195   -3.0515    0.0000 C    0  0  0  0  0  0  0  0  0  0  0  0
    7.0168   -2.9781    0.0000 C    0  0  0  0  0  0  0  0  0  0  0  0
    7.7267   -4.0632    0.0000 C    0  0  0  0  0  0  0  0  0  0  0  0
    7.1474   -5.2218    0.0000 C    0  0  0  0  0  0  0  0  0  0  0  0
    5.8501   -5.2953    0.0000 C    0  0  0  0  0  0  0  0  0  0  0  0
    3.9898   -5.5808    0.0000 C    0  0  0  0  0  0  0  0  0  0  0  0
    5.1810   -6.0949    0.0000 C    0  0  0  0  0  0  0  0  0  0  0  0
    5.3279   -7.3840    0.0000 C    0  0  0  0  0  0  0  0  0  0  0  0
    4.2917   -8.1591    0.0000 C    0  0  0  0  0  0  0  0  0  0  0  0
    3.0923   -7.6451    0.0000 C    0  0  0  0  0  0  0  0  0  0  0  0
    2.9454   -6.3559    0.0000 C    0  0  0  0  0  0  0  0  0  0  0  0
  1  2  1  0  0  0  0
  2  3  2  0  0  0  0
  2  4  1  0  0  0  0
  4  5  1  0  0  0  0
  5  6  1  0  0  0  0
  5 12  1  0  0  0  0
  5 18  1  0  0  0  0
  6  7  2  0  0  0  0
  6 11  1  0  0  0  0
  7  8  1  0  0  0  0
  8  9  2  0  0  0  0
  9 10  1  0  0  0  0
 10 11  2  0  0  0  0
 12 13  2  0  0  0  0
 12 17  1  0  0  0  0
 13 14  1  0  0  0  0
 14 15  2  0  0  0  0
 15 16  1  0  0  0  0
 16 17  2  0  0  0  0
 18 19  2  0  0  0  0
 18 23  1  0  0  0  0
 19 20  1  0  0  0  0
 20 21  2  0  0  0  0
 21 22  1  0  0  0  0
 22 23  2  0  0  0  0
M  END
> <ID>
1353

> <Formula>
C20H18O2Sn

> <FW>
409.0657

> <DSSTox_CID>
1408

> <DSSTox_RID>
76144

> <DSSTox_GSID>
21408

> <DSSTox_FileID_Sort>
828

> <TS_ChemName>
Triphenyltin acetate

> <TS_ChemName_Synonyms>
Triphenyltin acetate (Fentin acetate)

> <TS_CASRN>
900-95-8

> <CASRN_ChemName_Relationship>
primary

> <TS_Description>
single chemical compound

> <ChemNote>


> <STRUCTURE_Shown>
tested chemical

> <STRUCTURE_Formula>
C20H18O2Sn

> <STRUCTURE_MW>
409.0657

> <STRUCTURE_ChemType>
organometallic

> <STRUCTURE_DefinedOrganicForm>


> <STRUCTURE_IUPAC>
(acetyloxy)(triphenyl)stannane

> <STRUCTURE_SMILES>
CC(=O)O[Sn](c1ccccc1)(c2ccccc2)c3ccccc3

> <STRUCTURE_SMILES_Desalt>
CC(=O)O[Sn](c1ccccc1)(c2ccccc2)c3ccccc3

> <Substance_modify_yyyymmdd>
20080429

$$$$
