9002-96-4
ChemmineR-0915142007XD

 41 42  0  0  1  0  0  0  0  0  1 V2000
   12.7509   -2.0196    0.0000 C   0  0  0  0  0  0  0  0  0  0  0  0
   10.3695   -3.3460    0.0000 C   0  0  0  0  0  0  0  0  0  0  0  0
   12.7509   -3.3158    0.0000 C   0  0  0  0  0  0  0  0  0  0  0  0
   11.5451   -3.9790    0.0000 C   0  0  0  0  0  0  0  0  0  0  0  0
   11.5451   -1.3565    0.0000 C   0  0  0  0  0  0  0  0  0  0  0  0
   10.3695   -1.9895    0.0000 C   0  0  0  0  0  0  0  0  0  0  0  0
   13.8662   -1.3565    0.0000 O   0  0  0  0  0  0  0  0  0  0  0  0
    9.3145   -4.0996    0.0000 O   0  0  0  0  0  0  0  0  0  0  0  0
   13.8662   -3.9790    0.0000 C   0  0  0  0  0  0  0  0  0  0  0  0
    8.0484   -3.4665    0.0000 C   0  0  0  0  0  0  0  0  0  0  0  0
   15.1021   -1.9895    0.0000 C   0  0  0  0  0  0  0  0  0  0  0  0
    4.6723   -4.1599    0.0000 C   0  0  0  0  0  0  0  0  0  0  0  0
    8.0484   -2.1704    0.0000 O   0  0  0  0  0  0  0  0  0  0  0  0
    4.6723   -5.4560    0.0000 O   0  0  0  0  0  0  0  0  0  0  0  0
   15.1021   -3.3460    0.0000 C   0  0  0  0  0  0  0  0  0  0  0  0
    6.9632   -4.0996    0.0000 C   0  0  0  0  0  0  0  0  0  0  0  0
    5.8479   -3.4665    0.0000 C   0  0  0  0  0  0  0  0  0  0  0  0
    3.4967   -3.5268    0.0000 O   0  0  0  0  0  0  0  0  0  0  0  0
   11.5451    0.0000    0.0000 C   0  0  0  0  0  0  0  0  0  0  0  0
   11.5451   -5.3355    0.0000 C   0  0  0  0  0  0  0  0  0  0  0  0
    9.3145   -1.2962    0.0000 C   0  0  0  0  0  0  0  0  0  0  0  0
   16.2777   -1.2962    0.0000 C   0  0  0  0  0  0  0  0  0  0  0  0
   17.3629   -1.9594    0.0000 C   0  0  0  0  0  0  0  0  0  0  0  0
   21.9749   -1.9292    0.0000 C   0  0  0  0  0  0  0  0  0  0  0  0
   26.6774   -1.8689    0.0000 C   0  0  0  0  0  0  0  0  0  0  0  0
   15.1021   -0.6029    0.0000 C   0  0  0  0  0  0  0  0  0  0  0  0
   27.7927   -1.2058    0.0000 C   0  0  0  0  0  0  0  0  0  0  0  0
   18.5084   -1.2962    0.0000 C   0  0  0  0  0  0  0  0  0  0  0  0
   25.5017   -1.2058    0.0000 C   0  0  0  0  0  0  0  0  0  0  0  0
   20.8294   -1.2962    0.0000 C   0  0  0  0  0  0  0  0  0  0  0  0
   23.1505   -1.2359    0.0000 C   0  0  0  0  0  0  0  0  0  0  0  0
   19.6840   -1.9292    0.0000 C   0  0  0  0  0  0  0  0  0  0  0  0
   24.3563   -1.9292    0.0000 C   0  0  0  0  0  0  0  0  0  0  0  0
   28.9683   -1.8689    0.0000 C   0  0  0  0  0  0  0  0  0  0  0  0
   28.9683   -3.1048    0.0000 C   0  0  0  0  0  0  0  0  0  0  0  0
   30.1439   -1.1756    0.0000 C   0  0  0  0  0  0  0  0  0  0  0  0
   19.6840   -3.1651    0.0000 C   0  0  0  0  0  0  0  0  0  0  0  0
   24.3563   -3.1651    0.0000 C   0  0  0  0  0  0  0  0  0  0  0  0
    2.3512   -4.2503    0.0000 C   0  0  0  0  0  0  0  0  0  0  0  0
    1.1455   -3.6474    0.0000 C   0  0  0  0  0  0  0  0  0  0  0  0
    0.0000   -4.3709    0.0000 O   0  0  0  0  0  0  0  0  0  0  0  0
  1  3  2  0  0  0  0
  1  5  1  0  0  0  0
  1  7  1  0  0  0  0
  2  6  1  0  0  0  0
  2  8  1  0  0  0  0
  2  4  2  0  0  0  0
  3  4  1  0  0  0  0
  3  9  1  0  0  0  0
  4 20  1  0  0  0  0
  5  6  2  0  0  0  0
  5 19  1  0  0  0  0
  6 21  1  0  0  0  0
  7 11  1  0  0  0  0
  8 10  1  0  0  0  0
  9 15  1  0  0  0  0
 10 13  2  0  0  0  0
 10 16  1  0  0  0  0
 11 15  1  0  0  0  0
 11 22  1  6  0  0  0
 11 26  1  0  0  0  0
 12 17  1  0  0  0  0
 12 14  2  0  0  0  0
 12 18  1  0  0  0  0
 16 17  1  0  0  0  0
 18 39  1  0  0  0  0
 22 23  1  0  0  0  0
 23 28  1  0  0  0  0
 24 30  1  0  0  0  0
 24 31  1  0  0  0  0
 25 29  1  0  0  0  0
 25 27  1  0  0  0  0
 27 34  1  0  0  0  0
 28 32  1  0  0  0  0
 29 33  1  0  0  0  0
 30 32  1  0  0  0  0
 31 33  1  0  0  0  0
 32 37  1  1  0  0  0
 33 38  1  1  0  0  0
 34 35  1  0  0  0  0
 34 36  1  0  0  0  0
 39 40  1  0  0  0  0
 40 41  1  0  0  0  0
M  END
> <ID>
13620

> <Formula>
C35H58O6

> <FW>
574.8314

> <DSSTox_CID>
28549

> <DSSTox_RID>
82821

> <DSSTox_GSID>
48623

> <DSSTox_FileID_Sort>
7498

> <TS_ChemName>
Tocophersolan

> <TS_ChemName_Synonyms>
Tocofersolan

> <TS_CASRN>
9002-96-4

> <CASRN_ChemName_Relationship>
primary

> <TS_Description>
polymer

> <ChemNote>
approx. 1000 ethylene glycol units; stereochem

> <STRUCTURE_Shown>
monomer of polymer

> <STRUCTURE_Formula>
C35H58O6

> <STRUCTURE_MW>
574.8314

> <STRUCTURE_ChemType>
defined organic

> <STRUCTURE_DefinedOrganicForm>
parent

> <STRUCTURE_IUPAC>
2-hydroxyethyl (2R)-2,5,7,8-tetramethyl-2-[(4R,8R)-4,8,12-trimethyltridecyl]-3,4-dihydro-2H-chromen-6-yl butanedioate

> <STRUCTURE_SMILES>
O=C(OCCO)CCC(=O)Oc2c(C)c(C)c1O[C@@](C)(CCc1c2C)CCC[C@H](C)CCC[C@H](C)CCCC(C)C

> <STRUCTURE_SMILES_Desalt>
O=C(OCCO)CCC(=O)Oc2c(C)c(C)c1O[C@@](C)(CCc1c2C)CCC[C@H](C)CCC[C@H](C)CCCC(C)C

> <Substance_modify_yyyymmdd>
20111015

$$$$
