9002-93-1
ChemmineR-0915142007XD

 18 18  0  0  0  0  0  0  0  0  1 V2000
    5.7574   -0.6731    0.0000 C   0  0  0  0  0  0  0  0  0  0  0  0
    5.7574   -2.0089    0.0000 C   0  0  0  0  0  0  0  0  0  0  0  0
    4.6080    0.0000    0.0000 C   0  0  0  0  0  0  0  0  0  0  0  0
    4.6080   -2.6612    0.0000 C   0  0  0  0  0  0  0  0  0  0  0  0
    3.4586   -0.6731    0.0000 C   0  0  0  0  0  0  0  0  0  0  0  0
    3.4586   -2.0089    0.0000 C   0  0  0  0  0  0  0  0  0  0  0  0
    6.9172    0.0000    0.0000 O   0  0  0  0  0  0  0  0  0  0  0  0
    8.0666   -0.6627    0.0000 C   0  0  0  0  0  0  0  0  0  0  0  0
    9.2160    0.0000    0.0000 C   0  0  0  0  0  0  0  0  0  0  0  0
   10.3550   -0.6627    0.0000 O   0  0  0  0  0  0  0  0  0  0  0  0
    2.3092   -2.6612    0.0000 C   0  0  0  0  0  0  0  0  0  0  0  0
    1.1494   -1.9882    0.0000 C   0  0  0  0  0  0  0  0  0  0  0  0
    2.3092   -3.9867    0.0000 C   0  0  0  0  0  0  0  0  0  0  0  0
    3.4586   -3.3343    0.0000 C   0  0  0  0  0  0  0  0  0  0  0  0
    1.1494   -4.6494    0.0000 C   0  0  0  0  0  0  0  0  0  0  0  0
    1.1494   -5.9748    0.0000 C   0  0  0  0  0  0  0  0  0  0  0  0
    0.0000   -3.9867    0.0000 C   0  0  0  0  0  0  0  0  0  0  0  0
    2.3092   -5.3225    0.0000 C   0  0  0  0  0  0  0  0  0  0  0  0
  1  2  1  0  0  0  0
  1  3  2  0  0  0  0
  1  7  1  0  0  0  0
  2  4  2  0  0  0  0
  3  5  1  0  0  0  0
  4  6  1  0  0  0  0
  5  6  2  0  0  0  0
  6 11  1  0  0  0  0
  7  8  1  0  0  0  0
  8  9  1  0  0  0  0
  9 10  1  0  0  0  0
 11 12  1  0  0  0  0
 11 13  1  0  0  0  0
 11 14  1  0  0  0  0
 13 15  1  0  0  0  0
 15 16  1  0  0  0  0
 15 17  1  0  0  0  0
 15 18  1  0  0  0  0
M  END
> <ID>
6658

> <Formula>
C16H26O2

> <FW>
250.3764

> <DSSTox_CID>
14085

> <DSSTox_RID>
79110

> <DSSTox_GSID>
34085

> <DSSTox_FileID_Sort>
3792

> <TS_ChemName>
Triton X-100

> <TS_ChemName_Synonyms>
Poly(oxy-1,2-ethanediyl), alpha-[4-(1,1,3,3-tetramethylbutyl)phenyl]-omega-hydroxy-

> <TS_CASRN>
9002-93-1

> <CASRN_ChemName_Relationship>
primary

> <TS_Description>
polymer

> <ChemNote>
polymer containing on average 9.5 repeating ethoxy (oxy-1,2-ethanediyl) groups; ILL-DEFINED FORMULA - POLYDISPERSED COMPOSITION; Generic CASRN

> <STRUCTURE_Shown>
monomer of polymer

> <STRUCTURE_Formula>
C16H26O2

> <STRUCTURE_MW>
250.3764

> <STRUCTURE_ChemType>
defined organic

> <STRUCTURE_DefinedOrganicForm>
parent

> <STRUCTURE_IUPAC>
2-[4-(2,4,4-trimethylpentan-2-yl)phenoxy]ethanol

> <STRUCTURE_SMILES>
CC(C)(C)CC(C)(C)c1ccc(OCCO)cc1

> <STRUCTURE_SMILES_Desalt>
CC(C)(C)CC(C)(C)c1ccc(OCCO)cc1

> <Substance_modify_yyyymmdd>
20120927

$$$$
