90038-01-0
ChemmineR-0915142007XD

 15 15  0  0  0  0  0  0  0  0  1 V2000
    5.8638   -3.8980    0.0000 N    0  0  0  0  0  0  0  0  0  0  0  0
    2.3024   -3.3325    0.0000 C    0  0  0  0  0  0  0  0  0  0  0  0
    4.6722   -3.4806    0.0000 C    0  0  0  0  0  0  0  0  0  0  0  0
    2.3024   -1.9995    0.0000 C    0  0  0  0  0  0  0  0  0  0  0  0
    5.9783   -1.7706    0.0000 N    0  0  0  0  0  0  0  0  0  0  0  0
    6.7323   -2.8814    0.0000 C    0  0  0  0  0  0  0  0  0  0  0  0
    3.4604   -4.0259    0.0000 C    0  0  0  0  0  0  0  0  0  0  0  0
    4.6722   -2.1745    0.0000 C    0  0  0  0  0  0  0  0  0  0  0  0
    1.1445   -1.3397    0.0000 C    0  0  0  0  0  0  0  0  0  0  0  0
    1.1445   -3.9922    0.0000 C    0  0  0  0  0  0  0  0  0  0  0  0
    0.0000   -3.3325    0.0000 C    0  0  0  0  0  0  0  0  0  0  0  0
    3.4604   -1.3195    0.0000 C    0  0  0  0  0  0  0  0  0  0  0  0
    0.0000   -1.9995    0.0000 C    0  0  0  0  0  0  0  0  0  0  0  0
    1.1445    0.0000    0.0000 C    0  0  0  0  0  0  0  0  0  0  0  0
    2.6256   -5.0896    0.0000 Cl   0  0  0  0  0  0  0  0  0  0  0  0
  1  3  1  0  0  0  0
  1  6  2  0  0  0  0
  2  7  1  0  0  0  0
  2  4  2  0  0  0  0
  2 10  1  0  0  0  0
  3  7  1  0  0  0  0
  3  8  2  0  0  0  0
  4  9  1  0  0  0  0
  4 12  1  0  0  0  0
  5  6  1  0  0  0  0
  5  8  1  0  0  0  0
  9 14  1  0  0  0  0
  9 13  2  0  0  0  0
 10 11  2  0  0  0  0
 11 13  1  0  0  0  0
M  END
> <ID>
13656

> <Formula>
C12H15ClN2

> <FW>
222.7139 (186.2530+36.4609)

> <DSSTox_CID>
28587

> <DSSTox_RID>
82858

> <DSSTox_GSID>
48661

> <DSSTox_FileID_Sort>
7535

> <TS_ChemName>
Detomidine hydrochloride

> <TS_ChemName_Synonyms>
Detomidine

> <TS_CASRN>
90038-01-0

> <CASRN_ChemName_Relationship>
primary

> <TS_Description>
single chemical compound

> <ChemNote>


> <STRUCTURE_Shown>
tested chemical

> <STRUCTURE_Formula>
C12H15ClN2

> <STRUCTURE_MW>
222.7139

> <STRUCTURE_ChemType>
defined organic

> <STRUCTURE_DefinedOrganicForm>
complex

> <STRUCTURE_IUPAC>
4-(2,3-dimethylbenzyl)-1H-imidazole hydrochloride (1:1)

> <STRUCTURE_SMILES>
Cl.Cc2cccc(Cc1cncn1)c2C

> <STRUCTURE_SMILES_Desalt>
Cc2cccc(Cc1cncn1)c2C

> <Substance_modify_yyyymmdd>
20111204

$$$$
