9003-11-6
ChemmineR-0915142007XD

 11 10  0  0  0  0  0  0  0  0  1 V2000
    1.1565   -0.6564    0.0000 C   0  0  0  0  0  0  0  0  0  0  0  0
    2.3233    0.0000    0.0000 C   0  0  0  0  0  0  0  0  0  0  0  0
    0.0000    0.0000    0.0000 O   0  0  0  0  0  0  0  0  0  0  0  0
    3.4798   -0.6564    0.0000 O   0  0  0  0  0  0  0  0  0  0  0  0
    4.6467    0.0000    0.0000 C   0  0  0  0  0  0  0  0  0  0  0  0
    5.7719   -0.6564    0.0000 C   0  0  0  0  0  0  0  0  0  0  0  0
    6.9387    0.0000    0.0000 O   0  0  0  0  0  0  0  0  0  0  0  0
    5.7719   -1.9795    0.0000 C   0  0  0  0  0  0  0  0  0  0  0  0
    8.0952   -0.6564    0.0000 C   0  0  0  0  0  0  0  0  0  0  0  0
    9.2621    0.0000    0.0000 C   0  0  0  0  0  0  0  0  0  0  0  0
   10.4185   -0.6564    0.0000 O   0  0  0  0  0  0  0  0  0  0  0  0
  1  2  1  0  0  0  0
  1  3  1  0  0  0  0
  2  4  1  0  0  0  0
  4  5  1  0  0  0  0
  5  6  1  0  0  0  0
  6  7  1  0  0  0  0
  6  8  1  0  0  0  0
  7  9  1  0  0  0  0
  9 10  1  0  0  0  0
 10 11  1  0  0  0  0
M  END
> <ID>
12719

> <Formula>
C7H16O4

> <FW>
164.1995

> <DSSTox_CID>
27597

> <DSSTox_RID>
82442

> <DSSTox_GSID>
47597

> <DSSTox_FileID_Sort>
7123

> <TS_ChemName>
Pluronic F-127

> <TS_ChemName_Synonyms>


> <TS_CASRN>
9003-11-6

> <CASRN_ChemName_Relationship>
primary

> <TS_Description>
polymer

> <ChemNote>
average molecular weight 12600

> <STRUCTURE_Shown>
monomer of polymer

> <STRUCTURE_Formula>
C7H16O4

> <STRUCTURE_MW>
164.1995

> <STRUCTURE_ChemType>
defined organic

> <STRUCTURE_DefinedOrganicForm>
parent

> <STRUCTURE_IUPAC>
2,2'-[propane-1,2-diylbis(oxy)]diethanol

> <STRUCTURE_SMILES>
OCCOC(C)COCCO

> <STRUCTURE_SMILES_Desalt>
OCCOC(C)COCCO

> <Substance_modify_yyyymmdd>
20101001

$$$$
