9004-82-4
ChemmineR-0915142007XD

 21 19  0  0  0  0  0  0  0  0  2 V2000
    4.1590   -1.1417    0.0000 C    0  0  0  0  0  0  0  0  0  0  0  0
    5.3210   -0.4893    0.0000 C    0  0  0  0  0  0  0  0  0  0  0  0
    2.9969   -0.4893    0.0000 O    0  0  0  0  0  0  0  0  0  0  0  0
    6.4831   -1.1417    0.0000 O    0  0  0  0  0  0  0  0  0  0  0  0
    1.8348   -1.1417    0.0000 S    0  0  0  0  0  0  0  0  0  0  0  0
    0.6932   -1.8144    0.0000 O    0  0  0  0  0  0  0  0  0  0  0  0
    1.1824    0.0000    0.0000 O    0  5  0  0  0  0  0  0  0  0  0  0
    2.5076   -2.3037    0.0000 O    0  0  0  0  0  0  0  0  0  0  0  0
    7.6451   -0.4893    0.0000 C    0  0  0  0  0  0  0  0  0  0  0  0
    8.8072   -1.1417    0.0000 C    0  0  0  0  0  0  0  0  0  0  0  0
    9.9693   -0.4893    0.0000 C    0  0  0  0  0  0  0  0  0  0  0  0
   11.1109   -1.1417    0.0000 C    0  0  0  0  0  0  0  0  0  0  0  0
   12.2730   -0.4893    0.0000 C    0  0  0  0  0  0  0  0  0  0  0  0
   13.4351   -1.1417    0.0000 C    0  0  0  0  0  0  0  0  0  0  0  0
   14.5971   -0.4893    0.0000 C    0  0  0  0  0  0  0  0  0  0  0  0
   15.7592   -1.1417    0.0000 C    0  0  0  0  0  0  0  0  0  0  0  0
   16.9213   -0.4893    0.0000 C    0  0  0  0  0  0  0  0  0  0  0  0
   18.0833   -1.1417    0.0000 C    0  0  0  0  0  0  0  0  0  0  0  0
   19.2454   -0.4893    0.0000 C    0  0  0  0  0  0  0  0  0  0  0  0
   20.3871   -1.1417    0.0000 C    0  0  0  0  0  0  0  0  0  0  0  0
    0.0000    0.0000    0.0000 Na   0  3  0  0  0  0  0  0  0  0  0  0
  1  2  1  0  0  0  0
  1  3  1  0  0  0  0
  2  4  1  0  0  0  0
  3  5  1  0  0  0  0
  4  9  1  0  0  0  0
  5  6  2  0  0  0  0
  5  7  1  0  0  0  0
  5  8  2  0  0  0  0
  9 10  1  0  0  0  0
 10 11  1  0  0  0  0
 11 12  1  0  0  0  0
 12 13  1  0  0  0  0
 13 14  1  0  0  0  0
 14 15  1  0  0  0  0
 15 16  1  0  0  0  0
 16 17  1  0  0  0  0
 17 18  1  0  0  0  0
 18 19  1  0  0  0  0
 19 20  1  0  0  0  0
M  END
> <ID>
5928

> <Formula>
C14H29NaO5S

> <FW>
332.4318 (309.4426+22.9892)

> <DSSTox_CID>
9298

> <DSSTox_RID>
78753

> <DSSTox_GSID>
29298

> <DSSTox_FileID_Sort>
3435

> <TS_ChemName>
Sodium lauryl polyoxyethylene ether sulfate

> <TS_ChemName_Synonyms>
Sodium dodecylpoly(oxyethylene) sulfate; Poly(oxy-1,2-ethanediyl), .alpha.-sulfo-.omega.-(dodecyloxy)-, sodium salt

> <TS_CASRN>
9004-82-4

> <CASRN_ChemName_Relationship>
primary

> <TS_Description>
polymer

> <ChemNote>


> <STRUCTURE_Shown>
monomer of polymer

> <STRUCTURE_Formula>
C14H29NaO5S

> <STRUCTURE_MW>
332.4318

> <STRUCTURE_ChemType>
defined organic

> <STRUCTURE_DefinedOrganicForm>
salt

> <STRUCTURE_IUPAC>
sodium 2-(dodecyloxy)ethyl sulfate

> <STRUCTURE_SMILES>
[Na+].[O-]S(=O)(=O)OCCOCCCCCCCCCCCC

> <STRUCTURE_SMILES_Desalt>
O=S(O)(=O)OCCOCCCCCCCCCCCC

> <Substance_modify_yyyymmdd>
20080429

$$$$
