9004-96-0
ChemmineR-0915142007XD

 23 22  0  0  0  0  0  0  0  0  1 V2000
    1.1593   -3.3222    0.0000 C   0  0  0  0  0  0  0  0  0  0  0  0
    0.0000   -3.9797    0.0000 C   0  0  0  0  0  0  0  0  0  0  0  0
    1.1593   -1.9898    0.0000 O   0  0  0  0  0  0  0  0  0  0  0  0
    2.3013   -1.3323    0.0000 C   0  0  0  0  0  0  0  0  0  0  0  0
    3.4606   -1.9898    0.0000 C   0  0  0  0  0  0  0  0  0  0  0  0
    4.6199   -1.3323    0.0000 C   0  0  0  0  0  0  0  0  0  0  0  0
    5.7792   -1.9898    0.0000 C   0  0  0  0  0  0  0  0  0  0  0  0
    6.9212   -1.3323    0.0000 C   0  0  0  0  0  0  0  0  0  0  0  0
    8.0632   -1.9898    0.0000 C   0  0  0  0  0  0  0  0  0  0  0  0
    9.2225   -1.3323    0.0000 C   0  0  0  0  0  0  0  0  0  0  0  0
   10.3817   -1.9898    0.0000 C   0  0  0  0  0  0  0  0  0  0  0  0
   11.5237   -1.3323    0.0000 C   0  0  0  0  0  0  0  0  0  0  0  0
   12.6830   -1.9898    0.0000 C   0  0  0  0  0  0  0  0  0  0  0  0
   12.6830   -3.3222    0.0000 C   0  0  0  0  0  0  0  0  0  0  0  0
   13.8423   -3.9797    0.0000 C   0  0  0  0  0  0  0  0  0  0  0  0
   13.8423   -5.3120    0.0000 C   0  0  0  0  0  0  0  0  0  0  0  0
   15.0016   -5.9868    0.0000 C   0  0  0  0  0  0  0  0  0  0  0  0
   15.0016   -7.3191    0.0000 C   0  0  0  0  0  0  0  0  0  0  0  0
   16.1436   -7.9766    0.0000 C   0  0  0  0  0  0  0  0  0  0  0  0
   16.1436   -9.3090    0.0000 C   0  0  0  0  0  0  0  0  0  0  0  0
   17.3029   -9.9838    0.0000 C   0  0  0  0  0  0  0  0  0  0  0  0
    2.3013    0.0000    0.0000 O   0  0  0  0  0  0  0  0  0  0  0  0
    0.0000   -5.3120    0.0000 O   0  0  0  0  0  0  0  0  0  0  0  0
  1  2  1  0  0  0  0
  1  3  1  0  0  0  0
  2 23  1  0  0  0  0
  3  4  1  0  0  0  0
  4  5  1  0  0  0  0
  4 22  2  0  0  0  0
  5  6  1  0  0  0  0
  6  7  1  0  0  0  0
  7  8  1  0  0  0  0
  8  9  1  0  0  0  0
  9 10  1  0  0  0  0
 10 11  1  0  0  0  0
 11 12  1  0  0  0  0
 12 13  2  0  0  0  0
 13 14  1  0  0  0  0
 14 15  1  0  0  0  0
 15 16  1  0  0  0  0
 16 17  1  0  0  0  0
 17 18  1  0  0  0  0
 18 19  1  0  0  0  0
 19 20  1  0  0  0  0
 20 21  1  0  0  0  0
M  END
> <ID>
5333

> <Formula>
C20H38O3

> <FW>
326.5139

> <DSSTox_CID>
7713

> <DSSTox_RID>
78546

> <DSSTox_GSID>
27713

> <DSSTox_FileID_Sort>
3229

> <TS_ChemName>
Poly(oxy-1,2-ethanediyl), .alpha.-[(9Z)-1-oxo-9-octadecenyl]-.omega.-hydroxy-

> <TS_ChemName_Synonyms>


> <TS_CASRN>
9004-96-0

> <CASRN_ChemName_Relationship>
primary

> <TS_Description>
polymer

> <ChemNote>


> <STRUCTURE_Shown>
monomer of polymer

> <STRUCTURE_Formula>
C20H38O3

> <STRUCTURE_MW>
326.5139

> <STRUCTURE_ChemType>
defined organic

> <STRUCTURE_DefinedOrganicForm>
parent

> <STRUCTURE_IUPAC>
2-hydroxyethyl (9Z)-octadec-9-enoate

> <STRUCTURE_SMILES>
O=C(CCCCCCC/C=C\CCCCCCCC)OCCO

> <STRUCTURE_SMILES_Desalt>
O=C(CCCCCCC/C=C\CCCCCCCC)OCCO

> <Substance_modify_yyyymmdd>
20080429

$$$$
