9004-98-2
ChemmineR-0915142007XD

 22 21  0  0  0  0  0  0  0  0  1 V2000
    5.7738   -0.6655    0.0000 C   0  0  0  0  0  0  0  0  0  0  0  0
    6.9285    0.0000    0.0000 C   0  0  0  0  0  0  0  0  0  0  0  0
    8.0637   -0.6655    0.0000 C   0  0  0  0  0  0  0  0  0  0  0  0
    9.2185    0.0000    0.0000 C   0  0  0  0  0  0  0  0  0  0  0  0
   10.3536   -0.6655    0.0000 C   0  0  0  0  0  0  0  0  0  0  0  0
   11.5084    0.0000    0.0000 C   0  0  0  0  0  0  0  0  0  0  0  0
   12.6632   -0.6655    0.0000 C   0  0  0  0  0  0  0  0  0  0  0  0
   13.8179    0.0000    0.0000 C   0  0  0  0  0  0  0  0  0  0  0  0
   14.9727   -0.6655    0.0000 C   0  0  0  0  0  0  0  0  0  0  0  0
   14.9727   -1.9964    0.0000 C   0  0  0  0  0  0  0  0  0  0  0  0
   16.1274   -2.6618    0.0000 C   0  0  0  0  0  0  0  0  0  0  0  0
   16.1274   -3.9927    0.0000 C   0  0  0  0  0  0  0  0  0  0  0  0
   17.2822   -4.6582    0.0000 C   0  0  0  0  0  0  0  0  0  0  0  0
   17.2822   -5.9891    0.0000 C   0  0  0  0  0  0  0  0  0  0  0  0
   18.4369   -6.6545    0.0000 C   0  0  0  0  0  0  0  0  0  0  0  0
   18.4369   -7.9854    0.0000 C   0  0  0  0  0  0  0  0  0  0  0  0
   19.5721   -8.6509    0.0000 C   0  0  0  0  0  0  0  0  0  0  0  0
    4.6190    0.0000    0.0000 C   0  0  0  0  0  0  0  0  0  0  0  0
    3.4643   -0.6655    0.0000 O   0  0  0  0  0  0  0  0  0  0  0  0
    2.3095    0.0000    0.0000 C   0  0  0  0  0  0  0  0  0  0  0  0
    1.1548   -0.6655    0.0000 C   0  0  0  0  0  0  0  0  0  0  0  0
    0.0000    0.0000    0.0000 O   0  0  0  0  0  0  0  0  0  0  0  0
  1  2  1  0  0  0  0
  1 18  1  0  0  0  0
  2  3  1  0  0  0  0
  3  4  1  0  0  0  0
  4  5  1  0  0  0  0
  5  6  1  0  0  0  0
  6  7  1  0  0  0  0
  7  8  1  0  0  0  0
  8  9  2  0  0  0  0
  9 10  1  0  0  0  0
 10 11  1  0  0  0  0
 11 12  1  0  0  0  0
 12 13  1  0  0  0  0
 13 14  1  0  0  0  0
 14 15  1  0  0  0  0
 15 16  1  0  0  0  0
 16 17  1  0  0  0  0
 18 19  1  0  0  0  0
 19 20  1  0  0  0  0
 20 21  1  0  0  0  0
 21 22  1  0  0  0  0
M  END
> <ID>
5334

> <Formula>
C20H40O2

> <FW>
312.5304

> <DSSTox_CID>
7714

> <DSSTox_RID>
78547

> <DSSTox_GSID>
27714

> <DSSTox_FileID_Sort>
3230

> <TS_ChemName>
Polyethylene glycol (9Z)-9-octadecenyl ether

> <TS_ChemName_Synonyms>


> <TS_CASRN>
9004-98-2

> <CASRN_ChemName_Relationship>
primary

> <TS_Description>
polymer

> <ChemNote>


> <STRUCTURE_Shown>
monomer of polymer

> <STRUCTURE_Formula>
C20H40O2

> <STRUCTURE_MW>
312.5304

> <STRUCTURE_ChemType>
defined organic

> <STRUCTURE_DefinedOrganicForm>
parent

> <STRUCTURE_IUPAC>
2-[(9Z)-octadec-9-en-1-yloxy]ethanol

> <STRUCTURE_SMILES>
OCCOCCCCCCCC/C=C\CCCCCCCC

> <STRUCTURE_SMILES_Desalt>
OCCOCCCCCCCC/C=C\CCCCCCCC

> <Substance_modify_yyyymmdd>
20080429

$$$$
