9004-38-0
ChemmineR-0915142007XD

 51 54  0  0  1  0  0  0  0  0  1 V2000
    9.2209   -6.5284    0.0000 O   0  0  0  0  0  0  0  0  0  0  0  0
    8.0775   -5.8830    0.0000 C   0  0  0  0  0  0  0  0  0  0  0  0
    8.0775   -4.5367    0.0000 C   0  0  0  0  0  0  0  0  0  0  0  0
    6.9157   -3.8912    0.0000 O   0  0  0  0  0  0  0  0  0  0  0  0
    5.7723   -4.5367    0.0000 C   0  0  0  0  0  0  0  0  0  0  0  0
    4.6105   -3.8912    0.0000 O   0  0  0  0  0  0  0  0  0  0  0  0
    5.7723   -5.8830    0.0000 C   0  0  0  0  0  0  0  0  0  0  0  0
    6.9157   -6.5284    0.0000 C   0  0  0  0  0  0  0  0  0  0  0  0
    6.9157   -7.8747    0.0000 O   0  0  0  0  0  0  0  0  0  0  0  0
    4.5920   -6.5284    0.0000 O   0  0  0  0  0  0  0  0  0  0  0  0
    3.4486   -5.8461    0.0000 C   0  0  0  0  0  0  0  0  0  0  0  0
    2.3052   -6.4731    0.0000 C   0  0  0  0  0  0  0  0  0  0  0  0
    1.1618   -5.7907    0.0000 C   0  0  0  0  0  0  0  0  0  0  0  0
    0.0000   -6.4731    0.0000 C   0  0  0  0  0  0  0  0  0  0  0  0
    0.0000   -7.8009    0.0000 C   0  0  0  0  0  0  0  0  0  0  0  0
    1.1618   -8.4648    0.0000 C   0  0  0  0  0  0  0  0  0  0  0  0
    2.3052   -7.8009    0.0000 C   0  0  0  0  0  0  0  0  0  0  0  0
    1.1618   -4.4629    0.0000 C   0  0  0  0  0  0  0  0  0  0  0  0
    2.3052   -3.7990    0.0000 O   0  0  0  0  0  0  0  0  0  0  0  0
    0.0000   -3.7990    0.0000 O   0  0  0  0  0  0  0  0  0  0  0  0
    3.4671   -4.4998    0.0000 O   0  0  0  0  0  0  0  0  0  0  0  0
    9.2209   -3.8912    0.0000 C   0  0  0  0  0  0  0  0  0  0  0  0
    9.2209   -2.5450    0.0000 O   0  0  0  0  0  0  0  0  0  0  0  0
    8.0591   -1.8995    0.0000 C   0  0  0  0  0  0  0  0  0  0  0  0
    6.9157   -2.5450    0.0000 C   0  0  0  0  0  0  0  0  0  0  0  0
    8.0591   -0.5533    0.0000 O   0  0  0  0  0  0  0  0  0  0  0  0
   10.3643   -5.9567    0.0000 C   0  0  0  0  0  0  0  0  0  0  0  0
   11.5077   -6.6575    0.0000 C   0  0  0  0  0  0  0  0  0  0  0  0
   12.6696   -6.0489    0.0000 C   0  0  0  0  0  0  0  0  0  0  0  0
   12.6880   -4.6658    0.0000 C   0  0  0  0  0  0  0  0  0  0  0  0
   13.8499   -4.0388    0.0000 O   0  0  0  0  0  0  0  0  0  0  0  0
   11.5446   -3.9834    0.0000 C   0  0  0  0  0  0  0  0  0  0  0  0
   10.3828   -4.6474    0.0000 O   0  0  0  0  0  0  0  0  0  0  0  0
   11.5631   -2.6556    0.0000 C   0  0  0  0  0  0  0  0  0  0  0  0
   12.7433   -2.0102    0.0000 O   0  0  0  0  0  0  0  0  0  0  0  0
   12.7618   -0.6639    0.0000 C   0  0  0  0  0  0  0  0  0  0  0  0
   11.6368    0.0000    0.0000 C   0  0  0  0  0  0  0  0  0  0  0  0
   13.9236   -0.0369    0.0000 O   0  0  0  0  0  0  0  0  0  0  0  0
   13.8314   -6.7128    0.0000 O   0  0  0  0  0  0  0  0  0  0  0  0
   14.9932   -6.0305    0.0000 C   0  0  0  0  0  0  0  0  0  0  0  0
   16.1366   -6.7128    0.0000 C   0  0  0  0  0  0  0  0  0  0  0  0
   17.2985   -6.0305    0.0000 C   0  0  0  0  0  0  0  0  0  0  0  0
   18.4419   -6.7128    0.0000 C   0  0  0  0  0  0  0  0  0  0  0  0
   18.4419   -8.0407    0.0000 C   0  0  0  0  0  0  0  0  0  0  0  0
   17.2985   -8.7046    0.0000 C   0  0  0  0  0  0  0  0  0  0  0  0
   16.1366   -8.0407    0.0000 C   0  0  0  0  0  0  0  0  0  0  0  0
   17.2985   -4.7027    0.0000 C   0  0  0  0  0  0  0  0  0  0  0  0
   16.1366   -4.0388    0.0000 O   0  0  0  0  0  0  0  0  0  0  0  0
   18.4419   -4.0388    0.0000 O   0  0  0  0  0  0  0  0  0  0  0  0
   14.9932   -4.7027    0.0000 O   0  0  0  0  0  0  0  0  0  0  0  0
   11.4893   -7.9669    0.0000 O   0  0  0  0  0  0  0  0  0  0  0  0
  2  1  1  1  0  0  0
 27  1  1  6  0  0  0
  2  3  1  0  0  0  0
  2  8  1  0  0  0  0
  3  4  1  0  0  0  0
  3 22  1  6  0  0  0
  4  5  1  0  0  0  0
  5  6  1  6  0  0  0
  5  7  1  0  0  0  0
  7  8  1  0  0  0  0
  7 10  1  1  0  0  0
  8  9  1  6  0  0  0
 10 11  1  0  0  0  0
 11 12  1  0  0  0  0
 11 21  2  0  0  0  0
 12 13  1  0  0  0  0
 12 17  2  0  0  0  0
 13 14  2  0  0  0  0
 13 18  1  0  0  0  0
 14 15  1  0  0  0  0
 15 16  2  0  0  0  0
 16 17  1  0  0  0  0
 18 19  1  0  0  0  0
 18 20  2  0  0  0  0
 22 23  1  0  0  0  0
 23 24  1  0  0  0  0
 24 25  1  0  0  0  0
 24 26  2  0  0  0  0
 27 28  1  0  0  0  0
 27 33  1  0  0  0  0
 28 29  1  0  0  0  0
 28 51  1  1  0  0  0
 29 30  1  0  0  0  0
 29 39  1  6  0  0  0
 30 31  1  1  0  0  0
 30 32  1  0  0  0  0
 32 33  1  0  0  0  0
 32 34  1  6  0  0  0
 34 35  1  0  0  0  0
 35 36  1  0  0  0  0
 36 37  1  0  0  0  0
 36 38  2  0  0  0  0
 39 40  1  0  0  0  0
 40 41  1  0  0  0  0
 40 50  2  0  0  0  0
 41 42  1  0  0  0  0
 41 46  2  0  0  0  0
 42 43  2  0  0  0  0
 42 47  1  0  0  0  0
 43 44  1  0  0  0  0
 44 45  2  0  0  0  0
 45 46  1  0  0  0  0
 47 48  1  0  0  0  0
 47 49  2  0  0  0  0
M  END
> <ID>
13663

> <Formula>
C32H34O19

> <FW>
722.601

> <DSSTox_CID>
28594

> <DSSTox_RID>
82865

> <DSSTox_GSID>
48668

> <DSSTox_FileID_Sort>
7542

> <TS_ChemName>
Cellulose acetate phthalate

> <TS_ChemName_Synonyms>


> <TS_CASRN>
9004-38-0

> <CASRN_ChemName_Relationship>
primary

> <TS_Description>
single chemical compound

> <ChemNote>


> <STRUCTURE_Shown>
tested chemical

> <STRUCTURE_Formula>
C32H34O19

> <STRUCTURE_MW>
722.601

> <STRUCTURE_ChemType>
defined organic

> <STRUCTURE_DefinedOrganicForm>
parent

> <STRUCTURE_IUPAC>
6-O-acetyl-4-O-[6-O-acetyl-3-O-(2-carboxybenzoyl)-beta-D-glucopyranosyl]-2-O-(2-carboxybenzoyl)-beta-D-glucopyranose

> <STRUCTURE_SMILES>
O=C(O)c1ccccc1C(=O)O[C@@H]4[C@@H](O)[C@H](O[C@@H]3O[C@H](COC(C)=O)[C@@H](O)[C@H](OC(=O)c2ccccc2C(=O)O)[C@H]3O)[C@@H](COC(C)=O)O[C@H]4O

> <STRUCTURE_SMILES_Desalt>
O=C(O)c1ccccc1C(=O)O[C@@H]4[C@@H](O)[C@H](O[C@@H]3O[C@H](COC(C)=O)[C@@H](O)[C@H](OC(=O)c2ccccc2C(=O)O)[C@H]3O)[C@@H](COC(C)=O)O[C@H]4O

> <Substance_modify_yyyymmdd>
20111204

$$$$
