9004-95-9
ChemmineR-0915142007XD

 77 76  0  0  0  0  0  0  0  0  1 V2000
    7.1142   -7.2020    0.0000 C   0  0  0  0  0  0  0  0  0  0  0  0
    5.9285   -6.5872    0.0000 C   0  0  0  0  0  0  0  0  0  0  0  0
    5.9065   -5.2478    0.0000 C   0  0  0  0  0  0  0  0  0  0  0  0
    7.0044   -4.5232    0.0000 C   0  0  0  0  0  0  0  0  0  0  0  0
    8.2340   -5.0282    0.0000 C   0  0  0  0  0  0  0  0  0  0  0  0
    9.3099   -4.2158    0.0000 C   0  0  0  0  0  0  0  0  0  0  0  0
   10.5176   -4.6330    0.0000 C   0  0  0  0  0  0  0  0  0  0  0  0
   11.6813   -4.1060    0.0000 C   0  0  0  0  0  0  0  0  0  0  0  0
   12.8012   -4.8306    0.0000 C   0  0  0  0  0  0  0  0  0  0  0  0
   13.9869   -4.1719    0.0000 C   0  0  0  0  0  0  0  0  0  0  0  0
   15.1287   -4.8526    0.0000 C   0  0  0  0  0  0  0  0  0  0  0  0
   15.1287   -6.1920    0.0000 C   0  0  0  0  0  0  0  0  0  0  0  0
   13.9649   -6.8507    0.0000 C   0  0  0  0  0  0  0  0  0  0  0  0
   13.9430   -8.1462    0.0000 C   0  0  0  0  0  0  0  0  0  0  0  0
   12.9549   -8.9806    0.0000 C   0  0  0  0  0  0  0  0  0  0  0  0
   11.7253   -8.4536    0.0000 C   0  0  0  0  0  0  0  0  0  0  0  0
   11.7033   -7.1142    0.0000 O   0  0  0  0  0  0  0  0  0  0  0  0
   10.5615   -6.4994    0.0000 C   0  0  0  0  0  0  0  0  0  0  0  0
    9.3978   -7.1142    0.0000 C   0  0  0  0  0  0  0  0  0  0  0  0
    9.3758   -8.4316    0.0000 O   0  0  0  0  0  0  0  0  0  0  0  0
    8.2121   -9.0904    0.0000 C   0  0  0  0  0  0  0  0  0  0  0  0
    8.1901  -10.3859    0.0000 C   0  0  0  0  0  0  0  0  0  0  0  0
    7.1581  -11.2202    0.0000 O   0  0  0  0  0  0  0  0  0  0  0  0
    5.9285  -10.6493    0.0000 C   0  0  0  0  0  0  0  0  0  0  0  0
    5.9724   -9.3099    0.0000 C   0  0  0  0  0  0  0  0  0  0  0  0
    4.8087   -8.6512    0.0000 O   0  0  0  0  0  0  0  0  0  0  0  0
    3.6669   -9.3758    0.0000 C   0  0  0  0  0  0  0  0  0  0  0  0
    2.5031   -8.7171    0.0000 C   0  0  0  0  0  0  0  0  0  0  0  0
    2.4812   -7.3996    0.0000 O   0  0  0  0  0  0  0  0  0  0  0  0
    3.5791   -6.6751    0.0000 C   0  0  0  0  0  0  0  0  0  0  0  0
    3.5571   -5.3576    0.0000 C   0  0  0  0  0  0  0  0  0  0  0  0
    2.3714   -4.6989    0.0000 O   0  0  0  0  0  0  0  0  0  0  0  0
    1.2296   -5.4235    0.0000 C   0  0  0  0  0  0  0  0  0  0  0  0
    0.0659   -4.7867    0.0000 C   0  0  0  0  0  0  0  0  0  0  0  0
    0.0000   -3.4473    0.0000 O   0  0  0  0  0  0  0  0  0  0  0  0
    1.1198   -2.7447    0.0000 C   0  0  0  0  0  0  0  0  0  0  0  0
    1.0979   -1.4053    0.0000 C   0  0  0  0  0  0  0  0  0  0  0  0
    2.2397   -0.7026    0.0000 O   0  0  0  0  0  0  0  0  0  0  0  0
    3.4034   -1.3394    0.0000 C   0  0  0  0  0  0  0  0  0  0  0  0
    4.5452   -0.6148    0.0000 C   0  0  0  0  0  0  0  0  0  0  0  0
    5.7309   -1.2516    0.0000 O   0  0  0  0  0  0  0  0  0  0  0  0
    6.8507   -0.5270    0.0000 C   0  0  0  0  0  0  0  0  0  0  0  0
    8.0364   -1.1637    0.0000 C   0  0  0  0  0  0  0  0  0  0  0  0
    9.1562   -0.4391    0.0000 O   0  0  0  0  0  0  0  0  0  0  0  0
   10.3419   -1.0759    0.0000 C   0  0  0  0  0  0  0  0  0  0  0  0
   11.4837   -0.3513    0.0000 C   0  0  0  0  0  0  0  0  0  0  0  0
   12.6475   -0.9881    0.0000 O   0  0  0  0  0  0  0  0  0  0  0  0
   13.7673   -0.2635    0.0000 C   0  0  0  0  0  0  0  0  0  0  0  0
   14.9750   -0.8783    0.0000 C   0  0  0  0  0  0  0  0  0  0  0  0
   16.0948   -0.1757    0.0000 O   0  0  0  0  0  0  0  0  0  0  0  0
   17.2805   -0.7905    0.0000 C   0  0  0  0  0  0  0  0  0  0  0  0
   18.4003   -0.0878    0.0000 C   0  0  0  0  0  0  0  0  0  0  0  0
   19.5860   -0.6807    0.0000 O   0  0  0  0  0  0  0  0  0  0  0  0
   20.7278    0.0000    0.0000 C   0  0  0  0  0  0  0  0  0  0  0  0
   21.8915   -0.6148    0.0000 C   0  0  0  0  0  0  0  0  0  0  0  0
   21.9574   -1.9323    0.0000 O   0  0  0  0  0  0  0  0  0  0  0  0
   20.8376   -2.6568    0.0000 C   0  0  0  0  0  0  0  0  0  0  0  0
   20.9035   -3.9963    0.0000 C   0  0  0  0  0  0  0  0  0  0  0  0
   19.7617   -4.6989    0.0000 O   0  0  0  0  0  0  0  0  0  0  0  0
   18.5760   -4.0621    0.0000 C   0  0  0  0  0  0  0  0  0  0  0  0
   17.4561   -4.7867    0.0000 C   0  0  0  0  0  0  0  0  0  0  0  0
   17.5440   -6.1261    0.0000 O   0  0  0  0  0  0  0  0  0  0  0  0
   18.7077   -6.7409    0.0000 C   0  0  0  0  0  0  0  0  0  0  0  0
   18.8395   -8.0584    0.0000 C   0  0  0  0  0  0  0  0  0  0  0  0
   17.7855   -8.8269    0.0000 O   0  0  0  0  0  0  0  0  0  0  0  0
   16.5559   -8.2779    0.0000 C   0  0  0  0  0  0  0  0  0  0  0  0
   15.5239   -9.0684    0.0000 C   0  0  0  0  0  0  0  0  0  0  0  0
   15.5459  -10.3859    0.0000 O   0  0  0  0  0  0  0  0  0  0  0  0
   14.3602  -11.0226    0.0000 C   0  0  0  0  0  0  0  0  0  0  0  0
   14.3162  -12.3401    0.0000 C   0  0  0  0  0  0  0  0  0  0  0  0
   13.1745  -13.0207    0.0000 O   0  0  0  0  0  0  0  0  0  0  0  0
   12.0327  -12.3840    0.0000 C   0  0  0  0  0  0  0  0  0  0  0  0
   12.0107  -11.0226    0.0000 C   0  0  0  0  0  0  0  0  0  0  0  0
   10.8031  -10.4517    0.0000 O   0  0  0  0  0  0  0  0  0  0  0  0
    9.7711  -11.2861    0.0000 C   0  0  0  0  0  0  0  0  0  0  0  0
    9.8150  -12.6036    0.0000 C   0  0  0  0  0  0  0  0  0  0  0  0
    8.6732  -13.3062    0.0000 O   0  0  0  0  0  0  0  0  0  0  0  0
  1  2  1  0  0  0  0
  2  3  1  0  0  0  0
  3  4  1  0  0  0  0
  4  5  1  0  0  0  0
  5  6  1  0  0  0  0
  6  7  1  0  0  0  0
  7  8  1  0  0  0  0
  8  9  1  0  0  0  0
  9 10  1  0  0  0  0
 10 11  1  0  0  0  0
 11 12  1  0  0  0  0
 12 13  1  0  0  0  0
 13 14  1  0  0  0  0
 14 15  1  0  0  0  0
 15 16  1  0  0  0  0
 16 17  1  0  0  0  0
 17 18  1  0  0  0  0
 18 19  1  0  0  0  0
 19 20  1  0  0  0  0
 20 21  1  0  0  0  0
 21 22  1  0  0  0  0
 22 23  1  0  0  0  0
 23 24  1  0  0  0  0
 24 25  1  0  0  0  0
 25 26  1  0  0  0  0
 26 27  1  0  0  0  0
 27 28  1  0  0  0  0
 28 29  1  0  0  0  0
 29 30  1  0  0  0  0
 30 31  1  0  0  0  0
 31 32  1  0  0  0  0
 32 33  1  0  0  0  0
 33 34  1  0  0  0  0
 34 35  1  0  0  0  0
 35 36  1  0  0  0  0
 36 37  1  0  0  0  0
 37 38  1  0  0  0  0
 38 39  1  0  0  0  0
 39 40  1  0  0  0  0
 40 41  1  0  0  0  0
 41 42  1  0  0  0  0
 42 43  1  0  0  0  0
 43 44  1  0  0  0  0
 44 45  1  0  0  0  0
 45 46  1  0  0  0  0
 46 47  1  0  0  0  0
 47 48  1  0  0  0  0
 48 49  1  0  0  0  0
 49 50  1  0  0  0  0
 50 51  1  0  0  0  0
 51 52  1  0  0  0  0
 52 53  1  0  0  0  0
 53 54  1  0  0  0  0
 54 55  1  0  0  0  0
 55 56  1  0  0  0  0
 56 57  1  0  0  0  0
 57 58  1  0  0  0  0
 58 59  1  0  0  0  0
 59 60  1  0  0  0  0
 60 61  1  0  0  0  0
 61 62  1  0  0  0  0
 62 63  1  0  0  0  0
 63 64  1  0  0  0  0
 64 65  1  0  0  0  0
 65 66  1  0  0  0  0
 66 67  1  0  0  0  0
 67 68  1  0  0  0  0
 68 69  1  0  0  0  0
 69 70  1  0  0  0  0
 70 71  1  0  0  0  0
 71 72  1  0  0  0  0
 72 73  1  0  0  0  0
 73 74  1  0  0  0  0
 74 75  1  0  0  0  0
 75 76  1  0  0  0  0
 76 77  1  0  0  0  0
M  END
> <ID>
11905

> <Formula>
C56H114O21

> <FW>
1123.4918

> <DSSTox_CID>
26708

> <DSSTox_RID>
81841

> <DSSTox_GSID>
46708

> <DSSTox_FileID_Sort>
6522

> <TS_ChemName>
Polyethylene glycol (20) hexadecyl ether

> <TS_ChemName_Synonyms>


> <TS_CASRN>
9004-95-9

> <CASRN_ChemName_Relationship>
primary

> <TS_Description>
polymer

> <ChemNote>
average Mn approx 1124

> <STRUCTURE_Shown>
monomer of polymer

> <STRUCTURE_Formula>
C56H114O21

> <STRUCTURE_MW>
1123.4918

> <STRUCTURE_ChemType>
defined organic

> <STRUCTURE_DefinedOrganicForm>
parent

> <STRUCTURE_IUPAC>
3,6,9,12,15,18,21,24,27,30,33,36,39,42,45,48,51,54,57,60-icosaoxahexaheptacontan-1-ol

> <STRUCTURE_SMILES>
OCCOCCOCCOCCOCCOCCOCCOCCOCCOCCOCCOCCOCCOCCOCCOCCOCCOCCOCCOCCOCCCCCCCCCCCCCCCC

> <STRUCTURE_SMILES_Desalt>
OCCOCCOCCOCCOCCOCCOCCOCCOCCOCCOCCOCCOCCOCCOCCOCCOCCOCCOCCOCCOCCCCCCCCCCCCCCCC

> <Substance_modify_yyyymmdd>
20110805

$$$$
