9004-61-9
ChemmineR-0915142007XD

 53 56  0  0  1  0  0  0  0  0  1 V2000
   18.4297   -7.3166    0.0000 C   0  0  0  0  0  0  0  0  0  0  0  0
   17.2687   -7.9801    0.0000 C   0  0  0  0  0  0  0  0  0  0  0  0
   17.2687   -9.3070    0.0000 O   0  0  0  0  0  0  0  0  0  0  0  0
   16.1260   -7.3166    0.0000 N   0  0  0  0  0  0  0  0  0  0  0  0
   16.1260   -5.9897    0.0000 C   0  0  0  0  0  0  0  0  0  0  0  0
   17.2687   -5.3078    0.0000 C   0  0  0  0  0  0  0  0  0  0  0  0
   18.4297   -5.9897    0.0000 O   0  0  0  0  0  0  0  0  0  0  0  0
   17.2687   -3.9808    0.0000 O   0  0  0  0  0  0  0  0  0  0  0  0
   16.1260   -3.3174    0.0000 C   0  0  0  0  0  0  0  0  0  0  0  0
   16.1260   -1.9904    0.0000 C   0  0  0  0  0  0  0  0  0  0  0  0
   17.2687   -1.3269    0.0000 O   0  0  0  0  0  0  0  0  0  0  0  0
   14.9834   -3.9808    0.0000 C   0  0  0  0  0  0  0  0  0  0  0  0
   13.8223   -3.3174    0.0000 O   0  0  0  0  0  0  0  0  0  0  0  0
   14.9834   -5.3078    0.0000 C   0  0  0  0  0  0  0  0  0  0  0  0
   13.8223   -5.9897    0.0000 O   0  0  0  0  0  0  0  0  0  0  0  0
   12.6612   -5.3078    0.0000 C   0  0  0  0  0  0  0  0  0  0  0  0
   12.6612   -3.9808    0.0000 O   0  0  0  0  0  0  0  0  0  0  0  0
   11.5186   -3.3174    0.0000 C   0  0  0  0  0  0  0  0  0  0  0  0
   10.3575   -3.9808    0.0000 C   0  0  0  0  0  0  0  0  0  0  0  0
    9.2149   -3.3174    0.0000 O   0  0  0  0  0  0  0  0  0  0  0  0
    8.0538   -3.9808    0.0000 C   0  0  0  0  0  0  0  0  0  0  0  0
    8.0538   -5.3078    0.0000 O   0  0  0  0  0  0  0  0  0  0  0  0
    6.9112   -5.9897    0.0000 C   0  0  0  0  0  0  0  0  0  0  0  0
    6.9112   -7.3166    0.0000 C   0  0  0  0  0  0  0  0  0  0  0  0
    8.0538   -7.9801    0.0000 O   0  0  0  0  0  0  0  0  0  0  0  0
    5.7685   -5.3078    0.0000 C   0  0  0  0  0  0  0  0  0  0  0  0
    4.6074   -5.9897    0.0000 O   0  0  0  0  0  0  0  0  0  0  0  0
    5.7685   -3.9808    0.0000 C   0  0  0  0  0  0  0  0  0  0  0  0
    4.6074   -3.3174    0.0000 O   0  0  0  0  0  0  0  0  0  0  0  0
    3.4464   -3.9808    0.0000 C   0  0  0  0  0  0  0  0  0  0  0  0
    3.4464   -5.3078    0.0000 O   0  0  0  0  0  0  0  0  0  0  0  0
    2.3037   -5.9897    0.0000 C   0  0  0  0  0  0  0  0  0  0  0  0
    1.1426   -5.3078    0.0000 C   0  0  0  0  0  0  0  0  0  0  0  0
    0.0000   -5.9897    0.0000 O   0  0  0  0  0  0  0  0  0  0  0  0
    1.1426   -3.9808    0.0000 C   0  0  0  0  0  0  0  0  0  0  0  0
    0.0000   -3.3174    0.0000 O   0  0  0  0  0  0  0  0  0  0  0  0
    2.3037   -3.3174    0.0000 C   0  0  0  0  0  0  0  0  0  0  0  0
    2.3037   -1.9904    0.0000 O   0  0  0  0  0  0  0  0  0  0  0  0
    2.3037   -7.3166    0.0000 C   0  0  0  0  0  0  0  0  0  0  0  0
    3.4464   -7.9801    0.0000 O   0  0  0  0  0  0  0  0  0  0  0  0
    1.1426   -7.9801    0.0000 O   0  0  0  0  0  0  0  0  0  0  0  0
    6.9112   -3.3174    0.0000 C   0  0  0  0  0  0  0  0  0  0  0  0
    6.9112   -1.9904    0.0000 N   0  0  0  0  0  0  0  0  0  0  0  0
    8.0538   -1.3269    0.0000 C   0  0  0  0  0  0  0  0  0  0  0  0
    9.2149   -1.9904    0.0000 C   0  0  0  0  0  0  0  0  0  0  0  0
    8.0538    0.0000    0.0000 O   0  0  0  0  0  0  0  0  0  0  0  0
   10.3575   -5.3078    0.0000 C   0  0  0  0  0  0  0  0  0  0  0  0
    9.2149   -5.9897    0.0000 O   0  0  0  0  0  0  0  0  0  0  0  0
   11.5186   -5.9897    0.0000 C   0  0  0  0  0  0  0  0  0  0  0  0
   11.5186   -7.3166    0.0000 O   0  0  0  0  0  0  0  0  0  0  0  0
   11.5186   -1.9904    0.0000 C   0  0  0  0  0  0  0  0  0  0  0  0
   12.6612   -1.3269    0.0000 O   0  0  0  0  0  0  0  0  0  0  0  0
   10.3575   -1.3269    0.0000 O   0  0  0  0  0  0  0  0  0  0  0  0
  1  2  1  0  0  0  0
  2  3  2  0  0  0  0
  2  4  1  0  0  0  0
  5  4  1  6  0  0  0
  5  6  1  0  0  0  0
  5 14  1  0  0  0  0
  6  7  1  0  0  0  0
  6  8  1  0  0  0  0
  8  9  1  0  0  0  0
  9 10  1  1  0  0  0
  9 12  1  0  0  0  0
 10 11  1  0  0  0  0
 12 13  1  6  0  0  0
 12 14  1  0  0  0  0
 14 15  1  1  0  0  0
 16 15  1  1  0  0  0
 16 17  1  0  0  0  0
 16 49  1  0  0  0  0
 17 18  1  0  0  0  0
 18 19  1  0  0  0  0
 18 51  1  0  0  0  0
 19 20  1  6  0  0  0
 19 47  1  0  0  0  0
 21 20  1  6  0  0  0
 21 22  1  0  0  0  0
 21 42  1  0  0  0  0
 22 23  1  0  0  0  0
 23 24  1  6  0  0  0
 23 26  1  0  0  0  0
 24 25  1  0  0  0  0
 26 27  1  1  0  0  0
 26 28  1  0  0  0  0
 28 29  1  0  0  0  0
 28 42  1  0  0  0  0
 30 29  1  1  0  0  0
 30 31  1  0  0  0  0
 30 37  1  0  0  0  0
 31 32  1  0  0  0  0
 32 33  1  0  0  0  0
 32 39  1  6  0  0  0
 33 34  1  0  0  0  0
 33 35  1  0  0  0  0
 35 36  1  6  0  0  0
 35 37  1  0  0  0  0
 37 38  1  1  0  0  0
 39 40  1  0  0  0  0
 39 41  2  0  0  0  0
 42 43  1  1  0  0  0
 43 44  1  0  0  0  0
 44 45  1  0  0  0  0
 44 46  2  0  0  0  0
 47 48  1  1  0  0  0
 47 49  1  0  0  0  0
 49 50  1  6  0  0  0
 51 52  1  0  0  0  0
 51 53  2  0  0  0  0
M  END
> <ID>
11939

> <Formula>
C28H44N2O23

> <FW>
776.6486

> <DSSTox_CID>
26750

> <DSSTox_RID>
81875

> <DSSTox_GSID>
46750

> <DSSTox_FileID_Sort>
6556

> <TS_ChemName>
Hyaluronic acid

> <TS_ChemName_Synonyms>


> <TS_CASRN>
9004-61-9

> <CASRN_ChemName_Relationship>
primary

> <TS_Description>
polymer

> <ChemNote>
stereochem

> <STRUCTURE_Shown>
monomer of polymer

> <STRUCTURE_Formula>
C28H44N2O23

> <STRUCTURE_MW>
776.6486

> <STRUCTURE_ChemType>
defined organic

> <STRUCTURE_DefinedOrganicForm>
parent

> <STRUCTURE_IUPAC>
(4xi)-alpha-D-xylo-hexopyranuronosyl-(1->3)-(3xi)-2-(acetylamino)-2-deoxy-beta-D-ribo-hexopyranosyl-(1->4)-(5xi)-beta-D-xylo-hexopyranuronosyl-(1->3)-2-(acetylamino)-2-deoxy-D-glucopyranose

> <STRUCTURE_SMILES>
CC(=O)N[C@H]4C(O)O[C@H](CO)[C@@H](O)[C@@H]4O[C@@H]3OC([C@@H](O[C@@H]2O[C@H](CO)[C@@H](O)C(O[C@H]1O[C@H](C(=O)O)C(O)[C@H](O)[C@H]1O)[C@H]2NC(C)=O)[C@H](O)[C@H]3O)C(=O)O

> <STRUCTURE_SMILES_Desalt>
CC(=O)N[C@H]4C(O)O[C@H](CO)[C@@H](O)[C@@H]4O[C@@H]3OC([C@@H](O[C@@H]2O[C@H](CO)[C@@H](O)C(O[C@H]1O[C@H](C(=O)O)C(O)[C@H](O)[C@H]1O)[C@H]2NC(C)=O)[C@H](O)[C@H]3O)C(=O)O

> <Substance_modify_yyyymmdd>
20110803

$$$$
