9005-07-6
ChemmineR-0915142007XD

 42 41  0  0  0  0  0  0  0  0  1 V2000
   13.8217  -10.6427    0.0000 C   0  0  0  0  0  0  0  0  0  0  0  0
   13.8217  -11.9696    0.0000 C   0  0  0  0  0  0  0  0  0  0  0  0
   12.6607   -9.9793    0.0000 O   0  0  0  0  0  0  0  0  0  0  0  0
   12.6607   -8.6524    0.0000 C   0  0  0  0  0  0  0  0  0  0  0  0
   13.8217   -7.9613    0.0000 C   0  0  0  0  0  0  0  0  0  0  0  0
   13.8217   -6.6344    0.0000 C   0  0  0  0  0  0  0  0  0  0  0  0
   14.9828   -5.9986    0.0000 C   0  0  0  0  0  0  0  0  0  0  0  0
   14.9828   -4.6718    0.0000 C   0  0  0  0  0  0  0  0  0  0  0  0
   16.1162   -3.9807    0.0000 C   0  0  0  0  0  0  0  0  0  0  0  0
   16.1162   -2.6538    0.0000 C   0  0  0  0  0  0  0  0  0  0  0  0
   17.2772   -1.9903    0.0000 C   0  0  0  0  0  0  0  0  0  0  0  0
   17.2772   -0.6634    0.0000 C   0  0  0  0  0  0  0  0  0  0  0  0
   18.4382    0.0000    0.0000 C   0  0  0  0  0  0  0  0  0  0  0  0
   19.5716   -0.6634    0.0000 C   0  0  0  0  0  0  0  0  0  0  0  0
   20.7326    0.0000    0.0000 C   0  0  0  0  0  0  0  0  0  0  0  0
   21.8660   -0.6634    0.0000 C   0  0  0  0  0  0  0  0  0  0  0  0
   23.0270    0.0000    0.0000 C   0  0  0  0  0  0  0  0  0  0  0  0
   24.1881   -0.6634    0.0000 C   0  0  0  0  0  0  0  0  0  0  0  0
   25.3491    0.0000    0.0000 C   0  0  0  0  0  0  0  0  0  0  0  0
   26.4825   -0.6634    0.0000 C   0  0  0  0  0  0  0  0  0  0  0  0
   27.6435    0.0000    0.0000 C   0  0  0  0  0  0  0  0  0  0  0  0
   11.5273   -7.9613    0.0000 O   0  0  0  0  0  0  0  0  0  0  0  0
   14.9828  -12.6331    0.0000 O   0  0  0  0  0  0  0  0  0  0  0  0
   14.9828  -13.9600    0.0000 C   0  0  0  0  0  0  0  0  0  0  0  0
   13.8217  -14.6234    0.0000 C   0  0  0  0  0  0  0  0  0  0  0  0
   13.8217  -15.9779    0.0000 C   0  0  0  0  0  0  0  0  0  0  0  0
   12.6607  -16.6137    0.0000 C   0  0  0  0  0  0  0  0  0  0  0  0
   12.6607  -17.9406    0.0000 C   0  0  0  0  0  0  0  0  0  0  0  0
   11.5273  -18.6317    0.0000 C   0  0  0  0  0  0  0  0  0  0  0  0
   11.5273  -19.9586    0.0000 C   0  0  0  0  0  0  0  0  0  0  0  0
   10.3663  -20.6220    0.0000 C   0  0  0  0  0  0  0  0  0  0  0  0
   10.3663  -21.9489    0.0000 C   0  0  0  0  0  0  0  0  0  0  0  0
    9.2053  -22.6124    0.0000 C   0  0  0  0  0  0  0  0  0  0  0  0
    8.0719  -21.9489    0.0000 C   0  0  0  0  0  0  0  0  0  0  0  0
    6.9109  -22.6124    0.0000 C   0  0  0  0  0  0  0  0  0  0  0  0
    5.7775  -21.9489    0.0000 C   0  0  0  0  0  0  0  0  0  0  0  0
    4.6165  -22.6124    0.0000 C   0  0  0  0  0  0  0  0  0  0  0  0
    3.4554  -21.9489    0.0000 C   0  0  0  0  0  0  0  0  0  0  0  0
    2.2944  -22.6124    0.0000 C   0  0  0  0  0  0  0  0  0  0  0  0
    1.1610  -21.9489    0.0000 C   0  0  0  0  0  0  0  0  0  0  0  0
    0.0000  -22.6124    0.0000 C   0  0  0  0  0  0  0  0  0  0  0  0
   16.1162  -14.6234    0.0000 O   0  0  0  0  0  0  0  0  0  0  0  0
  1  2  1  0  0  0  0
  1  3  1  0  0  0  0
  2 23  1  0  0  0  0
  3  4  1  0  0  0  0
  4  5  1  0  0  0  0
  4 22  2  0  0  0  0
  5  6  1  0  0  0  0
  6  7  1  0  0  0  0
  7  8  1  0  0  0  0
  8  9  1  0  0  0  0
  9 10  1  0  0  0  0
 10 11  1  0  0  0  0
 11 12  1  0  0  0  0
 12 13  2  0  0  0  0
 13 14  1  0  0  0  0
 14 15  1  0  0  0  0
 15 16  1  0  0  0  0
 16 17  1  0  0  0  0
 17 18  1  0  0  0  0
 18 19  1  0  0  0  0
 19 20  1  0  0  0  0
 20 21  1  0  0  0  0
 23 24  1  0  0  0  0
 24 25  1  0  0  0  0
 24 42  2  0  0  0  0
 25 26  1  0  0  0  0
 26 27  1  0  0  0  0
 27 28  1  0  0  0  0
 28 29  1  0  0  0  0
 29 30  1  0  0  0  0
 30 31  1  0  0  0  0
 31 32  1  0  0  0  0
 32 33  2  0  0  0  0
 33 34  1  0  0  0  0
 34 35  1  0  0  0  0
 35 36  1  0  0  0  0
 36 37  1  0  0  0  0
 37 38  1  0  0  0  0
 38 39  1  0  0  0  0
 39 40  1  0  0  0  0
 40 41  1  0  0  0  0
M  END
> <ID>
5335

> <Formula>
C38H70O4

> <FW>
590.96

> <DSSTox_CID>
7716

> <DSSTox_RID>
78548

> <DSSTox_GSID>
27716

> <DSSTox_FileID_Sort>
3231

> <TS_ChemName>
Polyethylene glycol di-(9Z)-9-octadecenyl ether

> <TS_ChemName_Synonyms>


> <TS_CASRN>
9005-07-6

> <CASRN_ChemName_Relationship>
primary

> <TS_Description>
polymer

> <ChemNote>


> <STRUCTURE_Shown>
monomer of polymer

> <STRUCTURE_Formula>
C38H70O4

> <STRUCTURE_MW>
590.96

> <STRUCTURE_ChemType>
defined organic

> <STRUCTURE_DefinedOrganicForm>
parent

> <STRUCTURE_IUPAC>
ethane-1,2-diyl (9Z,9'Z)bis-octadec-9-enoate

> <STRUCTURE_SMILES>
O=C(CCCCCCC/C=C\CCCCCCCC)OCCOC(=O)CCCCCCC/C=C\CCCCCCCC

> <STRUCTURE_SMILES_Desalt>
O=C(CCCCCCC/C=C\CCCCCCCC)OCCOC(=O)CCCCCCC/C=C\CCCCCCCC

> <Substance_modify_yyyymmdd>
20080429

$$$$
