9005-67-8
ChemmineR-0915142007XD

 31 31  0  0  1  0  0  0  0  0  1 V2000
    4.2502  -14.3839    0.0000 C   0  0  0  0  0  0  0  0  0  0  0  0
    4.3880  -15.7022    0.0000 C   0  0  0  0  0  0  0  0  0  0  0  0
    5.5489  -16.3712    0.0000 O   0  0  0  0  0  0  0  0  0  0  0  0
    3.1680  -16.2532    0.0000 C   0  0  0  0  0  0  0  0  0  0  0  0
    2.8925  -17.5519    0.0000 O   0  0  0  0  0  0  0  0  0  0  0  0
    2.2825  -15.2497    0.0000 C   0  0  0  0  0  0  0  0  0  0  0  0
    2.9515  -14.1084    0.0000 O   0  0  0  0  0  0  0  0  0  0  0  0
    1.0822  -14.7184    0.0000 C   0  0  0  0  0  0  0  0  0  0  0  0
    0.0000  -15.5055    0.0000 O   0  0  0  0  0  0  0  0  0  0  0  0
    0.9248  -13.4000    0.0000 C   0  0  0  0  0  0  0  0  0  0  0  0
    2.0267  -12.6129    0.0000 O   0  0  0  0  0  0  0  0  0  0  0  0
    1.8693  -11.2946    0.0000 C   0  0  0  0  0  0  0  0  0  0  0  0
    2.9515  -10.5272    0.0000 C   0  0  0  0  0  0  0  0  0  0  0  0
    2.7941   -9.1891    0.0000 C   0  0  0  0  0  0  0  0  0  0  0  0
    3.8960   -8.4021    0.0000 C   0  0  0  0  0  0  0  0  0  0  0  0
    3.7386   -7.0837    0.0000 C   0  0  0  0  0  0  0  0  0  0  0  0
    4.8209   -6.3163    0.0000 C   0  0  0  0  0  0  0  0  0  0  0  0
    4.6831   -4.9980    0.0000 C   0  0  0  0  0  0  0  0  0  0  0  0
    5.7457   -4.2109    0.0000 C   0  0  0  0  0  0  0  0  0  0  0  0
    5.6276   -2.8728    0.0000 C   0  0  0  0  0  0  0  0  0  0  0  0
    6.6902   -2.1054    0.0000 C   0  0  0  0  0  0  0  0  0  0  0  0
    6.5524   -0.7871    0.0000 C   0  0  0  0  0  0  0  0  0  0  0  0
    7.6150    0.0000    0.0000 C   0  0  0  0  0  0  0  0  0  0  0  0
    0.6493  -10.7633    0.0000 O   0  0  0  0  0  0  0  0  0  0  0  0
    1.2200  -16.0367    0.0000 H   0  0  0  0  0  0  0  0  0  0  0  0
    6.6902  -15.7022    0.0000 C   0  0  0  0  0  0  0  0  0  0  0  0
    7.8511  -16.3712    0.0000 C   0  0  0  0  0  0  0  0  0  0  0  0
    8.9924  -15.7022    0.0000 O   0  0  0  0  0  0  0  0  0  0  0  0
    1.6332  -17.9651    0.0000 C   0  0  0  0  0  0  0  0  0  0  0  0
    1.3577  -19.2638    0.0000 C   0  0  0  0  0  0  0  0  0  0  0  0
    0.0984  -19.6770    0.0000 O   0  0  0  0  0  0  0  0  0  0  0  0
  1  7  1  0  0  0  0
  1  2  1  0  0  0  0
  2  3  1  6  0  0  0
  2  4  1  0  0  0  0
  3 26  1  0  0  0  0
  4  5  1  1  0  0  0
  4  6  1  0  0  0  0
  5 29  1  0  0  0  0
  6  7  1  0  0  0  0
  6  8  1  0  0  0  0
  6 25  1  6  0  0  0
  8  9  1  6  0  0  0
  8 10  1  0  0  0  0
 10 11  1  0  0  0  0
 11 12  1  0  0  0  0
 12 13  1  0  0  0  0
 12 24  2  0  0  0  0
 13 14  1  0  0  0  0
 14 15  1  0  0  0  0
 15 16  1  0  0  0  0
 16 17  1  0  0  0  0
 17 18  1  0  0  0  0
 18 19  1  0  0  0  0
 19 20  1  0  0  0  0
 20 21  1  0  0  0  0
 21 22  1  0  0  0  0
 22 23  1  0  0  0  0
 26 27  1  0  0  0  0
 27 28  1  0  0  0  0
 29 30  1  0  0  0  0
 30 31  1  0  0  0  0
M  END
> <ID>
5930

> <Formula>
C22H42O8

> <FW>
434.5641

> <DSSTox_CID>
9300

> <DSSTox_RID>
78755

> <DSSTox_GSID>
29300

> <DSSTox_FileID_Sort>
3437

> <TS_ChemName>
Polysorbate 60

> <TS_ChemName_Synonyms>
Polysorbate 60 (Sorbitan, monooctadecanoate, poly(oxy-1,2-ethanediyl) derivs.)

> <TS_CASRN>
9005-67-8

> <CASRN_ChemName_Relationship>
primary

> <TS_Description>
polymer

> <ChemNote>


> <STRUCTURE_Shown>
monomer of polymer

> <STRUCTURE_Formula>
C22H42O8

> <STRUCTURE_MW>
434.5641

> <STRUCTURE_ChemType>
defined organic

> <STRUCTURE_DefinedOrganicForm>
parent

> <STRUCTURE_IUPAC>
1,4-anhydro-6-O-dodecanoyl-2,3-bis-O-(2-hydroxyethyl)-D-glucitol

> <STRUCTURE_SMILES>
OCCO[C@H]1CO[C@@H]([C@@H]1OCCO)[C@H](O)COC(=O)CCCCCCCCCCC

> <STRUCTURE_SMILES_Desalt>
OCCO[C@H]1CO[C@@H]([C@@H]1OCCO)[C@H](O)COC(=O)CCCCCCCCCCC

> <Substance_modify_yyyymmdd>
20080429

$$$$
