9005-00-9
ChemmineR-0915142007XD

 22 21  0  0  0  0  0  0  0  0  1 V2000
   24.0761    0.0000    0.0000 O   0  0  0  0  0  0  0  0  0  0  0  0
   22.9204   -0.6741    0.0000 C   0  0  0  0  0  0  0  0  0  0  0  0
   21.7888    0.0000    0.0000 C   0  0  0  0  0  0  0  0  0  0  0  0
   20.6573   -0.6741    0.0000 O   0  0  0  0  0  0  0  0  0  0  0  0
   19.5016    0.0000    0.0000 C   0  0  0  0  0  0  0  0  0  0  0  0
   18.3460   -0.6741    0.0000 C   0  0  0  0  0  0  0  0  0  0  0  0
   17.1903    0.0000    0.0000 C   0  0  0  0  0  0  0  0  0  0  0  0
   16.0587   -0.6741    0.0000 C   0  0  0  0  0  0  0  0  0  0  0  0
   14.9031    0.0000    0.0000 C   0  0  0  0  0  0  0  0  0  0  0  0
   13.7474   -0.6741    0.0000 C   0  0  0  0  0  0  0  0  0  0  0  0
   12.6159    0.0000    0.0000 C   0  0  0  0  0  0  0  0  0  0  0  0
   11.4602   -0.6741    0.0000 C   0  0  0  0  0  0  0  0  0  0  0  0
   10.3286    0.0000    0.0000 C   0  0  0  0  0  0  0  0  0  0  0  0
    9.1730   -0.6741    0.0000 C   0  0  0  0  0  0  0  0  0  0  0  0
    8.0173    0.0000    0.0000 C   0  0  0  0  0  0  0  0  0  0  0  0
    6.8858   -0.6741    0.0000 C   0  0  0  0  0  0  0  0  0  0  0  0
    5.7301    0.0000    0.0000 C   0  0  0  0  0  0  0  0  0  0  0  0
    4.5745   -0.6741    0.0000 C   0  0  0  0  0  0  0  0  0  0  0  0
    3.4188    0.0000    0.0000 C   0  0  0  0  0  0  0  0  0  0  0  0
    2.2872   -0.6741    0.0000 C   0  0  0  0  0  0  0  0  0  0  0  0
    1.1557    0.0000    0.0000 C   0  0  0  0  0  0  0  0  0  0  0  0
    0.0000   -0.6741    0.0000 C   0  0  0  0  0  0  0  0  0  0  0  0
  1  2  1  0  0  0  0
  2  3  1  0  0  0  0
  3  4  1  0  0  0  0
  4  5  1  0  0  0  0
  5  6  1  0  0  0  0
  6  7  1  0  0  0  0
  7  8  1  0  0  0  0
  8  9  1  0  0  0  0
  9 10  1  0  0  0  0
 10 11  1  0  0  0  0
 11 12  1  0  0  0  0
 12 13  1  0  0  0  0
 13 14  1  0  0  0  0
 14 15  1  0  0  0  0
 15 16  1  0  0  0  0
 16 17  1  0  0  0  0
 17 18  1  0  0  0  0
 18 19  1  0  0  0  0
 19 20  1  0  0  0  0
 20 21  1  0  0  0  0
 21 22  1  0  0  0  0
M  END
> <ID>
5929

> <Formula>
C20H42O2

> <FW>
314.5463

> <DSSTox_CID>
9299

> <DSSTox_RID>
78754

> <DSSTox_GSID>
29299

> <DSSTox_FileID_Sort>
3436

> <TS_ChemName>
Poly(oxy-1,2-ethanediyl), .alpha.-octadecyl-.omega.-hydroxy-

> <TS_ChemName_Synonyms>


> <TS_CASRN>
9005-00-9

> <CASRN_ChemName_Relationship>
primary

> <TS_Description>
polymer

> <ChemNote>


> <STRUCTURE_Shown>
monomer of polymer

> <STRUCTURE_Formula>
C20H42O2

> <STRUCTURE_MW>
314.5463

> <STRUCTURE_ChemType>
defined organic

> <STRUCTURE_DefinedOrganicForm>
parent

> <STRUCTURE_IUPAC>
2-(octadecyloxy)ethanol

> <STRUCTURE_SMILES>
OCCOCCCCCCCCCCCCCCCCCC

> <STRUCTURE_SMILES_Desalt>
OCCOCCCCCCCCCCCCCCCCCC

> <Substance_modify_yyyymmdd>
20080429

$$$$
