9005-65-6
ChemmineR-0915142007XD

 42 42  0  0  0  0  0  0  0  0  1 V2000
    6.6313   -5.7452    0.0000 C   0  0  0  0  0  0  0  0  0  0  0  0
    7.9747   -5.7452    0.0000 C   0  0  0  0  0  0  0  0  0  0  0  0
    8.6321   -4.6019    0.0000 C   0  0  0  0  0  0  0  0  0  0  0  0
    9.9469   -4.6019    0.0000 O   0  0  0  0  0  0  0  0  0  0  0  0
   10.6329   -3.4300    0.0000 C   0  0  0  0  0  0  0  0  0  0  0  0
    9.9469   -2.2867    0.0000 C   0  0  0  0  0  0  0  0  0  0  0  0
   10.6329   -1.1433    0.0000 O   0  0  0  0  0  0  0  0  0  0  0  0
   11.9478   -1.1433    0.0000 C   0  0  0  0  0  0  0  0  0  0  0  0
   12.6052   -2.2867    0.0000 O   0  0  0  0  0  0  0  0  0  0  0  0
   12.6052    0.0000    0.0000 C   0  0  0  0  0  0  0  0  0  0  0  0
   13.9486    0.0000    0.0000 C   0  0  0  0  0  0  0  0  0  0  0  0
   14.6060   -1.1433    0.0000 C   0  0  0  0  0  0  0  0  0  0  0  0
   15.9494   -1.1433    0.0000 C   0  0  0  0  0  0  0  0  0  0  0  0
   16.6068   -2.2867    0.0000 C   0  0  0  0  0  0  0  0  0  0  0  0
   17.9502   -2.2867    0.0000 C   0  0  0  0  0  0  0  0  0  0  0  0
   18.6077   -3.4300    0.0000 C   0  0  0  0  0  0  0  0  0  0  0  0
   19.9225   -3.4300    0.0000 C   0  0  0  0  0  0  0  0  0  0  0  0
   20.6085   -4.6019    0.0000 C   0  0  0  0  0  0  0  0  0  0  0  0
   21.9233   -4.6019    0.0000 C   0  0  0  0  0  0  0  0  0  0  0  0
   22.6093   -5.7452    0.0000 C   0  0  0  0  0  0  0  0  0  0  0  0
   23.9241   -5.7452    0.0000 C   0  0  0  0  0  0  0  0  0  0  0  0
   24.5815   -6.8885    0.0000 C   0  0  0  0  0  0  0  0  0  0  0  0
   25.9249   -6.8885    0.0000 C   0  0  0  0  0  0  0  0  0  0  0  0
   26.5824   -8.0605    0.0000 C   0  0  0  0  0  0  0  0  0  0  0  0
   27.9258   -8.0605    0.0000 C   0  0  0  0  0  0  0  0  0  0  0  0
   28.5832   -9.2038    0.0000 C   0  0  0  0  0  0  0  0  0  0  0  0
    8.6321   -6.8885    0.0000 O   0  0  0  0  0  0  0  0  0  0  0  0
    9.9469   -6.8885    0.0000 C   0  0  0  0  0  0  0  0  0  0  0  0
   10.6329   -5.7452    0.0000 C   0  0  0  0  0  0  0  0  0  0  0  0
   11.9478   -5.7452    0.0000 O   0  0  0  0  0  0  0  0  0  0  0  0
    5.8596   -6.8314    0.0000 O   0  0  0  0  0  0  0  0  0  0  0  0
    4.5733   -6.4026    0.0000 C   0  0  0  0  0  0  0  0  0  0  0  0
    3.5157   -7.2030    0.0000 O   0  0  0  0  0  0  0  0  0  0  0  0
    2.2867   -6.6599    0.0000 C   0  0  0  0  0  0  0  0  0  0  0  0
    1.2291   -7.4316    0.0000 C   0  0  0  0  0  0  0  0  0  0  0  0
    0.0000   -6.8885    0.0000 O   0  0  0  0  0  0  0  0  0  0  0  0
    4.5733   -5.0878    0.0000 C   0  0  0  0  0  0  0  0  0  0  0  0
    5.8596   -4.6591    0.0000 C   0  0  0  0  0  0  0  0  0  0  0  0
    6.2597   -3.4014    0.0000 O   0  0  0  0  0  0  0  0  0  0  0  0
    5.3165   -2.4582    0.0000 C   0  0  0  0  0  0  0  0  0  0  0  0
    4.0302   -2.8012    0.0000 C   0  0  0  0  0  0  0  0  0  0  0  0
    3.0870   -1.8579    0.0000 O   0  0  0  0  0  0  0  0  0  0  0  0
  1  2  1  0  0  0  0
  1 31  1  0  0  0  0
  1 38  1  0  0  0  0
  2  3  1  0  0  0  0
  2 27  1  0  0  0  0
  3  4  1  0  0  0  0
  4  5  1  0  0  0  0
  5  6  1  0  0  0  0
  6  7  1  0  0  0  0
  7  8  1  0  0  0  0
  8  9  2  0  0  0  0
  8 10  1  0  0  0  0
 10 11  1  0  0  0  0
 11 12  1  0  0  0  0
 12 13  1  0  0  0  0
 13 14  1  0  0  0  0
 14 15  1  0  0  0  0
 15 16  1  0  0  0  0
 16 17  1  0  0  0  0
 17 18  2  0  0  0  0
 18 19  1  0  0  0  0
 19 20  1  0  0  0  0
 20 21  1  0  0  0  0
 21 22  1  0  0  0  0
 22 23  1  0  0  0  0
 23 24  1  0  0  0  0
 24 25  1  0  0  0  0
 25 26  1  0  0  0  0
 27 28  1  0  0  0  0
 28 29  1  0  0  0  0
 29 30  1  0  0  0  0
 31 32  1  0  0  0  0
 32 33  1  0  0  0  0
 32 37  1  0  0  0  0
 33 34  1  0  0  0  0
 34 35  1  0  0  0  0
 35 36  1  0  0  0  0
 37 38  1  0  0  0  0
 38 39  1  0  0  0  0
 39 40  1  0  0  0  0
 40 41  1  0  0  0  0
 41 42  1  0  0  0  0
M  END
> <ID>
1129

> <Formula>
C32H60O10

> <FW>
604.8128

> <DSSTox_CID>
1175

> <DSSTox_RID>
75992

> <DSSTox_GSID>
21175

> <DSSTox_FileID_Sort>
676

> <TS_ChemName>
Polysorbate 80

> <TS_ChemName_Synonyms>
Polysorbate 80 (glycol)

> <TS_CASRN>
9005-65-6

> <CASRN_ChemName_Relationship>
primary

> <TS_Description>
polymer

> <ChemNote>
approx of polymer; see Merck v12 no 7742; molecular weight approx. 1315

> <STRUCTURE_Shown>
monomer of polymer

> <STRUCTURE_Formula>
C32H60O10

> <STRUCTURE_MW>
604.8128

> <STRUCTURE_ChemType>
defined organic

> <STRUCTURE_DefinedOrganicForm>
parent

> <STRUCTURE_IUPAC>
2-hydroxyethyl 2-deoxy-3,5-bis-O-(2-hydroxyethyl)-6-O-{2-[(9E)-octadec-9-enoyloxy]ethyl}hexofuranoside

> <STRUCTURE_SMILES>
OCCOC1CC(OCCO)C(O1)C(COCCOC(=O)CCCCCCC\C=C\CCCCCCCC)OCCO

> <STRUCTURE_SMILES_Desalt>
OCCOC1CC(OCCO)C(O1)C(COCCOC(=O)CCCCCCC\C=C\CCCCCCCC)OCCO

> <Substance_modify_yyyymmdd>
20080429

$$$$
