90098-04-7
ChemmineR-0915142007XD

 26 28  0  0  0  0  0  0  0  0  1 V2000
    2.2940   -2.0025    0.0000 C    0  0  0  0  0  0  0  0  0  0  0  0
    3.4473   -2.6616    0.0000 C    0  0  0  0  0  0  0  0  0  0  0  0
    1.1533   -2.6616    0.0000 C    0  0  0  0  0  0  0  0  0  0  0  0
    2.2940   -0.6717    0.0000 C    0  0  0  0  0  0  0  0  0  0  0  0
    4.6007   -2.0025    0.0000 C    0  0  0  0  0  0  0  0  0  0  0  0
    3.4473   -3.9923    0.0000 C    0  0  0  0  0  0  0  0  0  0  0  0
    1.1533   -3.9923    0.0000 N    0  0  0  0  0  0  0  0  0  0  0  0
    0.0000   -2.0025    0.0000 C    0  0  0  0  0  0  0  0  0  0  0  0
    1.1533    0.0000    0.0000 C    0  0  0  0  0  0  0  0  0  0  0  0
    5.7540   -2.6616    0.0000 C    0  0  0  0  0  0  0  0  0  0  0  0
    2.2940   -4.6641    0.0000 C    0  0  0  0  0  0  0  0  0  0  0  0
    0.0000   -0.6717    0.0000 C    0  0  0  0  0  0  0  0  0  0  0  0
    6.9200   -2.0025    0.0000 N    0  0  0  0  0  0  0  0  0  0  0  0
    5.7540   -3.9923    0.0000 C    0  0  0  0  0  0  0  0  0  0  0  0
    2.2940   -5.9948    0.0000 O    0  0  0  0  0  0  0  0  0  0  0  0
    8.0734   -2.6616    0.0000 C    0  0  0  0  0  0  0  0  0  0  0  0
    6.9200   -4.6641    0.0000 O    0  0  0  0  0  0  0  0  0  0  0  0
    4.6007   -4.6641    0.0000 O    0  0  0  0  0  0  0  0  0  0  0  0
    9.2267   -2.0025    0.0000 C    0  0  0  0  0  0  0  0  0  0  0  0
    8.0734   -3.9923    0.0000 O    0  0  0  0  0  0  0  0  0  0  0  0
    9.2267   -0.6717    0.0000 C    0  0  0  0  0  0  0  0  0  0  0  0
   10.3800   -2.6616    0.0000 C    0  0  0  0  0  0  0  0  0  0  0  0
   10.3800    0.0000    0.0000 C    0  0  0  0  0  0  0  0  0  0  0  0
   11.5207   -2.0025    0.0000 C    0  0  0  0  0  0  0  0  0  0  0  0
   11.5207   -0.6717    0.0000 C    0  0  0  0  0  0  0  0  0  0  0  0
   12.6741    0.0000    0.0000 Cl   0  0  0  0  0  0  0  0  0  0  0  0
  1  2  1  0  0  0  0
  1  3  1  0  0  0  0
  1  4  2  0  0  0  0
  2  5  1  0  0  0  0
  2  6  2  0  0  0  0
  3  7  1  0  0  0  0
  3  8  2  0  0  0  0
  4  9  1  0  0  0  0
  5 10  1  0  0  0  0
  6 11  1  0  0  0  0
  7 11  1  0  0  0  0
  8 12  1  0  0  0  0
  9 12  2  0  0  0  0
 10 13  1  0  0  0  0
 10 14  1  0  0  0  0
 11 15  2  0  0  0  0
 13 16  1  0  0  0  0
 14 17  1  0  0  0  0
 14 18  2  0  0  0  0
 16 19  1  0  0  0  0
 16 20  2  0  0  0  0
 19 21  1  0  0  0  0
 19 22  2  0  0  0  0
 21 23  2  0  0  0  0
 22 24  1  0  0  0  0
 23 25  1  0  0  0  0
 24 25  2  0  0  0  0
 25 26  1  0  0  0  0
M  END
> <ID>
11303

> <Formula>
C19H15ClN2O4

> <FW>
370.7864

> <DSSTox_CID>
25937

> <DSSTox_RID>
81235

> <DSSTox_GSID>
45937

> <DSSTox_FileID_Sort>
5916

> <TS_ChemName>
Rebamipide

> <TS_ChemName_Synonyms>


> <TS_CASRN>
90098-04-7

> <CASRN_ChemName_Relationship>
primary

> <TS_Description>
single chemical compound

> <ChemNote>


> <STRUCTURE_Shown>
tested chemical

> <STRUCTURE_Formula>
C19H15ClN2O4

> <STRUCTURE_MW>
370.7864

> <STRUCTURE_ChemType>
defined organic

> <STRUCTURE_DefinedOrganicForm>
parent

> <STRUCTURE_IUPAC>
N-(4-chlorobenzoyl)-3-(2-oxo-1,2-dihydroquinolin-4-yl)alanine

> <STRUCTURE_SMILES>
Clc1ccc(cc1)C(=O)NC(CC3=CC(=O)Nc2ccccc23)C(=O)O

> <STRUCTURE_SMILES_Desalt>
Clc1ccc(cc1)C(=O)NC(CC3=CC(=O)Nc2ccccc23)C(=O)O

> <Substance_modify_yyyymmdd>
20110930

$$$$
