9011-04-5
ChemmineR-0915142007XD

 17 15  0  0  0  0  0  0  0  0  1 V2000
    2.3063   -1.3238    0.0000 C    0  0  0  0  0  0  0  0  0  0  0  0
    3.4543   -1.9960    0.0000 C    0  0  0  0  0  0  0  0  0  0  0  0
    4.6022   -1.3238    0.0000 C    0  0  0  0  0  0  0  0  0  0  0  0
    5.7502   -1.9960    0.0000 C    0  0  0  0  0  0  0  0  0  0  0  0
    6.9085   -1.3238    0.0000 C    0  0  0  0  0  0  0  0  0  0  0  0
    8.0565   -1.9960    0.0000 C    0  0  0  0  0  0  0  0  0  0  0  0
    1.1480   -1.9960    0.0000 N    0  0  0  0  0  0  0  0  0  0  0  0
    9.1942   -1.3238    0.0000 N    0  0  0  0  0  0  0  0  0  0  0  0
    0.0000   -1.3238    0.0000 C    0  0  0  0  0  0  0  0  0  0  0  0
    1.1480   -3.3198    0.0000 C    0  0  0  0  0  0  0  0  0  0  0  0
   10.3421   -1.9960    0.0000 C    0  0  0  0  0  0  0  0  0  0  0  0
    9.1942    0.0000    0.0000 C    0  0  0  0  0  0  0  0  0  0  0  0
    6.6293   -3.4439    0.0000 C    0  0  0  0  0  0  0  0  0  0  0  0
    7.7669   -4.1369    0.0000 C    0  0  0  0  0  0  0  0  0  0  0  0
    8.9356   -3.4956    0.0000 C    0  0  0  0  0  0  0  0  0  0  0  0
    5.4710   -4.1058    0.0000 Br   0  0  0  0  0  0  0  0  0  0  0  0
   10.0732   -4.1679    0.0000 Br   0  0  0  0  0  0  0  0  0  0  0  0
  1  2  1  0  0  0  0
  1  7  1  0  0  0  0
  2  3  1  0  0  0  0
  3  4  1  0  0  0  0
  4  5  1  0  0  0  0
  5  6  1  0  0  0  0
  6  8  1  0  0  0  0
  7  9  1  0  0  0  0
  7 10  1  0  0  0  0
  8 11  1  0  0  0  0
  8 12  1  0  0  0  0
 13 14  1  0  0  0  0
 13 16  1  0  0  0  0
 14 15  1  0  0  0  0
 15 17  1  0  0  0  0
M  END
> <ID>
7396

> <Formula>
C13H30Br2N2

> <FW>
374.1987 (172.3110+201.8877)

> <DSSTox_CID>
17684

> <DSSTox_RID>
79354

> <DSSTox_GSID>
37684

> <DSSTox_FileID_Sort>
4036

> <TS_ChemName>
Polybrene

> <TS_ChemName_Synonyms>


> <TS_CASRN>
9011-04-5

> <CASRN_ChemName_Relationship>
primary

> <TS_Description>
polymer

> <ChemNote>
ammonium

> <STRUCTURE_Shown>
monomer of polymer

> <STRUCTURE_Formula>
C13H30Br2N2

> <STRUCTURE_MW>
374.1987

> <STRUCTURE_ChemType>
defined organic

> <STRUCTURE_DefinedOrganicForm>
complex

> <STRUCTURE_IUPAC>
N,N,N',N'-tetramethylhexane-1,6-diamine - 1,3-dibromopropane (1:1)

> <STRUCTURE_SMILES>
CN(C)CCCCCCN(C)C.BrCCCBr

> <STRUCTURE_SMILES_Desalt>
CN(C)CCCCCCN(C)C

> <Substance_modify_yyyymmdd>
20110608

$$$$
