9013-34-7
ChemmineR-0915142007XD

 26 26  0  0  1  0  0  0  0  0  1 V2000
    8.6373   -6.8931    0.0000 C   0  0  0  0  0  0  0  0  0  0  0  0
    7.9675   -8.0512    0.0000 C   0  0  0  0  0  0  0  0  0  0  0  0
    7.9675   -5.7489    0.0000 O   0  0  0  0  0  0  0  0  0  0  0  0
    6.6280   -8.0512    0.0000 C   0  0  0  0  0  0  0  0  0  0  0  0
    6.6280   -5.7489    0.0000 C   0  0  0  0  0  0  0  0  0  0  0  0
    5.9722   -6.8931    0.0000 C   0  0  0  0  0  0  0  0  0  0  0  0
    9.9629   -6.8931    0.0000 O   0  0  0  0  0  0  0  0  0  0  0  0
    8.6373   -9.2094    0.0000 O   0  0  0  0  0  0  0  0  0  0  0  0
    5.9722   -9.2094    0.0000 O   0  0  0  0  0  0  0  0  0  0  0  0
    4.6466   -6.8931    0.0000 O   0  0  0  0  0  0  0  0  0  0  0  0
    5.9722   -4.5907    0.0000 C   0  0  0  0  0  0  0  0  0  0  0  0
    4.6466   -4.5907    0.0000 O   0  0  0  0  0  0  0  0  0  0  0  0
    3.9907   -3.4326    0.0000 C   0  0  0  0  0  0  0  0  0  0  0  0
    2.6651   -3.4326    0.0000 C   0  0  0  0  0  0  0  0  0  0  0  0
    1.9814   -2.3023    0.0000 N   0  0  0  0  0  0  0  0  0  0  0  0
    0.6558   -2.3023    0.0000 C   0  0  0  0  0  0  0  0  0  0  0  0
    2.6651   -1.1442    0.0000 C   0  0  0  0  0  0  0  0  0  0  0  0
    1.9814    0.0000    0.0000 C   0  0  0  0  0  0  0  0  0  0  0  0
    0.0000   -1.1442    0.0000 C   0  0  0  0  0  0  0  0  0  0  0  0
    9.9629   -9.2094    0.0000 C   0  0  0  0  0  0  0  0  0  0  0  0
   10.6187  -10.3536    0.0000 C   0  0  0  0  0  0  0  0  0  0  0  0
   11.9443  -10.3536    0.0000 N   0  0  0  0  0  0  0  0  0  0  0  0
   12.6280  -11.5117    0.0000 C   0  0  0  0  0  0  0  0  0  0  0  0
   13.9536  -11.5117    0.0000 C   0  0  0  0  0  0  0  0  0  0  0  0
   12.6280   -9.2094    0.0000 C   0  0  0  0  0  0  0  0  0  0  0  0
   13.9536   -9.2094    0.0000 C   0  0  0  0  0  0  0  0  0  0  0  0
  1  2  1  0  0  0  0
  1  3  1  0  0  0  0
  1  7  1  1  0  0  0
  2  4  1  0  0  0  0
  2  8  1  6  0  0  0
  3  5  1  0  0  0  0
  4  6  1  0  0  0  0
  4  9  1  1  0  0  0
  5  6  1  0  0  0  0
  5 11  1  1  0  0  0
  6 10  1  6  0  0  0
  8 20  1  0  0  0  0
 11 12  1  0  0  0  0
 12 13  1  0  0  0  0
 13 14  1  0  0  0  0
 14 15  1  0  0  0  0
 15 16  1  0  0  0  0
 15 17  1  0  0  0  0
 16 19  1  0  0  0  0
 17 18  1  0  0  0  0
 20 21  1  0  0  0  0
 21 22  1  0  0  0  0
 22 23  1  0  0  0  0
 22 25  1  0  0  0  0
 23 24  1  0  0  0  0
 25 26  1  0  0  0  0
M  END
> <ID>
11995

> <Formula>
C18H38N2O6

> <FW>
378.5041

> <DSSTox_CID>
26819

> <DSSTox_RID>
81931

> <DSSTox_GSID>
46819

> <DSSTox_FileID_Sort>
6612

> <TS_ChemName>
Diethylaminoethyl-sephacel

> <TS_ChemName_Synonyms>


> <TS_CASRN>
9013-34-7

> <CASRN_ChemName_Relationship>
primary

> <TS_Description>
polymer

> <ChemNote>
stereochem; aqueous ethanol suspension; 40-160 micrometer; 1000000 molecular weight

> <STRUCTURE_Shown>
monomer of polymer

> <STRUCTURE_Formula>
C18H38N2O6

> <STRUCTURE_MW>
378.5041

> <STRUCTURE_ChemType>
defined organic

> <STRUCTURE_DefinedOrganicForm>
parent

> <STRUCTURE_IUPAC>
2,6-bis-O-[2-(diethylamino)ethyl]-beta-D-glucopyranose

> <STRUCTURE_SMILES>
O[C@@H]1O[C@H](COCCN(CC)CC)[C@@H](O)[C@H](O)[C@H]1OCCN(CC)CC

> <STRUCTURE_SMILES_Desalt>
O[C@@H]1O[C@H](COCCN(CC)CC)[C@@H](O)[C@H](O)[C@H]1OCCN(CC)CC

> <Substance_modify_yyyymmdd>
20100107

$$$$
