90162-60-0
ChemmineR-0915142007XD

 17 18  0  0  0  0  0  0  0  0  1 V2000
    1.1559   -4.5433    0.0000 C   0  0  0  0  0  0  0  0  0  0  0  0
    1.1559   -3.2118    0.0000 N   0  0  0  0  0  0  0  0  0  0  0  0
    2.3119   -2.5533    0.0000 C   0  0  0  0  0  0  0  0  0  0  0  0
    2.3119   -5.2164    0.0000 N   0  0  0  0  0  0  0  0  0  0  0  0
    3.4678   -4.5433    0.0000 C   0  0  0  0  0  0  0  0  0  0  0  0
    3.4678   -3.2118    0.0000 C   0  0  0  0  0  0  0  0  0  0  0  0
    4.7335   -2.8094    0.0000 N   0  0  0  0  0  0  0  0  0  0  0  0
    5.5017   -3.8848    0.0000 C   0  0  0  0  0  0  0  0  0  0  0  0
    4.7335   -4.9603    0.0000 N   0  0  0  0  0  0  0  0  0  0  0  0
    2.3119   -6.5479    0.0000 C   0  0  0  0  0  0  0  0  0  0  0  0
    0.0000   -5.2164    0.0000 O   0  0  0  0  0  0  0  0  0  0  0  0
    0.0000   -2.5533    0.0000 C   0  0  0  0  0  0  0  0  0  0  0  0
    2.3119   -1.2218    0.0000 O   0  0  0  0  0  0  0  0  0  0  0  0
    5.1359   -1.5437    0.0000 C   0  0  0  0  0  0  0  0  0  0  0  0
    6.4308   -1.2730    0.0000 C   0  0  0  0  0  0  0  0  0  0  0  0
    6.8478    0.0000    0.0000 C   0  0  0  0  0  0  0  0  0  0  0  0
    7.3161   -2.2460    0.0000 C   0  0  0  0  0  0  0  0  0  0  0  0
  1 11  2  0  0  0  0
  1  2  1  0  0  0  0
  1  4  1  0  0  0  0
  2 12  1  0  0  0  0
  2  3  1  0  0  0  0
  3 13  2  0  0  0  0
  3  6  1  0  0  0  0
  4  5  1  0  0  0  0
  4 10  1  0  0  0  0
  5  9  1  0  0  0  0
  5  6  2  0  0  0  0
  6  7  1  0  0  0  0
  7 14  1  0  0  0  0
  7  8  1  0  0  0  0
  8  9  2  0  0  0  0
 14 15  1  0  0  0  0
 15 16  1  0  0  0  0
 15 17  1  0  0  0  0
M  END
> <ID>
11954

> <Formula>
C11H16N4O2

> <FW>
236.2703

> <DSSTox_CID>
26767

> <DSSTox_RID>
81890

> <DSSTox_GSID>
46767

> <DSSTox_FileID_Sort>
6571

> <TS_ChemName>
Isbufylline

> <TS_ChemName_Synonyms>


> <TS_CASRN>
90162-60-0

> <CASRN_ChemName_Relationship>
primary

> <TS_Description>
single chemical compound

> <ChemNote>


> <STRUCTURE_Shown>
tested chemical

> <STRUCTURE_Formula>
C11H16N4O2

> <STRUCTURE_MW>
236.2703

> <STRUCTURE_ChemType>
defined organic

> <STRUCTURE_DefinedOrganicForm>
parent

> <STRUCTURE_IUPAC>
1,3-dimethyl-7-(2-methylpropyl)-3,7-dihydro-1H-purine-2,6-dione

> <STRUCTURE_SMILES>
CC(C)Cn2cnc1c2C(=O)N(C)C(=O)N1C

> <STRUCTURE_SMILES_Desalt>
CC(C)Cn2cnc1c2C(=O)N(C)C(=O)N1C

> <Substance_modify_yyyymmdd>
20110802

$$$$
