9016-00-6
ChemmineR-0915142007XD

  4  3  0  0  0  0  0  0  0  0  1 V2000
    0.0000   -1.2513    0.0000 Si   0  0  0  0  0  0  0  0  0  0  0  0
    1.4866   -1.2513    0.0000 O    0  0  0  0  0  0  0  0  0  0  0  0
    0.0300    0.0000    0.0000 C    0  0  0  0  0  0  0  0  0  0  0  0
    0.0300   -2.5027    0.0000 C    0  0  0  0  0  0  0  0  0  0  0  0
  1  2  2  0  0  0  0
  1  3  1  0  0  0  0
  1  4  1  0  0  0  0
M  END
> <ID>
3382

> <Formula>
C2H6OSi

> <FW>
74.1539

> <DSSTox_CID>
3833

> <DSSTox_RID>
77201

> <DSSTox_GSID>
23833

> <DSSTox_FileID_Sort>
1884

> <TS_ChemName>
Polydimethylsiloxane

> <TS_ChemName_Synonyms>
Polydimethylsiloxane (silicone) (Poly[oxy(dimethylsilylene)])

> <TS_CASRN>
9016-00-6

> <CASRN_ChemName_Relationship>
primary

> <TS_Description>
polymer

> <ChemNote>


> <STRUCTURE_Shown>
monomer of polymer

> <STRUCTURE_Formula>
C2H6OSi

> <STRUCTURE_MW>
74.1539

> <STRUCTURE_ChemType>
organometallic

> <STRUCTURE_DefinedOrganicForm>


> <STRUCTURE_IUPAC>
dimethyl(oxo)silane

> <STRUCTURE_SMILES>
C[Si](C)=O

> <STRUCTURE_SMILES_Desalt>
C[Si](C)=O

> <Substance_modify_yyyymmdd>
20080429

$$$$
