902261-63-6
ChemmineR-0915142007XD

 23 25  0  0  0  0  0  0  0  0  1 V2000
    0.0000   -2.1693    0.0000 N   0  0  0  0  0  0  0  0  0  0  0  0
    1.1221   -0.1389    0.0000 N   0  0  0  0  0  0  0  0  0  0  0  0
    0.0000   -0.8015    0.0000 C   0  0  0  0  0  0  0  0  0  0  0  0
    2.2975   -2.1693    0.0000 C   0  0  0  0  0  0  0  0  0  0  0  0
    1.1221   -2.8319    0.0000 C   0  0  0  0  0  0  0  0  0  0  0  0
    2.2975   -0.8015    0.0000 C   0  0  0  0  0  0  0  0  0  0  0  0
    3.5692   -0.4274    0.0000 N   0  0  0  0  0  0  0  0  0  0  0  0
    4.3707   -1.4854    0.0000 C   0  0  0  0  0  0  0  0  0  0  0  0
    3.5692   -2.5540    0.0000 C   0  0  0  0  0  0  0  0  0  0  0  0
    1.1221   -4.1356    0.0000 O   0  0  0  0  0  0  0  0  0  0  0  0
    3.9860   -3.8257    0.0000 C   0  0  0  0  0  0  0  0  0  0  0  0
    5.3004   -4.0928    0.0000 N   0  0  0  0  0  0  0  0  0  0  0  0
    6.2087   -3.0776    0.0000 C   0  0  0  0  0  0  0  0  0  0  0  0
    5.6958   -5.3431    0.0000 C   0  0  0  0  0  0  0  0  0  0  0  0
    7.4911   -3.3769    0.0000 C   0  0  0  0  0  0  0  0  0  0  0  0
    6.9995   -5.6317    0.0000 C   0  0  0  0  0  0  0  0  0  0  0  0
    7.9078   -4.6592    0.0000 C   0  0  0  0  0  0  0  0  0  0  0  0
    9.5321    0.0000    0.0000 N   0  0  0  0  0  0  0  0  0  0  0  0
   10.6862   -0.6412    0.0000 C   0  0  0  0  0  0  0  0  0  0  0  0
    8.3994   -0.6412    0.0000 C   0  0  0  0  0  0  0  0  0  0  0  0
   10.6862   -1.9663    0.0000 C   0  0  0  0  0  0  0  0  0  0  0  0
    8.3994   -1.9663    0.0000 C   0  0  0  0  0  0  0  0  0  0  0  0
    9.5321   -2.6181    0.0000 C   0  0  0  0  0  0  0  0  0  0  0  0
  1  3  1  0  0  0  0
  1  5  1  0  0  0  0
  2  3  2  0  0  0  0
  2  6  1  0  0  0  0
  4  5  1  0  0  0  0
  4  6  2  0  0  0  0
  4  9  1  0  0  0  0
  5 10  2  0  0  0  0
  6  7  1  0  0  0  0
  7  8  1  0  0  0  0
  8  9  2  0  0  0  0
  9 11  1  0  0  0  0
 11 12  1  0  0  0  0
 12 13  1  0  0  0  0
 12 14  1  0  0  0  0
 13 15  1  0  0  0  0
 14 16  1  0  0  0  0
 15 17  1  0  0  0  0
 16 17  1  0  0  0  0
 18 19  1  0  0  0  0
 18 20  1  0  0  0  0
 19 21  1  0  0  0  0
 20 22  1  0  0  0  0
 21 23  1  0  0  0  0
 22 23  1  0  0  0  0
M  END
> <ID>
13758

> <Formula>
C17H27N5O

> <FW>
317.4292 (232.2816+85.1475)

> <DSSTox_CID>
28694

> <DSSTox_RID>
82964

> <DSSTox_GSID>
48768

> <DSSTox_FileID_Sort>
7641

> <TS_ChemName>
4H-Pyrrolo[2,3-d]pyrimidin-4-one, 3,7-dihydro-5-(1-piperidinylmethyl)-

> <TS_ChemName_Synonyms>
4H-Pyrrolo[2,3-d]pyrimidin-4-one, 3,7-dihydro-5-(1-piperidinylmethyl)- and piperidine mixture

> <TS_CASRN>
902261-63-6

> <CASRN_ChemName_Relationship>
primary

> <TS_Description>
single chemical compound

> <ChemNote>
1:1 mixture of 5-(piperidin-1-ylmethyl)-3,7-dihydro-4H-pyrrolo[2,3-d]pyrimidin-4-one [902261-63-6] and piperidine[110-89-4]; tautomers

> <STRUCTURE_Shown>
tested chemical

> <STRUCTURE_Formula>
C17H27N5O

> <STRUCTURE_MW>
317.4292

> <STRUCTURE_ChemType>
defined organic

> <STRUCTURE_DefinedOrganicForm>
complex

> <STRUCTURE_IUPAC>
5-(piperidin-1-ylmethyl)-3,7-dihydro-4H-pyrrolo[2,3-d]pyrimidin-4-one - piperidine (1:1)

> <STRUCTURE_SMILES>
O=C2NC=Nc3ncc(CN1CCCCC1)c23.C1CCCCN1

> <STRUCTURE_SMILES_Desalt>
O=C2NC=Nc3ncc(CN1CCCCC1)c23

> <Substance_modify_yyyymmdd>
20111224

$$$$
