90274-24-1
ChemmineR-0915142007XD

 23 23  0  0  0  0  0  0  0  0  1 V2000
    9.1929   -2.6640    0.0000 C    0  0  0  0  0  0  0  0  0  0  0  0
    8.0472   -2.0014    0.0000 C    0  0  0  0  0  0  0  0  0  0  0  0
    8.0472   -0.6625    0.0000 C    0  0  0  0  0  0  0  0  0  0  0  0
    9.1929    0.0000    0.0000 C    0  0  0  0  0  0  0  0  0  0  0  0
   10.3385   -0.6625    0.0000 C    0  0  0  0  0  0  0  0  0  0  0  0
   11.4980    0.0000    0.0000 C    0  0  0  0  0  0  0  0  0  0  0  0
   12.6574   -0.6625    0.0000 C    0  0  0  0  0  0  0  0  0  0  0  0
   12.6574   -2.0014    0.0000 C    0  0  0  0  0  0  0  0  0  0  0  0
   13.8031   -2.6640    0.0000 O    0  0  0  0  0  0  0  0  0  0  0  0
   11.4980   -2.6640    0.0000 C    0  0  0  0  0  0  0  0  0  0  0  0
   10.3385   -2.0014    0.0000 C    0  0  0  0  0  0  0  0  0  0  0  0
    6.9015   -2.6640    0.0000 N    0  0  0  0  0  0  0  0  0  0  0  0
    5.7559   -2.0014    0.0000 C    0  0  0  0  0  0  0  0  0  0  0  0
    4.5964   -2.6640    0.0000 C    0  0  0  0  0  0  0  0  0  0  0  0
    4.5964   -3.9891    0.0000 O    0  0  0  0  0  0  0  0  0  0  0  0
    3.4370   -2.0014    0.0000 C    0  0  0  0  0  0  0  0  0  0  0  0
    2.3051   -2.6640    0.0000 C    0  0  0  0  0  0  0  0  0  0  0  0
    1.1457   -2.0014    0.0000 C    0  0  0  0  0  0  0  0  0  0  0  0
    1.1457   -0.6625    0.0000 C    0  0  0  0  0  0  0  0  0  0  0  0
    0.0000    0.0000    0.0000 O    0  0  0  0  0  0  0  0  0  0  0  0
    2.3051    0.0000    0.0000 C    0  0  0  0  0  0  0  0  0  0  0  0
    3.4370   -0.6625    0.0000 C    0  0  0  0  0  0  0  0  0  0  0  0
    5.6731   -0.0552    0.0000 Cl   0  0  0  0  0  0  0  0  0  0  0  0
  1  2  1  0  0  0  0
  2  3  1  0  0  0  0
  2 12  1  0  0  0  0
  3  4  1  0  0  0  0
  4  5  1  0  0  0  0
  5  6  2  0  0  0  0
  5 11  1  0  0  0  0
  6  7  1  0  0  0  0
  7  8  2  0  0  0  0
  8  9  1  0  0  0  0
  8 10  1  0  0  0  0
 10 11  2  0  0  0  0
 12 13  1  0  0  0  0
 13 14  1  0  0  0  0
 14 15  1  0  0  0  0
 14 16  1  0  0  0  0
 16 17  2  0  0  0  0
 16 22  1  0  0  0  0
 17 18  1  0  0  0  0
 18 19  2  0  0  0  0
 19 20  1  0  0  0  0
 19 21  1  0  0  0  0
 21 22  2  0  0  0  0
M  END
> <ID>
11709

> <Formula>
C18H24ClNO3

> <FW>
337.8411 (301.3801+36.4609)

> <DSSTox_CID>
26471

> <DSSTox_RID>
81643

> <DSSTox_GSID>
46471

> <DSSTox_FileID_Sort>
6324

> <TS_ChemName>
Ractopamine hydrochloride

> <TS_ChemName_Synonyms>


> <TS_CASRN>
90274-24-1

> <CASRN_ChemName_Relationship>
primary

> <TS_Description>
single chemical compound

> <ChemNote>
parent [97825-25-7]

> <STRUCTURE_Shown>
tested chemical

> <STRUCTURE_Formula>
C18H24ClNO3

> <STRUCTURE_MW>
337.8411

> <STRUCTURE_ChemType>
defined organic

> <STRUCTURE_DefinedOrganicForm>
complex

> <STRUCTURE_IUPAC>
4-(1-hydroxy-2-{[4-(4-hydroxyphenyl)butan-2-yl]amino}ethyl)phenol hydrochloride (1:1)

> <STRUCTURE_SMILES>
Cl.OC(CNC(C)CCc1ccc(O)cc1)c2ccc(O)cc2

> <STRUCTURE_SMILES_Desalt>
OC(CNC(C)CCc1ccc(O)cc1)c2ccc(O)cc2

> <Substance_modify_yyyymmdd>
20110812

$$$$
