90293-01-9
ChemmineR-0915142007XD

 20 21  0  0  0  0  0  0  0  0  1 V2000
    0.0000   -4.6124    0.0000 C   0  0  0  0  0  0  0  0  0  0  0  0
    0.6697   -3.4624    0.0000 N   0  0  0  0  0  0  0  0  0  0  0  0
    1.9966   -3.4624    0.0000 C   0  0  0  0  0  0  0  0  0  0  0  0
    2.6663   -2.3125    0.0000 C   0  0  0  0  0  0  0  0  0  0  0  0
    3.9932   -2.3125    0.0000 C   0  0  0  0  0  0  0  0  0  0  0  0
    4.6503   -1.1626    0.0000 C   0  0  0  0  0  0  0  0  0  0  0  0
    5.9897   -1.1626    0.0000 O   0  0  0  0  0  0  0  0  0  0  0  0
    6.6468   -2.3125    0.0000 C   0  0  0  0  0  0  0  0  0  0  0  0
    7.9863   -2.3125    0.0000 C   0  0  0  0  0  0  0  0  0  0  0  0
    8.6434   -1.1626    0.0000 C   0  0  0  0  0  0  0  0  0  0  0  0
    9.9703   -1.1626    0.0000 C   0  0  0  0  0  0  0  0  0  0  0  0
   10.6400    0.0000    0.0000 C   0  0  0  0  0  0  0  0  0  0  0  0
   11.9668    0.0000    0.0000 C   0  0  0  0  0  0  0  0  0  0  0  0
   12.6366   -1.1626    0.0000 C   0  0  0  0  0  0  0  0  0  0  0  0
   11.9668   -2.3125    0.0000 C   0  0  0  0  0  0  0  0  0  0  0  0
   10.6400   -2.3125    0.0000 C   0  0  0  0  0  0  0  0  0  0  0  0
    8.6434   -3.4624    0.0000 C   0  0  0  0  0  0  0  0  0  0  0  0
    7.9863   -4.6124    0.0000 C   0  0  0  0  0  0  0  0  0  0  0  0
    6.6468   -4.6124    0.0000 C   0  0  0  0  0  0  0  0  0  0  0  0
    5.9897   -3.4624    0.0000 C   0  0  0  0  0  0  0  0  0  0  0  0
  1  2  1  0  0  0  0
  2  3  1  0  0  0  0
  3  4  1  0  0  0  0
  4  5  1  0  0  0  0
  5  6  1  0  0  0  0
  6  7  1  0  0  0  0
  7  8  1  0  0  0  0
  8  9  2  0  0  0  0
  8 20  1  0  0  0  0
  9 10  1  0  0  0  0
  9 17  1  0  0  0  0
 10 11  1  0  0  0  0
 11 12  2  0  0  0  0
 11 16  1  0  0  0  0
 12 13  1  0  0  0  0
 13 14  2  0  0  0  0
 14 15  1  0  0  0  0
 15 16  2  0  0  0  0
 17 18  2  0  0  0  0
 18 19  1  0  0  0  0
 19 20  2  0  0  0  0
M  END
> <ID>
11108

> <Formula>
C18H23NO

> <FW>
269.3813

> <DSSTox_CID>
25663

> <DSSTox_RID>
81040

> <DSSTox_GSID>
45663

> <DSSTox_FileID_Sort>
5721

> <TS_ChemName>
Bifemelane

> <TS_ChemName_Synonyms>


> <TS_CASRN>
90293-01-9

> <CASRN_ChemName_Relationship>
primary

> <TS_Description>
single chemical compound

> <ChemNote>


> <STRUCTURE_Shown>
tested chemical

> <STRUCTURE_Formula>
C18H23NO

> <STRUCTURE_MW>
269.3813

> <STRUCTURE_ChemType>
defined organic

> <STRUCTURE_DefinedOrganicForm>
parent

> <STRUCTURE_IUPAC>
4-(2-benzylphenoxy)-N-methylbutan-1-amine

> <STRUCTURE_SMILES>
CNCCCCOc2ccccc2Cc1ccccc1

> <STRUCTURE_SMILES_Desalt>
CNCCCCOc2ccccc2Cc1ccccc1

> <Substance_modify_yyyymmdd>
20100107

$$$$
