9041-93-4
ChemmineR-0915142007XD

110113  0  0  1  0  0  0  0  0  1 V2000
   34.0748   -3.9451    0.0000 C   0  0  0  0  0  0  0  0  0  0  0  0
   34.0748   -5.2601    0.0000 C   0  0  0  0  0  0  0  0  0  0  0  0
   32.9531   -3.2876    0.0000 C   0  0  0  0  0  0  0  0  0  0  0  0
   32.9531   -5.9176    0.0000 C   0  0  0  0  0  0  0  0  0  0  0  0
   31.8315   -3.9451    0.0000 O   0  0  0  0  0  0  0  0  0  0  0  0
   31.8315   -5.2601    0.0000 C   0  0  0  0  0  0  0  0  0  0  0  0
   32.9531   -1.9339    0.0000 C   0  0  0  0  0  0  0  0  0  0  0  0
   35.2351   -3.2876    0.0000 O   0  0  0  0  0  0  0  0  0  0  0  0
   35.2351   -5.9176    0.0000 O   0  0  0  0  0  0  0  0  0  0  0  0
   32.9531   -7.2327    0.0000 O   0  0  0  0  0  0  0  0  0  0  0  0
   30.6712   -5.9176    0.0000 O   0  0  0  0  0  0  0  0  0  0  0  0
   34.0748   -1.3150    0.0000 O   0  0  0  0  0  0  0  0  0  0  0  0
   34.0748   -7.9289    0.0000 C   0  0  0  0  0  0  0  0  0  0  0  0
   34.0748   -9.2439    0.0000 C   0  0  0  0  0  0  0  0  0  0  0  0
   35.2351   -7.2327    0.0000 O   0  0  0  0  0  0  0  0  0  0  0  0
   35.2351   -9.9014    0.0000 C   0  0  0  0  0  0  0  0  0  0  0  0
   36.3954   -7.9289    0.0000 C   0  0  0  0  0  0  0  0  0  0  0  0
   36.3954   -9.2439    0.0000 C   0  0  0  0  0  0  0  0  0  0  0  0
   37.5557   -7.2327    0.0000 C   0  0  0  0  0  0  0  0  0  0  0  0
   38.6774   -7.9289    0.0000 O   0  0  0  0  0  0  0  0  0  0  0  0
   37.5557   -9.9014    0.0000 O   0  0  0  0  0  0  0  0  0  0  0  0
   35.2351  -11.2164    0.0000 O   0  0  0  0  0  0  0  0  0  0  0  0
   32.9531   -9.9014    0.0000 O   0  0  0  0  0  0  0  0  0  0  0  0
   32.9531   -8.5864    0.0000 H   0  0  0  0  0  0  0  0  0  0  0  0
   34.0748  -11.9126    0.0000 C   0  0  0  0  0  0  0  0  0  0  0  0
   34.0748  -13.2277    0.0000 O   0  0  0  0  0  0  0  0  0  0  0  0
   32.9531  -11.2164    0.0000 N   0  0  0  0  0  0  0  0  0  0  0  0
   29.5108   -5.2601    0.0000 C   0  0  0  0  0  0  0  0  0  0  0  0
   29.5108   -3.9451    0.0000 C   0  0  0  0  0  0  0  0  0  0  0  0
   28.3505   -5.9176    0.0000 C   0  0  0  0  0  0  0  0  0  0  0  0
   28.4279   -3.2102    0.0000 C   0  0  0  0  0  0  0  0  0  0  0  0
   30.5938   -3.2102    0.0000 N   0  0  0  0  0  0  0  0  0  0  0  0
   28.8533   -1.9339    0.0000 N   0  0  0  0  0  0  0  0  0  0  0  0
   30.1684   -1.9339    0.0000 C   0  0  0  0  0  0  0  0  0  0  0  0
   27.2289   -5.2601    0.0000 N   0  0  0  0  0  0  0  0  0  0  0  0
   28.3505   -8.4703    0.0000 C   0  0  0  0  0  0  0  0  0  0  0  0
   29.5108   -9.1279    0.0000 O   0  0  0  0  0  0  0  0  0  0  0  0
   27.2289   -9.1279    0.0000 N   0  0  0  0  0  0  0  0  0  0  0  0
   26.1072   -5.9176    0.0000 C   0  0  0  0  0  0  0  0  0  0  0  0
   24.9469   -5.2601    0.0000 C   0  0  0  0  0  0  0  0  0  0  0  0
   26.1072   -7.2327    0.0000 O   0  0  0  0  0  0  0  0  0  0  0  0
   23.7866   -5.9176    0.0000 C   0  0  0  0  0  0  0  0  0  0  0  0
   24.9469   -3.9451    0.0000 N   0  0  0  0  0  0  0  0  0  0  0  0
   22.6649   -5.2601    0.0000 C   0  0  0  0  0  0  0  0  0  0  0  0
   23.7866   -3.2876    0.0000 C   0  0  0  0  0  0  0  0  0  0  0  0
   22.6649   -3.9451    0.0000 N   0  0  0  0  0  0  0  0  0  0  0  0
   21.5046   -5.9176    0.0000 N   0  0  0  0  0  0  0  0  0  0  0  0
   23.7866   -7.2327    0.0000 C   0  0  0  0  0  0  0  0  0  0  0  0
   23.7866   -1.9339    0.0000 C   0  0  0  0  0  0  0  0  0  0  0  0
   24.9469   -1.3150    0.0000 C   0  0  0  0  0  0  0  0  0  0  0  0
   22.6649   -1.3150    0.0000 N   0  0  0  0  0  0  0  0  0  0  0  0
   21.5046   -1.9339    0.0000 C   0  0  0  0  0  0  0  0  0  0  0  0
   20.3830   -1.3150    0.0000 C   0  0  0  0  0  0  0  0  0  0  0  0
   19.2227   -1.9339    0.0000 C   0  0  0  0  0  0  0  0  0  0  0  0
   20.3830    0.0000    0.0000 N   0  0  0  0  0  0  0  0  0  0  0  0
   18.0623   -1.3150    0.0000 N   0  0  0  0  0  0  0  0  0  0  0  0
   19.2227   -3.2876    0.0000 O   0  0  0  0  0  0  0  0  0  0  0  0
   26.1072   -1.9339    0.0000 C   0  0  0  0  0  0  0  0  0  0  0  0
   27.2289   -1.3150    0.0000 N   0  0  0  0  0  0  0  0  0  0  0  0
   26.1072   -3.2876    0.0000 O   0  0  0  0  0  0  0  0  0  0  0  0
   27.2289  -10.4429    0.0000 C   0  0  0  0  0  0  0  0  0  0  0  0
   26.1072  -11.1004    0.0000 C   0  0  0  0  0  0  0  0  0  0  0  0
   28.3505  -11.1004    0.0000 C   0  0  0  0  0  0  0  0  0  0  0  0
   24.9469  -10.4429    0.0000 C   0  0  0  0  0  0  0  0  0  0  0  0
   26.1072  -12.4541    0.0000 O   0  0  0  0  0  0  0  0  0  0  0  0
   24.9469   -9.1279    0.0000 C   0  0  0  0  0  0  0  0  0  0  0  0
   23.7866  -11.1004    0.0000 C   0  0  0  0  0  0  0  0  0  0  0  0
   22.6649  -10.4429    0.0000 N   0  0  0  0  0  0  0  0  0  0  0  0
   23.7866  -12.4541    0.0000 O   0  0  0  0  0  0  0  0  0  0  0  0
   21.5046  -11.1004    0.0000 C   0  0  0  0  0  0  0  0  0  0  0  0
   20.3830  -10.4429    0.0000 C   0  0  0  0  0  0  0  0  0  0  0  0
   19.2227  -11.1004    0.0000 N   0  0  0  0  0  0  0  0  0  0  0  0
   20.3830   -9.1279    0.0000 O   0  0  0  0  0  0  0  0  0  0  0  0
   21.5046  -12.4541    0.0000 C   0  0  0  0  0  0  0  0  0  0  0  0
   20.3830  -13.0730    0.0000 O   0  0  0  0  0  0  0  0  0  0  0  0
   22.6649  -13.0730    0.0000 C   0  0  0  0  0  0  0  0  0  0  0  0
   18.0623  -10.4429    0.0000 C   0  0  0  0  0  0  0  0  0  0  0  0
   16.9020  -11.1004    0.0000 C   0  0  0  0  0  0  0  0  0  0  0  0
   15.7804  -10.4429    0.0000 C   0  0  0  0  0  0  0  0  0  0  0  0
   14.6974  -11.2164    0.0000 N   0  0  0  0  0  0  0  0  0  0  0  0
   15.3936   -9.2052    0.0000 S   0  0  0  0  0  0  0  0  0  0  0  0
   13.6531  -10.4429    0.0000 C   0  0  0  0  0  0  0  0  0  0  0  0
   14.0399   -9.2052    0.0000 C   0  0  0  0  0  0  0  0  0  0  0  0
   12.3768  -10.8297    0.0000 C   0  0  0  0  0  0  0  0  0  0  0  0
   11.9900  -12.1060    0.0000 S   0  0  0  0  0  0  0  0  0  0  0  0
   11.2938  -10.0948    0.0000 N   0  0  0  0  0  0  0  0  0  0  0  0
   10.6363  -12.1060    0.0000 C   0  0  0  0  0  0  0  0  0  0  0  0
   10.2495  -10.8297    0.0000 C   0  0  0  0  0  0  0  0  0  0  0  0
    9.1279  -10.1722    0.0000 C   0  0  0  0  0  0  0  0  0  0  0  0
    7.9289  -10.8297    0.0000 N   0  0  0  0  0  0  0  0  0  0  0  0
    9.1279   -8.8958    0.0000 O   0  0  0  0  0  0  0  0  0  0  0  0
   22.6263  -11.7966    0.0000 H   0  0  0  0  0  0  0  0  0  0  0  0
    6.8072  -10.1722    0.0000 C   0  0  0  0  0  0  0  0  0  0  0  0
    5.6856  -10.8297    0.0000 C   0  0  0  0  0  0  0  0  0  0  0  0
    4.5639  -10.1335    0.0000 C   0  0  0  0  0  0  0  0  0  0  0  0
    3.4036  -10.7910    0.0000 C   0  0  0  0  0  0  0  0  0  0  0  0
    2.2820  -10.1335    0.0000 N   0  0  0  0  0  0  0  0  0  0  0  0
    1.1216  -10.7523    0.0000 C   0  0  0  0  0  0  0  0  0  0  0  0
    0.0000  -10.0948    0.0000 N   0  0  0  0  0  0  0  0  0  0  0  0
    1.1216  -12.0673    0.0000 N   0  0  0  0  0  0  0  0  0  0  0  0
   15.5096  -17.0954    0.0000 S   0  0  0  0  0  0  0  0  0  0  0  0
   16.8247  -17.0954    0.0000 O   0  0  0  0  0  0  0  0  0  0  0  0
   14.1946  -17.0954    0.0000 O   0  0  0  0  0  0  0  0  0  0  0  0
   15.5096  -18.4104    0.0000 O   0  0  0  0  0  0  0  0  0  0  0  0
   15.5096  -15.7804    0.0000 O   0  0  0  0  0  0  0  0  0  0  0  0
   21.0405  -17.0180    0.0000 S   0  0  0  0  0  0  0  0  0  0  0  0
   22.3555  -17.0180    0.0000 O   0  0  0  0  0  0  0  0  0  0  0  0
   19.7255  -17.0180    0.0000 O   0  0  0  0  0  0  0  0  0  0  0  0
   21.0405  -18.3331    0.0000 O   0  0  0  0  0  0  0  0  0  0  0  0
   21.0405  -15.7030    0.0000 O   0  0  0  0  0  0  0  0  0  0  0  0
  1  2  1  0  0  0  0
  1  3  1  0  0  0  0
  1  8  1  1  0  0  0
  2  4  1  0  0  0  0
  2  9  1  6  0  0  0
  3  5  1  0  0  0  0
  3  7  1  1  0  0  0
  4  6  1  0  0  0  0
  4 10  1  6  0  0  0
  5  6  1  0  0  0  0
  6 11  1  6  0  0  0
  7 12  1  0  0  0  0
 10 13  1  0  0  0  0
 11 28  1  0  0  0  0
 13 14  1  0  0  0  0
 13 15  1  0  0  0  0
 13 24  1  6  0  0  0
 14 16  1  0  0  0  0
 14 23  1  6  0  0  0
 15 17  1  0  0  0  0
 16 18  1  0  0  0  0
 16 22  1  6  0  0  0
 17 18  1  0  0  0  0
 17 19  1  6  0  0  0
 18 21  1  1  0  0  0
 19 20  1  0  0  0  0
 22 25  1  0  0  0  0
 25 26  2  0  0  0  0
 25 27  1  0  0  0  0
 28 29  1  6  0  0  0
 28 30  1  0  0  0  0
 29 31  2  0  0  0  0
 29 32  1  0  0  0  0
 30 35  1  0  0  0  0
 30 36  1  1  0  0  0
 31 33  1  0  0  0  0
 32 34  1  0  0  0  0
 33 34  2  0  0  0  0
 35 39  1  0  0  0  0
 36 37  2  0  0  0  0
 36 38  1  0  0  0  0
 61 38  1  6  0  0  0
 39 40  1  0  0  0  0
 39 41  2  0  0  0  0
 40 42  1  0  0  0  0
 40 43  2  0  0  0  0
 42 44  2  0  0  0  0
 42 48  1  0  0  0  0
 43 45  1  0  0  0  0
 44 46  1  0  0  0  0
 44 47  1  0  0  0  0
 45 46  2  0  0  0  0
 49 45  1  1  0  0  0
 49 50  1  0  0  0  0
 49 51  1  0  0  0  0
 50 58  1  0  0  0  0
 51 52  1  0  0  0  0
 52 53  1  0  0  0  0
 53 54  1  0  0  0  0
 53 55  1  1  0  0  0
 54 56  1  0  0  0  0
 54 57  2  0  0  0  0
 58 59  1  0  0  0  0
 58 60  2  0  0  0  0
 61 62  1  0  0  0  0
 61 63  1  0  0  0  0
 62 64  1  0  0  0  0
 62 65  1  1  0  0  0
 64 66  1  1  0  0  0
 64 67  1  0  0  0  0
 67 68  1  0  0  0  0
 67 69  2  0  0  0  0
 68 70  1  0  0  0  0
 70 71  1  0  0  0  0
 70 74  1  0  0  0  0
 70 92  1  6  0  0  0
 71 72  1  0  0  0  0
 71 73  2  0  0  0  0
 72 77  1  0  0  0  0
 74 75  1  1  0  0  0
 74 76  1  0  0  0  0
 77 78  1  0  0  0  0
 78 79  1  0  0  0  0
 79 80  2  0  0  0  0
 79 81  1  0  0  0  0
 80 82  1  0  0  0  0
 81 83  1  0  0  0  0
 82 83  2  0  0  0  0
 82 84  1  0  0  0  0
 84 85  1  0  0  0  0
 84 86  2  0  0  0  0
 85 87  1  0  0  0  0
 86 88  1  0  0  0  0
 87 88  2  0  0  0  0
 88 89  1  0  0  0  0
 89 90  1  0  0  0  0
 89 91  2  0  0  0  0
 90 93  1  0  0  0  0
 93 94  1  0  0  0  0
 94 95  1  0  0  0  0
 95 96  1  0  0  0  0
 96 97  1  0  0  0  0
 97 98  1  0  0  0  0
 98 99  1  0  0  0  0
 98100  2  0  0  0  0
101102  2  0  0  0  0
101103  2  0  0  0  0
101104  1  0  0  0  0
101105  1  0  0  0  0
106107  2  0  0  0  0
106108  2  0  0  0  0
106109  1  0  0  0  0
106110  1  0  0  0  0
M  END
> <ID>
12893

> <Formula>
C55H88N20O29S4

> <FW>
1621.6638 (1425.5069+98.0785+98.0785)

> <DSSTox_CID>
27776

> <DSSTox_RID>
82553

> <DSSTox_GSID>
47800

> <DSSTox_FileID_Sort>
7232

> <TS_ChemName>
Bleomycin sulfate

> <TS_ChemName_Synonyms>


> <TS_CASRN>
9041-93-4

> <CASRN_ChemName_Relationship>
primary

> <TS_Description>
mixture or formulation

> <ChemNote>
stereochem; mixture of structurally related glycopeptide antibiotics; structure shown B2 sulfate

> <STRUCTURE_Shown>
representative component

> <STRUCTURE_Formula>
C55H88N20O29S4

> <STRUCTURE_MW>
1621.6638

> <STRUCTURE_ChemType>
defined organic

> <STRUCTURE_DefinedOrganicForm>
complex

> <STRUCTURE_IUPAC>
(2R,3S,4S,5R,6R)-2-{[(2R,3S,4S,5S,6S)-2-{[(1R,2S)-2-[({6-amino-2-[(1S)-3-amino-1-{[(2S)-2,3-diamino-3-oxopropyl]amino}-3-oxopropyl]-5-methylpyrimidin-4-yl}carbonyl)amino]-3-{[(2R,3S,4S)-5-({(2S,3R)-1-[(2-{4-[(4-carbamimidamidobutyl)carbamoyl]-2,4'-bi-1,3-

> <STRUCTURE_SMILES>
NC(=O)[C@@H](N)CN[C@@H](CC(N)=O)c1nc(N)c(C)c(n1)C(=O)N[C@@H]([C@@H](O[C@@H]3O[C@@H](CO)[C@@H](O)[C@H](O)[C@@H]3O[C@H]2O[C@H](CO)[C@@H](O)[C@H](OC(N)=O)[C@@H]2O)c4cncn4)C(=O)N[C@H](C)[C@@H](O)[C@H](C)C(=O)N[C@H](C(=O)NCCc5nc(cs5)c6nc(cs6)C(=O)NCCCCNC(=N)N)

> <STRUCTURE_SMILES_Desalt>
NC(=O)[C@@H](N)CN[C@@H](CC(N)=O)c1nc(N)c(C)c(n1)C(=O)N[C@@H]([C@@H](O[C@@H]3O[C@@H](CO)[C@@H](O)[C@H](O)[C@@H]3O[C@H]2O[C@H](CO)[C@@H](O)[C@H](OC(N)=O)[C@@H]2O)c4cncn4)C(=O)N[C@H](C)[C@@H](O)[C@H](C)C(=O)N[C@H](C(=O)NCCc5nc(cs5)c6nc(cs6)C(=O)NCCCCNC(=N)N)

> <Substance_modify_yyyymmdd>
20080428

$$$$
