90494-79-4
ChemmineR-0915142007XD

 29 31  0  0  0  0  0  0  0  0  1 V2000
   14.0206   -1.3320    0.0000 F    0  0  0  0  0  0  0  0  0  0  0  0
   12.6886   -1.3320    0.0000 C    0  0  0  0  0  0  0  0  0  0  0  0
   11.3567   -1.3320    0.0000 F    0  0  0  0  0  0  0  0  0  0  0  0
   12.6886    0.0000    0.0000 F    0  0  0  0  0  0  0  0  0  0  0  0
   12.6886   -2.6639    0.0000 C    0  0  0  0  0  0  0  0  0  0  0  0
   13.8243   -3.3229    0.0000 C    0  0  0  0  0  0  0  0  0  0  0  0
   13.8243   -4.6548    0.0000 C    0  0  0  0  0  0  0  0  0  0  0  0
   12.6886   -5.3278    0.0000 C    0  0  0  0  0  0  0  0  0  0  0  0
   11.5389   -4.6548    0.0000 C    0  0  0  0  0  0  0  0  0  0  0  0
   11.5389   -3.3229    0.0000 C    0  0  0  0  0  0  0  0  0  0  0  0
   10.3752   -5.3278    0.0000 C    0  0  0  0  0  0  0  0  0  0  0  0
   10.3752   -6.6598    0.0000 C    0  0  0  0  0  0  0  0  0  0  0  0
    9.2255   -7.3187    0.0000 C    0  0  0  0  0  0  0  0  0  0  0  0
    8.0758   -6.6598    0.0000 N    0  0  0  0  0  0  0  0  0  0  0  0
    6.9121   -7.3187    0.0000 C    0  0  0  0  0  0  0  0  0  0  0  0
    5.7624   -6.6598    0.0000 C    0  0  0  0  0  0  0  0  0  0  0  0
    4.5987   -7.3187    0.0000 C    0  0  0  0  0  0  0  0  0  0  0  0
    4.5987   -8.6507    0.0000 C    0  0  0  0  0  0  0  0  0  0  0  0
    3.4631   -9.3237    0.0000 C    0  0  0  0  0  0  0  0  0  0  0  0
    2.3134   -8.6507    0.0000 C    0  0  0  0  0  0  0  0  0  0  0  0
    1.1497   -9.3237    0.0000 C    0  0  0  0  0  0  0  0  0  0  0  0
    0.0000   -8.6507    0.0000 C    0  0  0  0  0  0  0  0  0  0  0  0
    0.0000   -7.3187    0.0000 C    0  0  0  0  0  0  0  0  0  0  0  0
    1.1497   -6.6598    0.0000 C    0  0  0  0  0  0  0  0  0  0  0  0
    2.3134   -7.3187    0.0000 C    0  0  0  0  0  0  0  0  0  0  0  0
    3.4631   -6.6598    0.0000 C    0  0  0  0  0  0  0  0  0  0  0  0
    8.0758   -5.3278    0.0000 C    0  0  0  0  0  0  0  0  0  0  0  0
    9.2255   -4.6548    0.0000 C    0  0  0  0  0  0  0  0  0  0  0  0
   10.2490   -8.5525    0.0000 Cl   0  0  0  0  0  0  0  0  0  0  0  0
  1  2  1  0  0  0  0
  2  3  1  0  0  0  0
  2  4  1  0  0  0  0
  2  5  1  0  0  0  0
  5  6  2  0  0  0  0
  5 10  1  0  0  0  0
  6  7  1  0  0  0  0
  7  8  2  0  0  0  0
  8  9  1  0  0  0  0
  9 10  2  0  0  0  0
  9 11  1  0  0  0  0
 11 12  2  0  0  0  0
 11 28  1  0  0  0  0
 12 13  1  0  0  0  0
 13 14  1  0  0  0  0
 14 15  1  0  0  0  0
 14 27  1  0  0  0  0
 15 16  1  0  0  0  0
 16 17  1  0  0  0  0
 17 18  2  0  0  0  0
 17 26  1  0  0  0  0
 18 19  1  0  0  0  0
 19 20  2  0  0  0  0
 20 21  1  0  0  0  0
 20 25  1  0  0  0  0
 21 22  2  0  0  0  0
 22 23  1  0  0  0  0
 23 24  2  0  0  0  0
 24 25  1  0  0  0  0
 25 26  2  0  0  0  0
 27 28  1  0  0  0  0
M  END
> <ID>
11918

> <Formula>
C24H23ClF3N

> <FW>
417.8943 (381.4334+36.4609)

> <DSSTox_CID>
26724

> <DSSTox_RID>
81854

> <DSSTox_GSID>
46724

> <DSSTox_FileID_Sort>
6535

> <TS_ChemName>
Xaliproden hydrochloride

> <TS_ChemName_Synonyms>


> <TS_CASRN>
90494-79-4

> <CASRN_ChemName_Relationship>
primary

> <TS_Description>
single chemical compound

> <ChemNote>
parent [135354-02-8]

> <STRUCTURE_Shown>
tested chemical

> <STRUCTURE_Formula>
C24H23ClF3N

> <STRUCTURE_MW>
417.8943

> <STRUCTURE_ChemType>
defined organic

> <STRUCTURE_DefinedOrganicForm>
complex

> <STRUCTURE_IUPAC>
1-[2-(naphthalen-2-yl)ethyl]-4-[3-(trifluoromethyl)phenyl]-1,2,3,6-tetrahydropyridine hydrochloride (1:1)

> <STRUCTURE_SMILES>
Cl.FC(F)(F)c1cccc(c1)C4=CCN(CCc2cc3ccccc3cc2)CC4

> <STRUCTURE_SMILES_Desalt>
FC(F)(F)c1cccc(c1)C4=CCN(CCc2cc3ccccc3cc2)CC4

> <Substance_modify_yyyymmdd>
20110804

$$$$
