905-97-5
ChemmineR-0915142007XD

 26 28  0  0  0  0  0  0  0  0  2 V2000
    6.2051   -1.9123    0.0000 I   0  5  0  0  0  0  0  0  0  0  0  0
    8.3515   -4.3189    0.0000 C   0  0  0  0  0  0  0  0  0  0  0  0
    8.0523   -3.0180    0.0000 C   0  0  0  0  0  0  0  0  0  0  0  0
    9.0540   -2.1204    0.0000 N   0  0  0  0  0  0  0  0  0  0  0  0
    8.9109   -0.8195    0.0000 C   0  0  0  0  0  0  0  0  0  0  0  0
   10.1337   -0.2732    0.0000 S   0  0  0  0  0  0  0  0  0  0  0  0
   11.0183   -1.2488    0.0000 C   0  0  0  0  0  0  0  0  0  0  0  0
   12.3582   -1.2488    0.0000 C   0  0  0  0  0  0  0  0  0  0  0  0
   13.0086   -2.3936    0.0000 C   0  0  0  0  0  0  0  0  0  0  0  0
   12.3582   -3.5513    0.0000 C   0  0  0  0  0  0  0  0  0  0  0  0
   11.0183   -3.5513    0.0000 C   0  0  0  0  0  0  0  0  0  0  0  0
   10.3548   -2.3936    0.0000 C   0  0  0  0  0  0  0  0  0  0  0  0
    7.7401   -0.1431    0.0000 C   0  0  0  0  0  0  0  0  0  0  0  0
    6.5954   -0.7935    0.0000 C   0  0  0  0  0  0  0  0  0  0  0  0
    5.4506   -0.1431    0.0000 C   0  0  0  0  0  0  0  0  0  0  0  0
    4.2408   -0.6895    0.0000 C   0  0  0  0  0  0  0  0  0  0  0  0
    3.9676   -1.9773    0.0000 N   0  3  0  0  0  0  0  0  0  0  0  0
    4.8522   -2.9790    0.0000 C   0  0  0  0  0  0  0  0  0  0  0  0
    4.4489   -4.2408    0.0000 C   0  0  0  0  0  0  0  0  0  0  0  0
    2.6407   -2.1204    0.0000 C   0  0  0  0  0  0  0  0  0  0  0  0
    1.8732   -3.2001    0.0000 C   0  0  0  0  0  0  0  0  0  0  0  0
    0.5464   -3.0570    0.0000 C   0  0  0  0  0  0  0  0  0  0  0  0
    0.0000   -1.8342    0.0000 C   0  0  0  0  0  0  0  0  0  0  0  0
    0.7805   -0.7675    0.0000 C   0  0  0  0  0  0  0  0  0  0  0  0
    2.1074   -0.9106    0.0000 C   0  0  0  0  0  0  0  0  0  0  0  0
    3.0830    0.0000    0.0000 S   0  0  0  0  0  0  0  0  0  0  0  0
  2  3  1  0  0  0  0
  3  4  1  0  0  0  0
  4  5  1  0  0  0  0
  4 12  1  0  0  0  0
  5  6  1  0  0  0  0
  5 13  2  3  0  0  0
  6  7  1  0  0  0  0
  7  8  2  0  0  0  0
  7 12  1  0  0  0  0
  8  9  1  0  0  0  0
  9 10  2  0  0  0  0
 10 11  1  0  0  0  0
 11 12  2  0  0  0  0
 13 14  1  0  0  0  0
 14 15  2  3  0  0  0
 15 16  1  0  0  0  0
 16 17  2  0  0  0  0
 16 26  1  0  0  0  0
 17 18  1  0  0  0  0
 17 20  1  0  0  0  0
 18 19  1  0  0  0  0
 20 21  2  0  0  0  0
 20 25  1  0  0  0  0
 21 22  1  0  0  0  0
 22 23  2  0  0  0  0
 23 24  1  0  0  0  0
 24 25  2  0  0  0  0
 25 26  1  0  0  0  0
M  END
> <ID>
11813

> <Formula>
C21H21IN2S2

> <FW>
492.4393 (126.9050+365.5343)

> <DSSTox_CID>
26591

> <DSSTox_RID>
81748

> <DSSTox_GSID>
46591

> <DSSTox_FileID_Sort>
6429

> <TS_ChemName>
3,3'-Diethylthiacarbocyanine iodide

> <TS_ChemName_Synonyms>


> <TS_CASRN>
905-97-5

> <CASRN_ChemName_Relationship>
primary

> <TS_Description>
mixture of Z,E isomers

> <ChemNote>
mixture of Z,E isomers; parent [18403-49-1]

> <STRUCTURE_Shown>
representative isomer in mixture

> <STRUCTURE_Formula>
C21H21IN2S2

> <STRUCTURE_MW>
492.4393

> <STRUCTURE_ChemType>
defined organic

> <STRUCTURE_DefinedOrganicForm>
salt

> <STRUCTURE_IUPAC>
3-ethyl-2-[3-(3-ethyl-1,3-benzothiazol-2(3H)-ylidene)prop-1-en-1-yl]-1,3-benzothiazol-3-ium iodide

> <STRUCTURE_SMILES>
[I-].CCN3c4ccccc4SC3=CC=Cc2sc1ccccc1[n+]2CC

> <STRUCTURE_SMILES_Desalt>
CCN3c4ccccc4SC3=CC=Cc2sc1ccccc1[n+]2CC

> <Substance_modify_yyyymmdd>
20110810

$$$$
