907169-79-3
ChemmineR-0915142007XD

 30 33  0  0  0  0  0  0  0  0  1 V2000
    6.2526   -4.1776    0.0000 N   0  0  0  0  0  0  0  0  0  0  0  0
    7.4894   -4.1776    0.0000 N   0  0  0  0  0  0  0  0  0  0  0  0
    7.9703   -5.4143    0.0000 C   0  0  0  0  0  0  0  0  0  0  0  0
    6.8847   -6.1701    0.0000 N   0  0  0  0  0  0  0  0  0  0  0  0
    5.7854   -5.4143    0.0000 C   0  0  0  0  0  0  0  0  0  0  0  0
    7.9703   -2.8858    0.0000 C   0  0  0  0  0  0  0  0  0  0  0  0
    6.8847   -2.1300    0.0000 N   0  0  0  0  0  0  0  0  0  0  0  0
    5.7854   -2.8858    0.0000 C   0  0  0  0  0  0  0  0  0  0  0  0
    4.5486   -2.4598    0.0000 S   0  0  0  0  0  0  0  0  0  0  0  0
    9.2071   -5.7716    0.0000 S   0  0  0  0  0  0  0  0  0  0  0  0
   11.4745   -2.9408    0.0000 C   0  0  0  0  0  0  0  0  0  0  0  0
   11.7494   -1.6353    0.0000 C   0  0  0  0  0  0  0  0  0  0  0  0
   10.8012   -0.7558    0.0000 C   0  0  0  0  0  0  0  0  0  0  0  0
    9.5644   -1.1543    0.0000 C   0  0  0  0  0  0  0  0  0  0  0  0
    9.2071   -2.4598    0.0000 C   0  0  0  0  0  0  0  0  0  0  0  0
   10.2378   -3.3668    0.0000 C   0  0  0  0  0  0  0  0  0  0  0  0
   12.5052   -3.9027    0.0000 O   0  0  0  0  0  0  0  0  0  0  0  0
   13.7420   -3.5042    0.0000 C   0  0  0  0  0  0  0  0  0  0  0  0
   13.0686   -1.3055    0.0000 O   0  0  0  0  0  0  0  0  0  0  0  0
   13.3434    0.0000    0.0000 C   0  0  0  0  0  0  0  0  0  0  0  0
    2.2812   -5.2907    0.0000 C   0  0  0  0  0  0  0  0  0  0  0  0
    1.9239   -6.5961    0.0000 C   0  0  0  0  0  0  0  0  0  0  0  0
    2.8996   -7.4756    0.0000 C   0  0  0  0  0  0  0  0  0  0  0  0
    4.1913   -7.0771    0.0000 C   0  0  0  0  0  0  0  0  0  0  0  0
    4.5486   -5.7716    0.0000 C   0  0  0  0  0  0  0  0  0  0  0  0
    3.5042   -4.8784    0.0000 C   0  0  0  0  0  0  0  0  0  0  0  0
    1.2368   -4.3287    0.0000 O   0  0  0  0  0  0  0  0  0  0  0  0
    0.0000   -4.7272    0.0000 C   0  0  0  0  0  0  0  0  0  0  0  0
    0.6871   -6.9259    0.0000 O   0  0  0  0  0  0  0  0  0  0  0  0
    0.3573   -8.2314    0.0000 C   0  0  0  0  0  0  0  0  0  0  0  0
  1  2  1  0  0  0  0
  1  5  1  0  0  0  0
  1  8  1  0  0  0  0
  2  3  1  0  0  0  0
  2  6  1  0  0  0  0
  3  4  1  0  0  0  0
  3 10  2  0  0  0  0
  4  5  1  0  0  0  0
  5 25  1  0  0  0  0
  6  7  1  0  0  0  0
  6 15  1  0  0  0  0
  7  8  1  0  0  0  0
  8  9  2  0  0  0  0
 11 16  2  0  0  0  0
 11 12  1  0  0  0  0
 11 17  1  0  0  0  0
 12 13  2  0  0  0  0
 12 19  1  0  0  0  0
 13 14  1  0  0  0  0
 14 15  2  0  0  0  0
 15 16  1  0  0  0  0
 17 18  1  0  0  0  0
 19 20  1  0  0  0  0
 21 26  2  0  0  0  0
 21 22  1  0  0  0  0
 21 27  1  0  0  0  0
 22 23  2  0  0  0  0
 22 29  1  0  0  0  0
 23 24  1  0  0  0  0
 24 25  2  0  0  0  0
 25 26  1  0  0  0  0
 27 28  1  0  0  0  0
 29 30  1  0  0  0  0
M  END
> <ID>
13743

> <Formula>
C20H22N4O4S2

> <FW>
446.5431

> <DSSTox_CID>
28678

> <DSSTox_RID>
82948

> <DSSTox_GSID>
48752

> <DSSTox_FileID_Sort>
7625

> <TS_ChemName>
3,7-Bis(3,4-dimethoxyphenyl)tetrahydro-1H,5H-[1,2,4]triazolo[1,2-a][1,2,4]triazole-1,5-dithione

> <TS_ChemName_Synonyms>
1H,5H-[1,2,4]Triazolo[1,2-a][1,2,4]triazole-1,5-dithione, 3,7-bis(3,4-dimethoxyphenyl)tetrahydro-

> <TS_CASRN>
907169-79-3

> <CASRN_ChemName_Relationship>
primary

> <TS_Description>
single chemical compound

> <ChemNote>


> <STRUCTURE_Shown>
tested chemical

> <STRUCTURE_Formula>
C20H22N4O4S2

> <STRUCTURE_MW>
446.5431

> <STRUCTURE_ChemType>
defined organic

> <STRUCTURE_DefinedOrganicForm>
parent

> <STRUCTURE_IUPAC>
3,7-bis(3,4-dimethoxyphenyl)tetrahydro-1H,5H-[1,2,4]triazolo[1,2-a][1,2,4]triazole-1,5-dithione

> <STRUCTURE_SMILES>
COc1ccc(cc1OC)C2NC(=S)N3C(NC(=S)N23)c4ccc(OC)c(OC)c4

> <STRUCTURE_SMILES_Desalt>
COc1ccc(cc1OC)C2NC(=S)N3C(NC(=S)N23)c4ccc(OC)c(OC)c4

> <Substance_modify_yyyymmdd>
20111212

$$$$
