90729-43-4
ChemmineR-0915142007XD

 35 38  0  0  0  0  0  0  0  0  1 V2000
   11.3457   -1.3307    0.0000 C   0  0  0  0  0  0  0  0  0  0  0  0
   12.6763   -1.3307    0.0000 C   0  0  0  0  0  0  0  0  0  0  0  0
   12.6763    0.0000    0.0000 C   0  0  0  0  0  0  0  0  0  0  0  0
   14.0070   -1.3307    0.0000 C   0  0  0  0  0  0  0  0  0  0  0  0
   12.6763   -2.6613    0.0000 C   0  0  0  0  0  0  0  0  0  0  0  0
   13.8249   -3.3197    0.0000 C   0  0  0  0  0  0  0  0  0  0  0  0
   13.8249   -4.6503    0.0000 C   0  0  0  0  0  0  0  0  0  0  0  0
   12.6763   -5.3227    0.0000 C   0  0  0  0  0  0  0  0  0  0  0  0
   11.5278   -4.6503    0.0000 C   0  0  0  0  0  0  0  0  0  0  0  0
   11.5278   -3.3197    0.0000 C   0  0  0  0  0  0  0  0  0  0  0  0
   12.6763   -6.6533    0.0000 C   0  0  0  0  0  0  0  0  0  0  0  0
   13.8249   -7.3116    0.0000 O   0  0  0  0  0  0  0  0  0  0  0  0
   11.5278   -7.3116    0.0000 C   0  0  0  0  0  0  0  0  0  0  0  0
   10.3652   -6.6533    0.0000 C   0  0  0  0  0  0  0  0  0  0  0  0
    9.2166   -7.3116    0.0000 C   0  0  0  0  0  0  0  0  0  0  0  0
    8.0680   -6.6533    0.0000 N   0  0  0  0  0  0  0  0  0  0  0  0
    6.9195   -7.3116    0.0000 C   0  0  0  0  0  0  0  0  0  0  0  0
    5.7569   -6.6533    0.0000 C   0  0  0  0  0  0  0  0  0  0  0  0
    5.7569   -5.3227    0.0000 C   0  0  0  0  0  0  0  0  0  0  0  0
    6.9195   -4.6503    0.0000 C   0  0  0  0  0  0  0  0  0  0  0  0
    8.0680   -5.3227    0.0000 C   0  0  0  0  0  0  0  0  0  0  0  0
    4.6083   -4.6503    0.0000 O   0  0  0  0  0  0  0  0  0  0  0  0
    3.4597   -5.3227    0.0000 C   0  0  0  0  0  0  0  0  0  0  0  0
    3.4597   -6.6533    0.0000 C   0  0  0  0  0  0  0  0  0  0  0  0
    4.6083   -7.3116    0.0000 C   0  0  0  0  0  0  0  0  0  0  0  0
    4.6083   -8.6423    0.0000 C   0  0  0  0  0  0  0  0  0  0  0  0
    3.4597   -9.3146    0.0000 C   0  0  0  0  0  0  0  0  0  0  0  0
    2.3112   -8.6423    0.0000 C   0  0  0  0  0  0  0  0  0  0  0  0
    2.3112   -7.3116    0.0000 C   0  0  0  0  0  0  0  0  0  0  0  0
    2.3112   -4.6503    0.0000 C   0  0  0  0  0  0  0  0  0  0  0  0
    1.1486   -5.3227    0.0000 C   0  0  0  0  0  0  0  0  0  0  0  0
    0.0000   -4.6503    0.0000 C   0  0  0  0  0  0  0  0  0  0  0  0
    0.0000   -3.3197    0.0000 C   0  0  0  0  0  0  0  0  0  0  0  0
    1.1486   -2.6613    0.0000 C   0  0  0  0  0  0  0  0  0  0  0  0
    2.3112   -3.3197    0.0000 C   0  0  0  0  0  0  0  0  0  0  0  0
  1  2  1  0  0  0  0
  2  3  1  0  0  0  0
  2  4  1  0  0  0  0
  2  5  1  0  0  0  0
  5  6  2  0  0  0  0
  5 10  1  0  0  0  0
  6  7  1  0  0  0  0
  7  8  2  0  0  0  0
  8  9  1  0  0  0  0
  8 11  1  0  0  0  0
  9 10  2  0  0  0  0
 11 12  2  0  0  0  0
 11 13  1  0  0  0  0
 13 14  1  0  0  0  0
 14 15  1  0  0  0  0
 15 16  1  0  0  0  0
 16 17  1  0  0  0  0
 16 21  1  0  0  0  0
 17 18  1  0  0  0  0
 18 19  1  0  0  0  0
 19 20  1  0  0  0  0
 19 22  1  0  0  0  0
 20 21  1  0  0  0  0
 22 23  1  0  0  0  0
 23 24  1  0  0  0  0
 23 30  1  0  0  0  0
 24 25  2  0  0  0  0
 24 29  1  0  0  0  0
 25 26  1  0  0  0  0
 26 27  2  0  0  0  0
 27 28  1  0  0  0  0
 28 29  2  0  0  0  0
 30 31  2  0  0  0  0
 30 35  1  0  0  0  0
 31 32  1  0  0  0  0
 32 33  2  0  0  0  0
 33 34  1  0  0  0  0
 34 35  2  0  0  0  0
M  END
> <ID>
11710

> <Formula>
C32H39NO2

> <FW>
469.6576

> <DSSTox_CID>
26472

> <DSSTox_RID>
81644

> <DSSTox_GSID>
46472

> <DSSTox_FileID_Sort>
6325

> <TS_ChemName>
Ebastine

> <TS_ChemName_Synonyms>


> <TS_CASRN>
90729-43-4

> <CASRN_ChemName_Relationship>
primary

> <TS_Description>
single chemical compound

> <ChemNote>


> <STRUCTURE_Shown>
tested chemical

> <STRUCTURE_Formula>
C32H39NO2

> <STRUCTURE_MW>
469.6576

> <STRUCTURE_ChemType>
defined organic

> <STRUCTURE_DefinedOrganicForm>
parent

> <STRUCTURE_IUPAC>
1-(4-tert-butylphenyl)-4-[4-(diphenylmethoxy)piperidin-1-yl]butan-1-one

> <STRUCTURE_SMILES>
CC(C)(C)c1ccc(cc1)C(=O)CCCN2CCC(CC2)OC(c3ccccc3)c4ccccc4

> <STRUCTURE_SMILES_Desalt>
CC(C)(C)c1ccc(cc1)C(=O)CCCN2CCC(CC2)OC(c3ccccc3)c4ccccc4

> <Substance_modify_yyyymmdd>
20110812

$$$$
