90736-23-5
ChemmineR-0915142007XD

 26 28  0  0  0  0  0  0  0  0  1 V2000
    4.6018   -2.0176    0.0000 N   0  0  0  0  0  0  0  0  0  0  0  0
    4.6018   -0.6910    0.0000 C   0  0  0  0  0  0  0  0  0  0  0  0
    3.4410    0.0000    0.0000 O   0  0  0  0  0  0  0  0  0  0  0  0
    5.7488    0.0000    0.0000 C   0  0  0  0  0  0  0  0  0  0  0  0
    6.8958   -0.6910    0.0000 C   0  0  0  0  0  0  0  0  0  0  0  0
    3.4410   -2.6671    0.0000 C   0  0  0  0  0  0  0  0  0  0  0  0
    2.2940   -2.0176    0.0000 C   0  0  0  0  0  0  0  0  0  0  0  0
    1.1608   -2.6671    0.0000 C   0  0  0  0  0  0  0  0  0  0  0  0
    1.1608   -3.9937    0.0000 C   0  0  0  0  0  0  0  0  0  0  0  0
    0.0000   -4.6709    0.0000 F   0  0  0  0  0  0  0  0  0  0  0  0
    2.2940   -4.6709    0.0000 C   0  0  0  0  0  0  0  0  0  0  0  0
    3.4410   -3.9937    0.0000 C   0  0  0  0  0  0  0  0  0  0  0  0
    5.7488   -2.6671    0.0000 C   0  0  0  0  0  0  0  0  0  0  0  0
    5.7488   -3.9937    0.0000 C   0  0  0  0  0  0  0  0  0  0  0  0
    6.8958   -4.6709    0.0000 C   0  0  0  0  0  0  0  0  0  0  0  0
    8.0704   -3.9937    0.0000 N   0  0  0  0  0  0  0  0  0  0  0  0
    8.0704   -2.6671    0.0000 C   0  0  0  0  0  0  0  0  0  0  0  0
    6.8958   -2.0176    0.0000 C   0  0  0  0  0  0  0  0  0  0  0  0
    9.2174   -4.6709    0.0000 C   0  0  0  0  0  0  0  0  0  0  0  0
   10.3644   -3.9937    0.0000 C   0  0  0  0  0  0  0  0  0  0  0  0
   11.5252   -4.6709    0.0000 C   0  0  0  0  0  0  0  0  0  0  0  0
   11.5252   -5.9975    0.0000 C   0  0  0  0  0  0  0  0  0  0  0  0
   12.6860   -6.6470    0.0000 C   0  0  0  0  0  0  0  0  0  0  0  0
   13.8192   -5.9975    0.0000 C   0  0  0  0  0  0  0  0  0  0  0  0
   13.8192   -4.6709    0.0000 C   0  0  0  0  0  0  0  0  0  0  0  0
   12.6860   -3.9937    0.0000 C   0  0  0  0  0  0  0  0  0  0  0  0
  1  2  1  0  0  0  0
  1  6  1  0  0  0  0
  1 13  1  0  0  0  0
  2  3  2  0  0  0  0
  2  4  1  0  0  0  0
  4  5  1  0  0  0  0
  6  7  1  0  0  0  0
  6 12  2  0  0  0  0
  7  8  2  0  0  0  0
  8  9  1  0  0  0  0
  9 10  1  0  0  0  0
  9 11  2  0  0  0  0
 11 12  1  0  0  0  0
 13 14  1  0  0  0  0
 13 18  1  0  0  0  0
 14 15  1  0  0  0  0
 15 16  1  0  0  0  0
 16 17  1  0  0  0  0
 16 19  1  0  0  0  0
 17 18  1  0  0  0  0
 19 20  1  0  0  0  0
 20 21  1  0  0  0  0
 21 22  1  0  0  0  0
 21 26  2  0  0  0  0
 22 23  2  0  0  0  0
 23 24  1  0  0  0  0
 24 25  2  0  0  0  0
 25 26  1  0  0  0  0
M  END
> <ID>
13918

> <Formula>
C22H27FN2O

> <FW>
354.461

> <DSSTox_CID>
28855

> <DSSTox_RID>
83124

> <DSSTox_GSID>
48929

> <DSSTox_FileID_Sort>
7801

> <TS_ChemName>
N-(4-Fluorophenyl)-N-[1-(2-phenylethyl)-4-piperidyl] propanamide

> <TS_ChemName_Synonyms>


> <TS_CASRN>
90736-23-5

> <CASRN_ChemName_Relationship>
primary

> <TS_Description>
single chemical compound

> <ChemNote>


> <STRUCTURE_Shown>
tested chemical

> <STRUCTURE_Formula>
C22H27FN2O

> <STRUCTURE_MW>
354.461

> <STRUCTURE_ChemType>
defined organic

> <STRUCTURE_DefinedOrganicForm>
parent

> <STRUCTURE_IUPAC>
N-(4-fluorophenyl)-N-[1-(2-phenylethyl)piperidin-4-yl]propanamide

> <STRUCTURE_SMILES>
Fc1ccc(cc1)N(C3CCN(CCc2ccccc2)CC3)C(=O)CC

> <STRUCTURE_SMILES_Desalt>
Fc1ccc(cc1)N(C3CCN(CCc2ccccc2)CC3)C(=O)CC

> <Substance_modify_yyyymmdd>
20111204

$$$$
