90779-69-4
ChemmineR-0915142007XD

 68 70  0  0  1  0  0  0  0  0  1 V2000
    8.0723  -12.0890    0.0000 C   0  0  0  0  0  0  0  0  0  0  0  0
    8.0723  -10.7631    0.0000 O   0  0  0  0  0  0  0  0  0  0  0  0
    5.7715  -12.0890    0.0000 N   0  0  0  0  0  0  0  0  0  0  0  0
    6.9024  -12.7520    0.0000 C   0  0  0  0  0  0  0  0  0  0  0  0
    9.2227  -12.7520    0.0000 N   0  0  0  0  0  0  0  0  0  0  0  0
    3.4707  -10.7631    0.0000 C   0  0  0  0  0  0  0  0  0  0  0  0
    5.7715  -10.7631    0.0000 C   0  0  0  0  0  0  0  0  0  0  0  0
    2.3008  -10.1002    0.0000 C   0  0  0  0  0  0  0  0  0  0  0  0
    4.6016  -10.1002    0.0000 C   0  0  0  0  0  0  0  0  0  0  0  0
    4.6016   -8.7353    0.0000 N   0  0  0  0  0  0  0  0  0  0  0  0
    1.1699  -10.7631    0.0000 C   0  0  0  0  0  0  0  0  0  0  0  0
    0.0000  -10.1002    0.0000 N   0  0  0  0  0  0  0  0  0  0  0  0
    6.9024  -10.1002    0.0000 O   0  0  0  0  0  0  0  0  0  0  0  0
    3.4707   -8.0918    0.0000 C   0  0  0  0  0  0  0  0  0  0  0  0
    2.3008   -8.7353    0.0000 O   0  0  0  0  0  0  0  0  0  0  0  0
    3.4707   -6.7659    0.0000 C   0  0  0  0  0  0  0  0  0  0  0  0
    4.5236   -5.9665    0.0000 N   0  0  0  0  0  0  0  0  0  0  0  0
    4.1142   -4.7186    0.0000 C   0  0  0  0  0  0  0  0  0  0  0  0
    2.7883   -4.7186    0.0000 C   0  0  0  0  0  0  0  0  0  0  0  0
    2.3788   -5.9665    0.0000 C   0  0  0  0  0  0  0  0  0  0  0  0
    5.6740   -6.6685    0.0000 C   0  0  0  0  0  0  0  0  0  0  0  0
    6.8439   -5.9665    0.0000 C   0  0  0  0  0  0  0  0  0  0  0  0
    5.6740   -7.9943    0.0000 O   0  0  0  0  0  0  0  0  0  0  0  0
    6.8439   -4.6406    0.0000 N   0  0  0  0  0  0  0  0  0  0  0  0
    7.9748   -7.9943    0.0000 S   0  0  0  0  0  0  0  0  0  0  0  0
    7.9748   -6.6685    0.0000 C   0  0  0  0  0  0  0  0  0  0  0  0
    6.8439   -1.9888    0.0000 C   0  0  0  0  0  0  0  0  0  0  0  0
    7.9748   -3.9777    0.0000 C   0  0  0  0  0  0  0  0  0  0  0  0
    6.8439   -0.6629    0.0000 C   0  0  0  0  0  0  0  0  0  0  0  0
    7.9748   -2.6518    0.0000 C   0  0  0  0  0  0  0  0  0  0  0  0
    9.1448   -4.6406    0.0000 O   0  0  0  0  0  0  0  0  0  0  0  0
    7.9748    0.0000    0.0000 O   0  0  0  0  0  0  0  0  0  0  0  0
    5.6740    0.0000    0.0000 N   0  0  0  0  0  0  0  0  0  0  0  0
    9.1448   -1.9888    0.0000 N   0  0  0  0  0  0  0  0  0  0  0  0
   11.4456   -1.9888    0.0000 C   0  0  0  0  0  0  0  0  0  0  0  0
   10.2757   -2.6518    0.0000 C   0  0  0  0  0  0  0  0  0  0  0  0
   10.2757   -3.9777    0.0000 O   0  0  0  0  0  0  0  0  0  0  0  0
   11.4456   -0.6629    0.0000 C   0  0  0  0  0  0  0  0  0  0  0  0
   12.5960   -2.6518    0.0000 N   0  0  0  0  0  0  0  0  0  0  0  0
   12.5960    0.0000    0.0000 O   0  0  0  0  0  0  0  0  0  0  0  0
   10.2757    0.0000    0.0000 C   0  0  0  0  0  0  0  0  0  0  0  0
   12.5960   -3.9777    0.0000 C   0  0  0  0  0  0  0  0  0  0  0  0
   13.7464   -4.6406    0.0000 C   0  0  0  0  0  0  0  0  0  0  0  0
   11.4456   -4.6406    0.0000 O   0  0  0  0  0  0  0  0  0  0  0  0
   13.7464   -5.9665    0.0000 N   0  0  0  0  0  0  0  0  0  0  0  0
   14.8968   -3.9777    0.0000 C   0  0  0  0  0  0  0  0  0  0  0  0
   16.0472   -4.6406    0.0000 C   0  0  0  0  0  0  0  0  0  0  0  0
   14.8968   -2.6518    0.0000 C   0  0  0  0  0  0  0  0  0  0  0  0
   17.1976   -3.9777    0.0000 C   0  0  0  0  0  0  0  0  0  0  0  0
   12.5960   -6.6685    0.0000 C   0  0  0  0  0  0  0  0  0  0  0  0
   12.5960   -7.9943    0.0000 C   0  0  0  0  0  0  0  0  0  0  0  0
   11.4456   -5.9665    0.0000 O   0  0  0  0  0  0  0  0  0  0  0  0
   13.7464   -8.6378    0.0000 C   0  0  0  0  0  0  0  0  0  0  0  0
   11.4456   -8.6378    0.0000 N   0  0  0  0  0  0  0  0  0  0  0  0
   14.8968   -7.9943    0.0000 C   0  0  0  0  0  0  0  0  0  0  0  0
   16.0472   -8.6378    0.0000 C   0  0  0  0  0  0  0  0  0  0  0  0
   14.8968   -6.6685    0.0000 C   0  0  0  0  0  0  0  0  0  0  0  0
   16.0472   -5.9665    0.0000 C   0  0  0  0  0  0  0  0  0  0  0  0
   17.1976   -7.9943    0.0000 C   0  0  0  0  0  0  0  0  0  0  0  0
   17.1976   -6.6685    0.0000 C   0  0  0  0  0  0  0  0  0  0  0  0
   18.3480   -5.9665    0.0000 O   0  0  0  0  0  0  0  0  0  0  0  0
   19.4984   -6.6685    0.0000 C   0  0  0  0  0  0  0  0  0  0  0  0
   19.4984   -7.9943    0.0000 C   0  0  0  0  0  0  0  0  0  0  0  0
    9.1448   -8.6378    0.0000 S   0  0  0  0  0  0  0  0  0  0  0  0
    9.1448   -9.9637    0.0000 C   0  0  0  0  0  0  0  0  0  0  0  0
   10.2757  -10.6461    0.0000 C   0  0  0  0  0  0  0  0  0  0  0  0
   11.4456   -9.9637    0.0000 C   0  0  0  0  0  0  0  0  0  0  0  0
   12.5960  -10.6461    0.0000 O   0  0  0  0  0  0  0  0  0  0  0  0
  1  2  2  0  0  0  0
  1  4  1  0  0  0  0
  1  5  1  0  0  0  0
  3  4  1  0  0  0  0
  3  7  1  0  0  0  0
  6  8  1  0  0  0  0
  6  9  1  0  0  0  0
  7  9  1  0  0  0  0
  7 13  2  0  0  0  0
  8 11  1  0  0  0  0
  9 10  1  6  0  0  0
 10 14  1  0  0  0  0
 11 12  1  0  0  0  0
 14 15  2  0  0  0  0
 14 16  1  0  0  0  0
 16 17  1  6  0  0  0
 16 20  1  0  0  0  0
 17 18  1  0  0  0  0
 17 21  1  0  0  0  0
 18 19  1  0  0  0  0
 19 20  1  0  0  0  0
 21 22  1  0  0  0  0
 21 23  2  0  0  0  0
 22 24  1  1  0  0  0
 22 26  1  0  0  0  0
 24 28  1  0  0  0  0
 25 26  1  0  0  0  0
 25 64  1  0  0  0  0
 27 29  1  0  0  0  0
 27 30  1  0  0  0  0
 28 30  1  0  0  0  0
 28 31  2  0  0  0  0
 29 32  2  0  0  0  0
 29 33  1  0  0  0  0
 30 34  1  6  0  0  0
 34 36  1  0  0  0  0
 35 36  1  0  0  0  0
 35 38  1  0  0  0  0
 35 39  1  6  0  0  0
 36 37  2  0  0  0  0
 38 40  1  0  0  0  0
 38 41  1  1  0  0  0
 39 42  1  0  0  0  0
 42 43  1  0  0  0  0
 42 44  2  0  0  0  0
 43 45  1  6  0  0  0
 43 46  1  0  0  0  0
 45 50  1  0  0  0  0
 46 47  1  0  0  0  0
 46 48  1  1  0  0  0
 47 49  1  0  0  0  0
 50 51  1  0  0  0  0
 50 52  2  0  0  0  0
 51 53  1  0  0  0  0
 51 54  1  1  0  0  0
 53 55  1  0  0  0  0
 54 67  1  0  0  0  0
 55 56  2  0  0  0  0
 55 57  1  0  0  0  0
 56 59  1  0  0  0  0
 57 58  2  0  0  0  0
 58 60  1  0  0  0  0
 59 60  2  0  0  0  0
 60 61  1  0  0  0  0
 61 62  1  0  0  0  0
 62 63  1  0  0  0  0
 64 65  1  0  0  0  0
 65 66  1  0  0  0  0
 66 67  1  0  0  0  0
 67 68  2  0  0  0  0
M  END
> <ID>
13977

> <Formula>
C43H67N11O12S2

> <FW>
994.1886

> <DSSTox_CID>
28917

> <DSSTox_RID>
83184

> <DSSTox_GSID>
48991

> <DSSTox_FileID_Sort>
7860

> <TS_ChemName>
Atosiban

> <TS_ChemName_Synonyms>


> <TS_CASRN>
90779-69-4

> <CASRN_ChemName_Relationship>
primary

> <TS_Description>
single chemical compound

> <ChemNote>


> <STRUCTURE_Shown>
tested chemical

> <STRUCTURE_Formula>
C43H67N11O12S2

> <STRUCTURE_MW>
994.1886

> <STRUCTURE_ChemType>
defined organic

> <STRUCTURE_DefinedOrganicForm>
parent

> <STRUCTURE_IUPAC>
1-({(4R,7S,10S,13S,16R)-7-(2-amino-2-oxoethyl)-13-[(2S)-butan-2-yl]-16-(4-ethoxybenzyl)-10-[(1R)-1-hydroxyethyl]-6,9,12,15,18-pentaoxo-1,2-dithia-5,8,11,14,17-pentaazacycloicosan-4-yl}carbonyl)-L-prolyl-L-ornithylglycinamide

> <STRUCTURE_SMILES>
NC(=O)CNC(=O)[C@H](CCCN)NC(=O)[C@@H]1CCCN1C(=O)[C@@H]3CSSCCC(=O)N[C@H](Cc2ccc(OCC)cc2)C(=O)N[C@@H]([C@@H](C)CC)C(=O)N[C@@H]([C@@H](C)O)C(=O)N[C@@H](CC(N)=O)C(=O)N3

> <STRUCTURE_SMILES_Desalt>
NC(=O)CNC(=O)[C@H](CCCN)NC(=O)[C@@H]1CCCN1C(=O)[C@@H]3CSSCCC(=O)N[C@H](Cc2ccc(OCC)cc2)C(=O)N[C@@H]([C@@H](C)CC)C(=O)N[C@@H]([C@@H](C)O)C(=O)N[C@@H](CC(N)=O)C(=O)N3

> <Substance_modify_yyyymmdd>
20111204

$$$$
