90823-38-4
ChemmineR-0915142007XD

 36 38  0  0  0  0  0  0  0  0  2 V2000
    2.3033   -7.1896    0.0000 C   0  0  0  0  0  0  0  0  0  0  0  0
    1.1517   -7.8604    0.0000 C   0  0  0  0  0  0  0  0  0  0  0  0
    0.0000   -7.1896    0.0000 C   0  0  0  0  0  0  0  0  0  0  0  0
    0.0000   -5.8590    0.0000 C   0  0  0  0  0  0  0  0  0  0  0  0
    1.1517   -5.2105    0.0000 C   0  0  0  0  0  0  0  0  0  0  0  0
    2.3033   -5.8590    0.0000 C   0  0  0  0  0  0  0  0  0  0  0  0
    3.4438   -7.8604    0.0000 C   0  0  0  0  0  0  0  0  0  0  0  0
    4.5955   -7.1896    0.0000 N   0  3  0  0  0  0  0  0  0  0  0  0
    5.7472   -6.5410    0.0000 C   0  0  0  0  0  0  0  0  0  0  0  0
    6.8988   -7.1896    0.0000 C   0  0  0  0  0  0  0  0  0  0  0  0
    6.8988   -8.5201    0.0000 N   0  0  0  0  0  0  0  0  0  0  0  0
    8.0617   -9.1910    0.0000 C   0  0  0  0  0  0  0  0  0  0  0  0
    9.2134   -8.5201    0.0000 C   0  0  0  0  0  0  0  0  0  0  0  0
    8.0617  -10.5216    0.0000 C   0  0  0  0  0  0  0  0  0  0  0  0
   10.3650   -9.1910    0.0000 C   0  0  0  0  0  0  0  0  0  0  0  0
    9.2134  -11.1813    0.0000 C   0  0  0  0  0  0  0  0  0  0  0  0
   10.3650  -10.5216    0.0000 C   0  0  0  0  0  0  0  0  0  0  0  0
    9.2134   -7.1896    0.0000 C   0  0  0  0  0  0  0  0  0  0  0  0
    6.8988  -11.1813    0.0000 C   0  0  0  0  0  0  0  0  0  0  0  0
    8.0617   -6.5410    0.0000 O   0  0  0  0  0  0  0  0  0  0  0  0
    3.9358   -6.0379    0.0000 C   0  0  0  0  0  0  0  0  0  0  0  0
    4.5955   -4.8862    0.0000 C   0  0  0  0  0  0  0  0  0  0  0  0
    5.2664   -8.3412    0.0000 C   0  0  0  0  0  0  0  0  0  0  0  0
    4.5955   -9.5041    0.0000 C   0  0  0  0  0  0  0  0  0  0  0  0
   10.4769   -2.1580    0.0000 C   0  0  0  0  0  0  0  0  0  0  0  0
    9.2245   -2.6164    0.0000 C   0  0  0  0  0  0  0  0  0  0  0  0
   10.7117   -0.8498    0.0000 C   0  0  0  0  0  0  0  0  0  0  0  0
    8.2182   -1.7666    0.0000 C   0  0  0  0  0  0  0  0  0  0  0  0
    9.6942    0.0000    0.0000 C   0  0  0  0  0  0  0  0  0  0  0  0
    8.4419   -0.4473    0.0000 C   0  0  0  0  0  0  0  0  0  0  0  0
    8.7326   -3.8464    0.0000 C   0  0  0  0  0  0  0  0  0  0  0  0
    7.4020   -3.7457    0.0000 N   0  5  0  0  0  0  0  0  0  0  0  0
    7.0777   -2.4711    0.0000 S   0  0  0  0  0  0  0  0  0  0  0  0
    9.4370   -4.9868    0.0000 O   0  0  0  0  0  0  0  0  0  0  0  0
    6.2615   -1.4088    0.0000 O   0  0  0  0  0  0  0  0  0  0  0  0
    5.7695   -2.6388    0.0000 O   0  0  0  0  0  0  0  0  0  0  0  0
  1  2  2  0  0  0  0
  1  6  1  0  0  0  0
  1  7  1  0  0  0  0
  2  3  1  0  0  0  0
  3  4  2  0  0  0  0
  4  5  1  0  0  0  0
  5  6  2  0  0  0  0
  7  8  1  0  0  0  0
  8  9  1  0  0  0  0
  8 21  1  0  0  0  0
  8 23  1  0  0  0  0
  9 10  1  0  0  0  0
 10 11  1  0  0  0  0
 10 20  2  0  0  0  0
 11 12  1  0  0  0  0
 12 13  2  0  0  0  0
 12 14  1  0  0  0  0
 13 15  1  0  0  0  0
 13 18  1  0  0  0  0
 14 16  2  0  0  0  0
 14 19  1  0  0  0  0
 15 17  2  0  0  0  0
 16 17  1  0  0  0  0
 21 22  1  0  0  0  0
 23 24  1  0  0  0  0
 25 26  1  0  0  0  0
 25 27  2  0  0  0  0
 26 31  1  0  0  0  0
 26 28  2  0  0  0  0
 27 29  1  0  0  0  0
 28 30  1  0  0  0  0
 28 33  1  0  0  0  0
 29 30  2  0  0  0  0
 31 32  1  0  0  0  0
 31 34  2  0  0  0  0
 32 33  1  0  0  0  0
 33 35  2  0  0  0  0
 33 36  2  0  0  0  0
M  END
> <ID>
6754

> <Formula>
C28H33N3O4S

> <FW>
507.6443 (325.4672+182.1771)

> <DSSTox_CID>
14361

> <DSSTox_RID>
79147

> <DSSTox_GSID>
34361

> <DSSTox_FileID_Sort>
3829

> <TS_ChemName>
Denatonium saccharide

> <TS_ChemName_Synonyms>
Denatonium saccharide 9Benzenemethanaminium, N-(2-((2,6-dimethylphenyl)amino)-2-oxoethyl)-N,N-diethyl-, saccharide)

> <TS_CASRN>
90823-38-4

> <CASRN_ChemName_Relationship>
primary

> <TS_Description>
single chemical compound

> <ChemNote>


> <STRUCTURE_Shown>
tested chemical

> <STRUCTURE_Formula>
C28H33N3O4S

> <STRUCTURE_MW>
507.6443

> <STRUCTURE_ChemType>
defined organic

> <STRUCTURE_DefinedOrganicForm>
complex

> <STRUCTURE_IUPAC>
N-benzyl-2-[(2,6-dimethylphenyl)amino]-N,N-diethyl-2-oxoethanaminium 3-oxo-3H-1,2-benzothiazol-2-ide 1,1-dioxide

> <STRUCTURE_SMILES>
CC[N+](Cc1ccccc1)(CC)CC(=O)Nc2c(C)cccc2C.O=C1[N-]S(=O)(=O)c2ccccc12

> <STRUCTURE_SMILES_Desalt>
O=C(Nc1c(C)cccc1C)C[N+](Cc2ccccc2)(CC)CC

> <Substance_modify_yyyymmdd>
20080429

$$$$
