909-39-7
ChemmineR-0915142007XD

 29 30  0  0  0  0  0  0  0  0  1 V2000
   10.0527   -6.4665    0.0000 Cl   0  0  0  0  0  0  0  0  0  0  0  0
    1.3554   -6.3253    0.0000 Cl   0  0  0  0  0  0  0  0  0  0  0  0
    0.0000   -4.3910    0.0000 O    0  0  0  0  0  0  0  0  0  0  0  0
    1.2848   -4.7157    0.0000 C    0  0  0  0  0  0  0  0  0  0  0  0
    2.2308   -3.7980    0.0000 C    0  0  0  0  0  0  0  0  0  0  0  0
    3.5156   -4.1228    0.0000 N    0  0  0  0  0  0  0  0  0  0  0  0
    4.4475   -3.1909    0.0000 C    0  0  0  0  0  0  0  0  0  0  0  0
    5.7464   -3.5439    0.0000 C    0  0  0  0  0  0  0  0  0  0  0  0
    6.0853   -4.8146    0.0000 N    0  0  0  0  0  0  0  0  0  0  0  0
    7.3701   -5.1534    0.0000 C    0  0  0  0  0  0  0  0  0  0  0  0
    8.3020   -4.2216    0.0000 C    0  0  0  0  0  0  0  0  0  0  0  0
    9.6150   -4.5746    0.0000 C    0  0  0  0  0  0  0  0  0  0  0  0
   10.5610   -3.6427    0.0000 N    0  0  0  0  0  0  0  0  0  0  0  0
   10.1798   -2.4002    0.0000 C    0  0  0  0  0  0  0  0  0  0  0  0
    8.8526   -2.2873    0.0000 C    0  0  0  0  0  0  0  0  0  0  0  0
    8.2737   -1.0872    0.0000 C    0  0  0  0  0  0  0  0  0  0  0  0
    9.0220    0.0000    0.0000 C    0  0  0  0  0  0  0  0  0  0  0  0
   10.3351   -0.0988    0.0000 C    0  0  0  0  0  0  0  0  0  0  0  0
   10.9281   -1.2989    0.0000 C    0  0  0  0  0  0  0  0  0  0  0  0
   12.2412   -1.2001    0.0000 C    0  0  0  0  0  0  0  0  0  0  0  0
   13.1872   -2.1602    0.0000 C    0  0  0  0  0  0  0  0  0  0  0  0
   12.9612   -3.4733    0.0000 C    0  0  0  0  0  0  0  0  0  0  0  0
   14.1190   -4.1510    0.0000 C    0  0  0  0  0  0  0  0  0  0  0  0
   14.1190   -5.4923    0.0000 C    0  0  0  0  0  0  0  0  0  0  0  0
   12.9612   -6.1418    0.0000 C    0  0  0  0  0  0  0  0  0  0  0  0
   11.8176   -5.4923    0.0000 C    0  0  0  0  0  0  0  0  0  0  0  0
   11.8176   -4.1510    0.0000 C    0  0  0  0  0  0  0  0  0  0  0  0
    5.1393   -5.7606    0.0000 C    0  0  0  0  0  0  0  0  0  0  0  0
    3.8545   -5.4076    0.0000 C    0  0  0  0  0  0  0  0  0  0  0  0
  3  4  1  0  0  0  0
  4  5  1  0  0  0  0
  5  6  1  0  0  0  0
  6  7  1  0  0  0  0
  6 29  1  0  0  0  0
  7  8  1  0  0  0  0
  8  9  1  0  0  0  0
  9 10  1  0  0  0  0
  9 28  1  0  0  0  0
 10 11  1  0  0  0  0
 11 12  1  0  0  0  0
 12 13  1  0  0  0  0
 13 14  1  0  0  0  0
 13 27  1  0  0  0  0
 14 15  2  0  0  0  0
 14 19  1  0  0  0  0
 15 16  1  0  0  0  0
 16 17  2  0  0  0  0
 17 18  1  0  0  0  0
 18 19  2  0  0  0  0
 19 20  1  0  0  0  0
 20 21  2  0  0  0  0
 21 22  1  0  0  0  0
 22 23  2  0  0  0  0
 22 27  1  0  0  0  0
 23 24  1  0  0  0  0
 24 25  2  0  0  0  0
 25 26  1  0  0  0  0
 26 27  2  0  0  0  0
 28 29  1  0  0  0  0
M  END
> <ID>
11164

> <Formula>
C23H31Cl2N3O

> <FW>
436.4177 (36.4609+36.4609+363.4959)

> <DSSTox_CID>
25752

> <DSSTox_RID>
81096

> <DSSTox_GSID>
45752

> <DSSTox_FileID_Sort>
5777

> <TS_ChemName>
Opipramol dihydrochloride

> <TS_ChemName_Synonyms>


> <TS_CASRN>
909-39-7

> <CASRN_ChemName_Relationship>
primary

> <TS_Description>
single chemical compound

> <ChemNote>
parent [315-72-0]

> <STRUCTURE_Shown>
tested chemical

> <STRUCTURE_Formula>
C23H31Cl2N3O

> <STRUCTURE_MW>
436.4177

> <STRUCTURE_ChemType>
defined organic

> <STRUCTURE_DefinedOrganicForm>
complex

> <STRUCTURE_IUPAC>
2-{4-[3-(5H-dibenzo[b,f]azepin-5-yl)propyl]piperazin-1-yl}ethanol dihydrochloride

> <STRUCTURE_SMILES>
Cl.Cl.OCCN1CCN(CC1)CCCN3c4ccccc4C=Cc2ccccc23

> <STRUCTURE_SMILES_Desalt>
OCCN1CCN(CC1)CCCN3c4ccccc4C=Cc2ccccc23

> <Substance_modify_yyyymmdd>
20110826

$$$$
