91-16-7
ChemmineR-0915142007XD

 10 10  0  0  0  0  0  0  0  0  1 V2000
    2.0036   -1.1532    0.0000 C   0  0  0  0  0  0  0  0  0  0  0  0
    3.3322   -1.1532    0.0000 C   0  0  0  0  0  0  0  0  0  0  0  0
    3.9859    0.0000    0.0000 O   0  0  0  0  0  0  0  0  0  0  0  0
    1.3286    0.0000    0.0000 O   0  0  0  0  0  0  0  0  0  0  0  0
    1.3286   -2.3065    0.0000 C   0  0  0  0  0  0  0  0  0  0  0  0
    3.9859   -2.3065    0.0000 C   0  0  0  0  0  0  0  0  0  0  0  0
    0.0000    0.0000    0.0000 C   0  0  0  0  0  0  0  0  0  0  0  0
    5.3145    0.0000    0.0000 C   0  0  0  0  0  0  0  0  0  0  0  0
    3.3322   -3.4597    0.0000 C   0  0  0  0  0  0  0  0  0  0  0  0
    2.0036   -3.4597    0.0000 C   0  0  0  0  0  0  0  0  0  0  0  0
  1  2  1  0  0  0  0
  1  4  1  0  0  0  0
  1  5  2  0  0  0  0
  2  3  1  0  0  0  0
  2  6  2  0  0  0  0
  3  8  1  0  0  0  0
  4  7  1  0  0  0  0
  5 10  1  0  0  0  0
  6  9  1  0  0  0  0
  9 10  2  0  0  0  0
M  END
> <ID>
12219

> <Formula>
C8H10O2

> <FW>
138.1638

> <DSSTox_CID>
27065

> <DSSTox_RID>
82081

> <DSSTox_GSID>
47065

> <DSSTox_FileID_Sort>
6762

> <TS_ChemName>
1,2-Dimethoxybenzene

> <TS_ChemName_Synonyms>


> <TS_CASRN>
91-16-7

> <CASRN_ChemName_Relationship>
primary

> <TS_Description>
single chemical compound

> <ChemNote>


> <STRUCTURE_Shown>
tested chemical

> <STRUCTURE_Formula>
C8H10O2

> <STRUCTURE_MW>
138.1638

> <STRUCTURE_ChemType>
defined organic

> <STRUCTURE_DefinedOrganicForm>
parent

> <STRUCTURE_IUPAC>
1,2-dimethoxybenzene

> <STRUCTURE_SMILES>
COc1ccccc1OC

> <STRUCTURE_SMILES_Desalt>
COc1ccccc1OC

> <Substance_modify_yyyymmdd>
20100429

$$$$
