91-19-0
ChemmineR-0915142007XD

 10 11  0  0  0  0  0  0  0  0  1 V2000
    3.4547   -2.6532    0.0000 N   0  0  0  0  0  0  0  0  0  0  0  0
    3.4547    0.0000    0.0000 N   0  0  0  0  0  0  0  0  0  0  0  0
    2.3031   -1.9991    0.0000 C   0  0  0  0  0  0  0  0  0  0  0  0
    2.3031   -0.6541    0.0000 C   0  0  0  0  0  0  0  0  0  0  0  0
    4.6063   -0.6541    0.0000 C   0  0  0  0  0  0  0  0  0  0  0  0
    4.6063   -1.9991    0.0000 C   0  0  0  0  0  0  0  0  0  0  0  0
    1.1516    0.0000    0.0000 C   0  0  0  0  0  0  0  0  0  0  0  0
    1.1516   -2.6532    0.0000 C   0  0  0  0  0  0  0  0  0  0  0  0
    0.0000   -1.9991    0.0000 C   0  0  0  0  0  0  0  0  0  0  0  0
    0.0000   -0.6541    0.0000 C   0  0  0  0  0  0  0  0  0  0  0  0
  1  3  1  0  0  0  0
  1  6  2  0  0  0  0
  2  5  2  0  0  0  0
  2  4  1  0  0  0  0
  3  4  2  0  0  0  0
  3  8  1  0  0  0  0
  4  7  1  0  0  0  0
  5  6  1  0  0  0  0
  7 10  2  0  0  0  0
  8  9  2  0  0  0  0
  9 10  1  0  0  0  0
M  END
> <ID>
14296

> <Formula>
C8H6N2

> <FW>
130.1466

> <DSSTox_CID>
29392

> <DSSTox_RID>
83507

> <DSSTox_GSID>
49432

> <DSSTox_FileID_Sort>
8182

> <TS_ChemName>
Quinoxaline

> <TS_ChemName_Synonyms>


> <TS_CASRN>
91-19-0

> <CASRN_ChemName_Relationship>
primary

> <TS_Description>
single chemical compound

> <ChemNote>


> <STRUCTURE_Shown>
tested chemical

> <STRUCTURE_Formula>
C8H6N2

> <STRUCTURE_MW>
130.1466

> <STRUCTURE_ChemType>
defined organic

> <STRUCTURE_DefinedOrganicForm>
parent

> <STRUCTURE_IUPAC>
quinoxaline

> <STRUCTURE_SMILES>
c1cccc2nccnc12

> <STRUCTURE_SMILES_Desalt>
c1cccc2nccnc12

> <Substance_modify_yyyymmdd>
20111204

$$$$
