91-33-8
ChemmineR-0915142007XD

 26 28  0  0  0  0  0  0  0  0  1 V2000
    1.9998   -2.3111    0.0000 C    0  0  0  0  0  0  0  0  0  0  0  0
    1.3292   -1.1496    0.0000 S    0  0  0  0  0  0  0  0  0  0  0  0
    0.6706    0.0000    0.0000 N    0  0  0  0  0  0  0  0  0  0  0  0
    2.4788   -0.4910    0.0000 O    0  0  0  0  0  0  0  0  0  0  0  0
    0.1796   -1.8202    0.0000 O    0  0  0  0  0  0  0  0  0  0  0  0
    1.3292   -3.4607    0.0000 C    0  0  0  0  0  0  0  0  0  0  0  0
    0.0000   -3.4607    0.0000 Cl   0  0  0  0  0  0  0  0  0  0  0  0
    1.9998   -4.6103    0.0000 C    0  0  0  0  0  0  0  0  0  0  0  0
    3.3290   -4.6103    0.0000 C    0  0  0  0  0  0  0  0  0  0  0  0
    3.9876   -3.4607    0.0000 C    0  0  0  0  0  0  0  0  0  0  0  0
    3.3290   -2.3111    0.0000 C    0  0  0  0  0  0  0  0  0  0  0  0
    5.3168   -3.4607    0.0000 S    0  0  0  0  0  0  0  0  0  0  0  0
    5.0892   -2.1435    0.0000 O    0  0  0  0  0  0  0  0  0  0  0  0
    6.5741   -3.0056    0.0000 O    0  0  0  0  0  0  0  0  0  0  0  0
    5.9873   -4.6103    0.0000 N    0  0  0  0  0  0  0  0  0  0  0  0
    5.3168   -5.7598    0.0000 C    0  0  0  0  0  0  0  0  0  0  0  0
    5.9873   -6.9214    0.0000 C    0  0  0  0  0  0  0  0  0  0  0  0
    7.3165   -6.9214    0.0000 S    0  0  0  0  0  0  0  0  0  0  0  0
    7.9871   -8.0709    0.0000 C    0  0  0  0  0  0  0  0  0  0  0  0
    9.3163   -8.0709    0.0000 C    0  0  0  0  0  0  0  0  0  0  0  0
    9.9749   -9.2205    0.0000 C    0  0  0  0  0  0  0  0  0  0  0  0
   11.3041   -9.2205    0.0000 C    0  0  0  0  0  0  0  0  0  0  0  0
   11.9747   -8.0709    0.0000 C    0  0  0  0  0  0  0  0  0  0  0  0
   11.3041   -6.9214    0.0000 C    0  0  0  0  0  0  0  0  0  0  0  0
    9.9749   -6.9214    0.0000 C    0  0  0  0  0  0  0  0  0  0  0  0
    3.9876   -5.7598    0.0000 N    0  0  0  0  0  0  0  0  0  0  0  0
  1  2  1  0  0  0  0
  1  6  2  0  0  0  0
  1 11  1  0  0  0  0
  2  3  1  0  0  0  0
  2  4  2  0  0  0  0
  2  5  2  0  0  0  0
  6  7  1  0  0  0  0
  6  8  1  0  0  0  0
  8  9  2  0  0  0  0
  9 10  1  0  0  0  0
  9 26  1  0  0  0  0
 10 11  2  0  0  0  0
 10 12  1  0  0  0  0
 12 13  2  0  0  0  0
 12 14  2  0  0  0  0
 12 15  1  0  0  0  0
 15 16  1  0  0  0  0
 16 17  1  0  0  0  0
 16 26  2  0  0  0  0
 17 18  1  0  0  0  0
 18 19  1  0  0  0  0
 19 20  1  0  0  0  0
 20 21  2  0  0  0  0
 20 25  1  0  0  0  0
 21 22  1  0  0  0  0
 22 23  2  0  0  0  0
 23 24  1  0  0  0  0
 24 25  2  0  0  0  0
M  END
> <ID>
2406

> <Formula>
C15H14ClN3O4S3

> <FW>
431.9374

> <DSSTox_CID>
2658

> <DSSTox_RID>
76677

> <DSSTox_GSID>
22658

> <DSSTox_FileID_Sort>
1361

> <TS_ChemName>
Benzthiazide

> <TS_ChemName_Synonyms>


> <TS_CASRN>
91-33-8

> <CASRN_ChemName_Relationship>
primary

> <TS_Description>
single chemical compound

> <ChemNote>


> <STRUCTURE_Shown>
tested chemical

> <STRUCTURE_Formula>
C15H14ClN3O4S3

> <STRUCTURE_MW>
431.9374

> <STRUCTURE_ChemType>
defined organic

> <STRUCTURE_DefinedOrganicForm>
parent

> <STRUCTURE_IUPAC>
3-[(benzylsulfanyl)methyl]-6-chloro-2H-1,2,4-benzothiadiazine-7-sulfonamide 1,1-dioxide

> <STRUCTURE_SMILES>
NS(=O)(=O)c3cc1c(N=C(NS1(=O)=O)CSCc2ccccc2)cc3Cl

> <STRUCTURE_SMILES_Desalt>
NS(=O)(=O)c3cc1c(N=C(NS1(=O)=O)CSCc2ccccc2)cc3Cl

> <Substance_modify_yyyymmdd>
20080429

$$$$
