91-59-8
ChemmineR-0915142007XD

 11 12  0  0  0  0  0  0  0  0  1 V2000
    3.4554   -1.9983    0.0000 C   0  0  0  0  0  0  0  0  0  0  0  0
    3.4554   -0.6680    0.0000 C   0  0  0  0  0  0  0  0  0  0  0  0
    2.3036    0.0000    0.0000 C   0  0  0  0  0  0  0  0  0  0  0  0
    1.1518   -0.6680    0.0000 C   0  0  0  0  0  0  0  0  0  0  0  0
    1.1518   -1.9983    0.0000 C   0  0  0  0  0  0  0  0  0  0  0  0
    2.3036   -2.6606    0.0000 C   0  0  0  0  0  0  0  0  0  0  0  0
    0.0000   -2.6606    0.0000 N   0  0  0  0  0  0  0  0  0  0  0  0
    4.6071    0.0000    0.0000 C   0  0  0  0  0  0  0  0  0  0  0  0
    5.7589   -0.6680    0.0000 C   0  0  0  0  0  0  0  0  0  0  0  0
    5.7589   -1.9983    0.0000 C   0  0  0  0  0  0  0  0  0  0  0  0
    4.6071   -2.6606    0.0000 C   0  0  0  0  0  0  0  0  0  0  0  0
  1  2  2  0  0  0  0
  1  6  1  0  0  0  0
  1 11  1  0  0  0  0
  2  3  1  0  0  0  0
  2  8  1  0  0  0  0
  3  4  2  0  0  0  0
  4  5  1  0  0  0  0
  5  6  2  0  0  0  0
  5  7  1  0  0  0  0
  8  9  2  0  0  0  0
  9 10  1  0  0  0  0
 10 11  2  0  0  0  0
M  END
> <ID>
887

> <Formula>
C10H9N

> <FW>
143.1852

> <DSSTox_CID>
921

> <DSSTox_RID>
75868

> <DSSTox_GSID>
20921

> <DSSTox_FileID_Sort>
552

> <TS_ChemName>
2-Naphthylamine

> <TS_ChemName_Synonyms>


> <TS_CASRN>
91-59-8

> <CASRN_ChemName_Relationship>
primary

> <TS_Description>
single chemical compound

> <ChemNote>


> <STRUCTURE_Shown>
tested chemical

> <STRUCTURE_Formula>
C10H9N

> <STRUCTURE_MW>
143.1852

> <STRUCTURE_ChemType>
defined organic

> <STRUCTURE_DefinedOrganicForm>
parent

> <STRUCTURE_IUPAC>
naphthalen-2-amine

> <STRUCTURE_SMILES>
Nc1ccc2ccccc2c1

> <STRUCTURE_SMILES_Desalt>
Nc1ccc2ccccc2c1

> <Substance_modify_yyyymmdd>
20080429

$$$$
