91-58-7
ChemmineR-0915142007XD

 11 12  0  0  0  0  0  0  0  0  1 V2000
    3.4485   -0.6932    0.0000 C    0  0  0  0  0  0  0  0  0  0  0  0
    3.4485   -2.0102    0.0000 C    0  0  0  0  0  0  0  0  0  0  0  0
    2.3279   -0.0347    0.0000 C    0  0  0  0  0  0  0  0  0  0  0  0
    4.6211   -0.0347    0.0000 C    0  0  0  0  0  0  0  0  0  0  0  0
    2.3106   -2.6629    0.0000 C    0  0  0  0  0  0  0  0  0  0  0  0
    4.6211   -2.6976    0.0000 C    0  0  0  0  0  0  0  0  0  0  0  0
    1.1553   -0.6758    0.0000 C    0  0  0  0  0  0  0  0  0  0  0  0
    5.7764   -0.6932    0.0000 C    0  0  0  0  0  0  0  0  0  0  0  0
    1.1553   -2.0102    0.0000 C    0  0  0  0  0  0  0  0  0  0  0  0
    5.7764   -2.0102    0.0000 C    0  0  0  0  0  0  0  0  0  0  0  0
    0.0000    0.0000    0.0000 Cl   0  0  0  0  0  0  0  0  0  0  0  0
  1  2  1  0  0  0  0
  1  3  2  0  0  0  0
  1  4  1  0  0  0  0
  2  5  2  0  0  0  0
  2  6  1  0  0  0  0
  3  7  1  0  0  0  0
  4  8  2  0  0  0  0
  5  9  1  0  0  0  0
  6 10  2  0  0  0  0
  7 11  1  0  0  0  0
  7  9  2  0  0  0  0
  8 10  1  0  0  0  0
M  END
> <ID>
3446

> <Formula>
C10H7Cl

> <FW>
162.6156

> <DSSTox_CID>
3971

> <DSSTox_RID>
77243

> <DSSTox_GSID>
23971

> <DSSTox_FileID_Sort>
1926

> <TS_ChemName>
2-Chloronaphthalene

> <TS_ChemName_Synonyms>
2-Chloronaphthalene (beta-Chloronaphthalene)

> <TS_CASRN>
91-58-7

> <CASRN_ChemName_Relationship>
primary

> <TS_Description>
single chemical compound

> <ChemNote>


> <STRUCTURE_Shown>
tested chemical

> <STRUCTURE_Formula>
C10H7Cl

> <STRUCTURE_MW>
162.6156

> <STRUCTURE_ChemType>
defined organic

> <STRUCTURE_DefinedOrganicForm>
parent

> <STRUCTURE_IUPAC>
2-chloronaphthalene

> <STRUCTURE_SMILES>
Clc1ccc2ccccc2c1

> <STRUCTURE_SMILES_Desalt>
Clc1ccc2ccccc2c1

> <Substance_modify_yyyymmdd>
20080429

$$$$
