91-63-4
ChemmineR-0915142007XD

 11 12  0  0  0  0  0  0  0  0  1 V2000
    2.3257   -0.0174    0.0000 N   0  0  0  0  0  0  0  0  0  0  0  0
    3.4597   -0.6769    0.0000 C   0  0  0  0  0  0  0  0  0  0  0  0
    1.1687   -0.6769    0.0000 C   0  0  0  0  0  0  0  0  0  0  0  0
    3.4597   -2.0018    0.0000 C   0  0  0  0  0  0  0  0  0  0  0  0
    2.3257   -2.6613    0.0000 C   0  0  0  0  0  0  0  0  0  0  0  0
    1.1687   -2.0018    0.0000 C   0  0  0  0  0  0  0  0  0  0  0  0
    4.6168   -0.0174    0.0000 C   0  0  0  0  0  0  0  0  0  0  0  0
    4.6168   -2.6613    0.0000 C   0  0  0  0  0  0  0  0  0  0  0  0
    0.0000    0.0000    0.0000 C   0  0  0  0  0  0  0  0  0  0  0  0
    5.7854   -0.6769    0.0000 C   0  0  0  0  0  0  0  0  0  0  0  0
    5.7854   -2.0018    0.0000 C   0  0  0  0  0  0  0  0  0  0  0  0
  1  2  1  0  0  0  0
  1  3  2  0  0  0  0
  2  4  2  0  0  0  0
  2  7  1  0  0  0  0
  3  6  1  0  0  0  0
  3  9  1  0  0  0  0
  4  8  1  0  0  0  0
  4  5  1  0  0  0  0
  5  6  2  0  0  0  0
  7 10  2  0  0  0  0
  8 11  2  0  0  0  0
 10 11  1  0  0  0  0
M  END
> <ID>
7650

> <Formula>
C10H9N

> <FW>
143.1852

> <DSSTox_CID>
20271

> <DSSTox_RID>
79464

> <DSSTox_GSID>
40271

> <DSSTox_FileID_Sort>
4146

> <TS_ChemName>
Quinaldine

> <TS_ChemName_Synonyms>


> <TS_CASRN>
91-63-4

> <CASRN_ChemName_Relationship>
primary

> <TS_Description>
single chemical compound

> <ChemNote>


> <STRUCTURE_Shown>
tested chemical

> <STRUCTURE_Formula>
C10H9N

> <STRUCTURE_MW>
143.1852

> <STRUCTURE_ChemType>
defined organic

> <STRUCTURE_DefinedOrganicForm>
parent

> <STRUCTURE_IUPAC>
2-methylquinoline

> <STRUCTURE_SMILES>
Cc1ccc2ccccc2n1

> <STRUCTURE_SMILES_Desalt>
Cc1ccc2ccccc2n1

> <Substance_modify_yyyymmdd>
20080429

$$$$
