91-61-2
ChemmineR-0915142007XD

 11 12  0  0  0  0  0  0  0  0  1 V2000
    1.1633    0.0000    0.0000 N   0  0  0  0  0  0  0  0  0  0  0  0
    2.3324   -0.6508    0.0000 C   0  0  0  0  0  0  0  0  0  0  0  0
    2.3324   -2.0099    0.0000 C   0  0  0  0  0  0  0  0  0  0  0  0
    0.0000   -0.6508    0.0000 C   0  0  0  0  0  0  0  0  0  0  0  0
    3.4323    0.0000    0.0000 C   0  0  0  0  0  0  0  0  0  0  0  0
    3.4323   -2.6549    0.0000 C   0  0  0  0  0  0  0  0  0  0  0  0
    1.1633   -2.6549    0.0000 C   0  0  0  0  0  0  0  0  0  0  0  0
    0.0000   -2.0099    0.0000 C   0  0  0  0  0  0  0  0  0  0  0  0
    4.5956   -2.0099    0.0000 C   0  0  0  0  0  0  0  0  0  0  0  0
    4.5956   -0.6508    0.0000 C   0  0  0  0  0  0  0  0  0  0  0  0
    5.7589   -2.6549    0.0000 C   0  0  0  0  0  0  0  0  0  0  0  0
  1  2  1  0  0  0  0
  1  4  1  0  0  0  0
  2  3  2  0  0  0  0
  2  5  1  0  0  0  0
  3  6  1  0  0  0  0
  3  7  1  0  0  0  0
  4  8  1  0  0  0  0
  5 10  2  0  0  0  0
  6  9  2  0  0  0  0
  7  8  1  0  0  0  0
  9 10  1  0  0  0  0
  9 11  1  0  0  0  0
M  END
> <ID>
12584

> <Formula>
C10H13N

> <FW>
147.2169

> <DSSTox_CID>
27444

> <DSSTox_RID>
82351

> <DSSTox_GSID>
47444

> <DSSTox_FileID_Sort>
7032

> <TS_ChemName>
6-Methyl-1,2,3,4-tetrahydroquinoline

> <TS_ChemName_Synonyms>


> <TS_CASRN>
91-61-2

> <CASRN_ChemName_Relationship>
primary

> <TS_Description>
single chemical compound

> <ChemNote>


> <STRUCTURE_Shown>
tested chemical

> <STRUCTURE_Formula>
C10H13N

> <STRUCTURE_MW>
147.2169

> <STRUCTURE_ChemType>
defined organic

> <STRUCTURE_DefinedOrganicForm>
parent

> <STRUCTURE_IUPAC>
6-methyl-1,2,3,4-tetrahydroquinoline

> <STRUCTURE_SMILES>
Cc1ccc2NCCCc2c1

> <STRUCTURE_SMILES_Desalt>
Cc1ccc2NCCCc2c1

> <Substance_modify_yyyymmdd>
20100620

$$$$
