91-76-9
ChemmineR-0915142007XD

 14 15  0  0  0  0  0  0  0  0  1 V2000
    6.9132   -3.9889    0.0000 N   0  0  0  0  0  0  0  0  0  0  0  0
    5.7587   -3.3252    0.0000 C   0  0  0  0  0  0  0  0  0  0  0  0
    4.6111   -3.9889    0.0000 N   0  0  0  0  0  0  0  0  0  0  0  0
    3.4566   -3.3252    0.0000 C   0  0  0  0  0  0  0  0  0  0  0  0
    3.4566   -1.9979    0.0000 N   0  0  0  0  0  0  0  0  0  0  0  0
    4.6111   -1.3273    0.0000 C   0  0  0  0  0  0  0  0  0  0  0  0
    5.7587   -1.9979    0.0000 N   0  0  0  0  0  0  0  0  0  0  0  0
    4.6111    0.0000    0.0000 N   0  0  0  0  0  0  0  0  0  0  0  0
    2.3021   -3.9889    0.0000 C   0  0  0  0  0  0  0  0  0  0  0  0
    2.3021   -5.3231    0.0000 C   0  0  0  0  0  0  0  0  0  0  0  0
    1.1545   -5.9868    0.0000 C   0  0  0  0  0  0  0  0  0  0  0  0
    0.0000   -5.3231    0.0000 C   0  0  0  0  0  0  0  0  0  0  0  0
    0.0000   -3.9889    0.0000 C   0  0  0  0  0  0  0  0  0  0  0  0
    1.1545   -3.3252    0.0000 C   0  0  0  0  0  0  0  0  0  0  0  0
  1  2  1  0  0  0  0
  2  3  2  0  0  0  0
  2  7  1  0  0  0  0
  3  4  1  0  0  0  0
  4  5  2  0  0  0  0
  4  9  1  0  0  0  0
  5  6  1  0  0  0  0
  6  7  2  0  0  0  0
  6  8  1  0  0  0  0
  9 10  2  0  0  0  0
  9 14  1  0  0  0  0
 10 11  1  0  0  0  0
 11 12  2  0  0  0  0
 12 13  1  0  0  0  0
 13 14  2  0  0  0  0
M  END
> <ID>
139

> <Formula>
C9H9N5

> <FW>
187.2013

> <DSSTox_CID>
142

> <DSSTox_RID>
75395

> <DSSTox_GSID>
20142

> <DSSTox_FileID_Sort>
79

> <TS_ChemName>
6-Phenyl-1,3,5-triazine-2,4-diamine

> <TS_ChemName_Synonyms>
2,4-Diamino-6-phenyl-1,3,5-triazine (6-phenyl-1,3,5-triazine-2,4-diamine) (1,3,5-Triazine-2,4-diamine, 6-phenyl-) (Benzoguanamine)

> <TS_CASRN>
91-76-9

> <CASRN_ChemName_Relationship>
primary

> <TS_Description>
single chemical compound

> <ChemNote>


> <STRUCTURE_Shown>
tested chemical

> <STRUCTURE_Formula>
C9H9N5

> <STRUCTURE_MW>
187.2013

> <STRUCTURE_ChemType>
defined organic

> <STRUCTURE_DefinedOrganicForm>
parent

> <STRUCTURE_IUPAC>
6-phenyl-1,3,5-triazine-2,4-diamine

> <STRUCTURE_SMILES>
Nc1nc(nc(N)n1)c2ccccc2

> <STRUCTURE_SMILES_Desalt>
Nc1nc(nc(N)n1)c2ccccc2

> <Substance_modify_yyyymmdd>
20080429

$$$$
