91-79-2
ChemmineR-0915142007XD

 18 19  0  0  0  0  0  0  0  0  1 V2000
    0.0000   -3.5462    0.0000 S   0  0  0  0  0  0  0  0  0  0  0  0
    0.6684   -2.3903    0.0000 C   0  0  0  0  0  0  0  0  0  0  0  0
    1.9657   -2.6734    0.0000 C   0  0  0  0  0  0  0  0  0  0  0  0
    0.8885   -4.5369    0.0000 C   0  0  0  0  0  0  0  0  0  0  0  0
    2.1073   -3.9944    0.0000 C   0  0  0  0  0  0  0  0  0  0  0  0
    3.2553   -4.6549    0.0000 C   0  0  0  0  0  0  0  0  0  0  0  0
    4.4111   -3.9944    0.0000 N   0  0  0  0  0  0  0  0  0  0  0  0
    5.5591   -4.6549    0.0000 C   0  0  0  0  0  0  0  0  0  0  0  0
    6.7150   -3.9944    0.0000 N   0  0  0  0  0  0  0  0  0  0  0  0
    7.8630   -4.6549    0.0000 C   0  0  0  0  0  0  0  0  0  0  0  0
    7.8630   -5.9837    0.0000 C   0  0  0  0  0  0  0  0  0  0  0  0
    5.5591   -5.9837    0.0000 C   0  0  0  0  0  0  0  0  0  0  0  0
    6.7150   -6.6521    0.0000 C   0  0  0  0  0  0  0  0  0  0  0  0
    4.4111   -2.6655    0.0000 C   0  0  0  0  0  0  0  0  0  0  0  0
    3.2553   -1.9972    0.0000 C   0  0  0  0  0  0  0  0  0  0  0  0
    3.2553   -0.6684    0.0000 N   0  0  0  0  0  0  0  0  0  0  0  0
    2.1073    0.0000    0.0000 C   0  0  0  0  0  0  0  0  0  0  0  0
    4.4111    0.0000    0.0000 C   0  0  0  0  0  0  0  0  0  0  0  0
  1  2  1  0  0  0  0
  1  4  1  0  0  0  0
  2  3  2  0  0  0  0
  3  5  1  0  0  0  0
  4  5  2  0  0  0  0
  5  6  1  0  0  0  0
  6  7  1  0  0  0  0
  7  8  1  0  0  0  0
  7 14  1  0  0  0  0
  8  9  2  0  0  0  0
  8 12  1  0  0  0  0
  9 10  1  0  0  0  0
 10 11  2  0  0  0  0
 11 13  1  0  0  0  0
 12 13  2  0  0  0  0
 14 15  1  0  0  0  0
 15 16  1  0  0  0  0
 16 17  1  0  0  0  0
 16 18  1  0  0  0  0
M  END
> <ID>
1282

> <Formula>
C14H19N3S

> <FW>
261.3858

> <DSSTox_CID>
1335

> <DSSTox_RID>
97534

> <DSSTox_GSID>
21335

> <DSSTox_FileID_Sort>
8308

> <TS_ChemName>
Thenyldiamine

> <TS_ChemName_Synonyms>


> <TS_CASRN>
91-79-2

> <CASRN_ChemName_Relationship>
primary

> <TS_Description>
single chemical compound

> <ChemNote>


> <STRUCTURE_Shown>
tested chemical

> <STRUCTURE_Formula>
C14H19N3S

> <STRUCTURE_MW>
261.3858

> <STRUCTURE_ChemType>
defined organic

> <STRUCTURE_DefinedOrganicForm>
parent

> <STRUCTURE_IUPAC>
N,N-dimethyl-N'-(pyridin-2-yl)-N'-(thiophen-3-ylmethyl)ethane-1,2-diamine

> <STRUCTURE_SMILES>
CN(C)CCN(Cc1ccsc1)c2ccccn2

> <STRUCTURE_SMILES_Desalt>
CN(C)CCN(Cc1ccsc1)c2ccccn2

> <Substance_modify_yyyymmdd>
20080429

$$$$
