91-88-3
ChemmineR-0915142007XD

 13 13  0  0  0  0  0  0  0  0  1 V2000
    0.0000   -2.3080    0.0000 O   0  0  0  0  0  0  0  0  0  0  0  0
    0.6651   -3.4587    0.0000 C   0  0  0  0  0  0  0  0  0  0  0  0
    1.9954   -3.4587    0.0000 C   0  0  0  0  0  0  0  0  0  0  0  0
    2.6606   -2.3080    0.0000 N   0  0  0  0  0  0  0  0  0  0  0  0
    1.9954   -1.1573    0.0000 C   0  0  0  0  0  0  0  0  0  0  0  0
    0.6651   -1.1573    0.0000 C   0  0  0  0  0  0  0  0  0  0  0  0
    3.9909   -2.3080    0.0000 C   0  0  0  0  0  0  0  0  0  0  0  0
    4.6560   -1.1573    0.0000 C   0  0  0  0  0  0  0  0  0  0  0  0
    5.9863   -1.1573    0.0000 C   0  0  0  0  0  0  0  0  0  0  0  0
    6.6514    0.0000    0.0000 C   0  0  0  0  0  0  0  0  0  0  0  0
    6.6514   -2.3080    0.0000 C   0  0  0  0  0  0  0  0  0  0  0  0
    5.9863   -3.4587    0.0000 C   0  0  0  0  0  0  0  0  0  0  0  0
    4.6560   -3.4587    0.0000 C   0  0  0  0  0  0  0  0  0  0  0  0
  1  2  1  0  0  0  0
  2  3  1  0  0  0  0
  3  4  1  0  0  0  0
  4  5  1  0  0  0  0
  4  7  1  0  0  0  0
  5  6  1  0  0  0  0
  7  8  2  0  0  0  0
  7 13  1  0  0  0  0
  8  9  1  0  0  0  0
  9 10  1  0  0  0  0
  9 11  2  0  0  0  0
 11 12  1  0  0  0  0
 12 13  2  0  0  0  0
M  END
> <ID>
1699

> <Formula>
C11H17NO

> <FW>
179.2588

> <DSSTox_CID>
1801

> <DSSTox_RID>
76335

> <DSSTox_GSID>
21801

> <DSSTox_FileID_Sort>
1019

> <TS_ChemName>
2-(N-Ethyl-m-toluidino)ethanol

> <TS_ChemName_Synonyms>


> <TS_CASRN>
91-88-3

> <CASRN_ChemName_Relationship>
primary

> <TS_Description>
single chemical compound

> <ChemNote>


> <STRUCTURE_Shown>
tested chemical

> <STRUCTURE_Formula>
C11H17NO

> <STRUCTURE_MW>
179.2588

> <STRUCTURE_ChemType>
defined organic

> <STRUCTURE_DefinedOrganicForm>
parent

> <STRUCTURE_IUPAC>
2-[ethyl(3-methylphenyl)amino]ethanol

> <STRUCTURE_SMILES>
CCN(CCO)c1cc(C)ccc1

> <STRUCTURE_SMILES_Desalt>
CCN(CCO)c1cc(C)ccc1

> <Substance_modify_yyyymmdd>
20080429

$$$$
