91-95-2
ChemmineR-0915142007XD

 16 17  0  0  0  0  0  0  0  0  1 V2000
    7.9825   -4.6106    0.0000 N   0  0  0  0  0  0  0  0  0  0  0  0
    7.3211   -3.4557    0.0000 C   0  0  0  0  0  0  0  0  0  0  0  0
    5.9892   -3.4557    0.0000 C   0  0  0  0  0  0  0  0  0  0  0  0
    5.3185   -2.3100    0.0000 C   0  0  0  0  0  0  0  0  0  0  0  0
    3.9959   -2.3100    0.0000 C   0  0  0  0  0  0  0  0  0  0  0  0
    3.3253   -3.4557    0.0000 C   0  0  0  0  0  0  0  0  0  0  0  0
    1.9933   -3.4557    0.0000 C   0  0  0  0  0  0  0  0  0  0  0  0
    3.3253   -1.1550    0.0000 C   0  0  0  0  0  0  0  0  0  0  0  0
    1.9933   -1.1550    0.0000 C   0  0  0  0  0  0  0  0  0  0  0  0
    1.3320    0.0000    0.0000 N   0  0  0  0  0  0  0  0  0  0  0  0
    1.3320   -2.3100    0.0000 C   0  0  0  0  0  0  0  0  0  0  0  0
    0.0000   -2.3100    0.0000 N   0  0  0  0  0  0  0  0  0  0  0  0
    5.9892   -1.1550    0.0000 C   0  0  0  0  0  0  0  0  0  0  0  0
    7.3211   -1.1550    0.0000 C   0  0  0  0  0  0  0  0  0  0  0  0
    7.9825   -2.3100    0.0000 C   0  0  0  0  0  0  0  0  0  0  0  0
    9.3144   -2.3100    0.0000 N   0  0  0  0  0  0  0  0  0  0  0  0
  1  2  1  0  0  0  0
  2  3  2  0  0  0  0
  2 15  1  0  0  0  0
  3  4  1  0  0  0  0
  4  5  1  0  0  0  0
  4 13  2  0  0  0  0
  5  6  1  0  0  0  0
  5  8  2  0  0  0  0
  6  7  2  0  0  0  0
  7 11  1  0  0  0  0
  8  9  1  0  0  0  0
  9 10  1  0  0  0  0
  9 11  2  0  0  0  0
 11 12  1  0  0  0  0
 13 14  1  0  0  0  0
 14 15  2  0  0  0  0
 15 16  1  0  0  0  0
M  END
> <ID>
7189

> <Formula>
C12H14N4

> <FW>
214.2664

> <DSSTox_CID>
16827

> <DSSTox_RID>
79293

> <DSSTox_GSID>
36827

> <DSSTox_FileID_Sort>
3975

> <TS_ChemName>
3,3'-Diaminobenzidine

> <TS_ChemName_Synonyms>


> <TS_CASRN>
91-95-2

> <CASRN_ChemName_Relationship>
primary

> <TS_Description>
single chemical compound

> <ChemNote>


> <STRUCTURE_Shown>
tested chemical

> <STRUCTURE_Formula>
C12H14N4

> <STRUCTURE_MW>
214.2664

> <STRUCTURE_ChemType>
defined organic

> <STRUCTURE_DefinedOrganicForm>
parent

> <STRUCTURE_IUPAC>
biphenyl-3,3',4,4'-tetramine

> <STRUCTURE_SMILES>
Nc1ccc(cc1N)c2ccc(N)c(N)c2

> <STRUCTURE_SMILES_Desalt>
Nc1ccc(cc1N)c2ccc(N)c(N)c2

> <Substance_modify_yyyymmdd>
20080429

$$$$
