91-93-0
ChemmineR-0915142007XD

 22 23  0  0  0  0  0  0  0  0  1 V2000
   10.6341    0.0000    0.0000 C   0  0  0  0  0  0  0  0  0  0  0  0
    9.3064    0.0000    0.0000 O   0  0  0  0  0  0  0  0  0  0  0  0
    8.6365   -1.1483    0.0000 C   0  0  0  0  0  0  0  0  0  0  0  0
    9.3064   -2.3086    0.0000 C   0  0  0  0  0  0  0  0  0  0  0  0
    8.6365   -3.4570    0.0000 C   0  0  0  0  0  0  0  0  0  0  0  0
    7.3087   -3.4570    0.0000 C   0  0  0  0  0  0  0  0  0  0  0  0
    6.6508   -2.3086    0.0000 C   0  0  0  0  0  0  0  0  0  0  0  0
    7.3087   -1.1483    0.0000 C   0  0  0  0  0  0  0  0  0  0  0  0
    5.3111   -2.3086    0.0000 C   0  0  0  0  0  0  0  0  0  0  0  0
    4.6532   -3.4570    0.0000 C   0  0  0  0  0  0  0  0  0  0  0  0
    3.3254   -3.4570    0.0000 C   0  0  0  0  0  0  0  0  0  0  0  0
    2.6555   -2.3086    0.0000 C   0  0  0  0  0  0  0  0  0  0  0  0
    3.3254   -1.1483    0.0000 C   0  0  0  0  0  0  0  0  0  0  0  0
    4.6532   -1.1483    0.0000 C   0  0  0  0  0  0  0  0  0  0  0  0
    1.3278   -2.3086    0.0000 N   0  0  0  0  0  0  0  0  0  0  0  0
    0.6699   -1.1483    0.0000 C   0  0  0  0  0  0  0  0  0  0  0  0
    0.0000    0.0000    0.0000 O   0  0  0  0  0  0  0  0  0  0  0  0
    2.6555   -4.6053    0.0000 O   0  0  0  0  0  0  0  0  0  0  0  0
    1.3278   -4.6053    0.0000 C   0  0  0  0  0  0  0  0  0  0  0  0
   10.6341   -2.3086    0.0000 N   0  0  0  0  0  0  0  0  0  0  0  0
   11.2920   -3.4570    0.0000 C   0  0  0  0  0  0  0  0  0  0  0  0
   11.9619   -4.6053    0.0000 O   0  0  0  0  0  0  0  0  0  0  0  0
  1  2  1  0  0  0  0
  2  3  1  0  0  0  0
  3  4  2  0  0  0  0
  3  8  1  0  0  0  0
  4  5  1  0  0  0  0
  4 20  1  0  0  0  0
  5  6  2  0  0  0  0
  6  7  1  0  0  0  0
  7  8  2  0  0  0  0
  7  9  1  0  0  0  0
  9 10  2  0  0  0  0
  9 14  1  0  0  0  0
 10 11  1  0  0  0  0
 11 12  2  0  0  0  0
 11 18  1  0  0  0  0
 12 13  1  0  0  0  0
 12 15  1  0  0  0  0
 13 14  2  0  0  0  0
 15 16  2  0  0  0  0
 16 17  2  0  0  0  0
 18 19  1  0  0  0  0
 20 21  2  0  0  0  0
 21 22  2  0  0  0  0
M  END
> <ID>
467

> <Formula>
C16H12N2O4

> <FW>
296.2775

> <DSSTox_CID>
484

> <DSSTox_RID>
75618

> <DSSTox_GSID>
20484

> <DSSTox_FileID_Sort>
302

> <TS_ChemName>
3,3'-Dimethoxybenzidine-4,4'-diisocyanate

> <TS_ChemName_Synonyms>


> <TS_CASRN>
91-93-0

> <CASRN_ChemName_Relationship>
primary

> <TS_Description>
single chemical compound

> <ChemNote>


> <STRUCTURE_Shown>
tested chemical

> <STRUCTURE_Formula>
C16H12N2O4

> <STRUCTURE_MW>
296.2775

> <STRUCTURE_ChemType>
defined organic

> <STRUCTURE_DefinedOrganicForm>
parent

> <STRUCTURE_IUPAC>
4,4'-diisocyanato-3,3'-dimethoxybiphenyl

> <STRUCTURE_SMILES>
COc1cc(ccc1/N=C=O)c2ccc(\N=C=O)c(OC)c2

> <STRUCTURE_SMILES_Desalt>
COc1cc(ccc1/N=C=O)c2ccc(\N=C=O)c(OC)c2

> <Substance_modify_yyyymmdd>
20080429

$$$$
