91-94-1
ChemmineR-0915142007XD

 16 17  0  0  0  0  0  0  0  0  1 V2000
    7.9825    0.0000    0.0000 Cl   0  0  0  0  0  0  0  0  0  0  0  0
    7.3211   -1.1550    0.0000 C    0  0  0  0  0  0  0  0  0  0  0  0
    7.9825   -2.3100    0.0000 C    0  0  0  0  0  0  0  0  0  0  0  0
    7.3211   -3.4557    0.0000 C    0  0  0  0  0  0  0  0  0  0  0  0
    5.9892   -3.4557    0.0000 C    0  0  0  0  0  0  0  0  0  0  0  0
    5.3185   -2.3100    0.0000 C    0  0  0  0  0  0  0  0  0  0  0  0
    5.9892   -1.1550    0.0000 C    0  0  0  0  0  0  0  0  0  0  0  0
    3.9959   -2.3100    0.0000 C    0  0  0  0  0  0  0  0  0  0  0  0
    3.3253   -3.4557    0.0000 C    0  0  0  0  0  0  0  0  0  0  0  0
    1.9933   -3.4557    0.0000 C    0  0  0  0  0  0  0  0  0  0  0  0
    1.3320   -2.3100    0.0000 C    0  0  0  0  0  0  0  0  0  0  0  0
    1.9933   -1.1550    0.0000 C    0  0  0  0  0  0  0  0  0  0  0  0
    3.3253   -1.1550    0.0000 C    0  0  0  0  0  0  0  0  0  0  0  0
    0.0000   -2.3100    0.0000 N    0  0  0  0  0  0  0  0  0  0  0  0
    1.3320   -4.6106    0.0000 Cl   0  0  0  0  0  0  0  0  0  0  0  0
    9.3144   -2.3100    0.0000 N    0  0  0  0  0  0  0  0  0  0  0  0
  1  2  1  0  0  0  0
  2  3  2  0  0  0  0
  2  7  1  0  0  0  0
  3  4  1  0  0  0  0
  3 16  1  0  0  0  0
  4  5  2  0  0  0  0
  5  6  1  0  0  0  0
  6  7  2  0  0  0  0
  6  8  1  0  0  0  0
  8  9  2  0  0  0  0
  8 13  1  0  0  0  0
  9 10  1  0  0  0  0
 10 11  2  0  0  0  0
 10 15  1  0  0  0  0
 11 12  1  0  0  0  0
 11 14  1  0  0  0  0
 12 13  2  0  0  0  0
M  END
> <ID>
416

> <Formula>
C12H10Cl2N2

> <FW>
253.1272

> <DSSTox_CID>
432

> <DSSTox_RID>
75583

> <DSSTox_GSID>
20432

> <DSSTox_FileID_Sort>
267

> <TS_ChemName>
3,3'-Dichlorobenzidine

> <TS_ChemName_Synonyms>


> <TS_CASRN>
91-94-1

> <CASRN_ChemName_Relationship>
primary

> <TS_Description>
single chemical compound

> <ChemNote>


> <STRUCTURE_Shown>
tested chemical

> <STRUCTURE_Formula>
C12H10Cl2N2

> <STRUCTURE_MW>
253.1272

> <STRUCTURE_ChemType>
defined organic

> <STRUCTURE_DefinedOrganicForm>
parent

> <STRUCTURE_IUPAC>
3,3'-dichlorobiphenyl-4,4'-diamine

> <STRUCTURE_SMILES>
Nc1ccc(cc1Cl)c2ccc(N)c(Cl)c2

> <STRUCTURE_SMILES_Desalt>
Nc1ccc(cc1Cl)c2ccc(N)c(Cl)c2

> <Substance_modify_yyyymmdd>
20080429

$$$$
