91082-17-6
ChemmineR-0915142007XD

 25 25  0  0  0  0  0  0  0  0  1 V2000
    2.2992   -1.3357    0.0000 C   0  0  0  0  0  0  0  0  0  0  0  0
    2.2992   -2.6714    0.0000 C   0  0  0  0  0  0  0  0  0  0  0  0
    1.1605   -0.6569    0.0000 C   0  0  0  0  0  0  0  0  0  0  0  0
    1.1605   -3.3283    0.0000 C   0  0  0  0  0  0  0  0  0  0  0  0
    0.0000   -1.3357    0.0000 C   0  0  0  0  0  0  0  0  0  0  0  0
    0.0000   -2.6714    0.0000 C   0  0  0  0  0  0  0  0  0  0  0  0
    3.4597   -0.6569    0.0000 O   0  0  0  0  0  0  0  0  0  0  0  0
    4.6202   -1.3138    0.0000 S   0  0  0  0  0  0  0  0  0  0  0  0
    5.7807   -0.6569    0.0000 C   0  0  0  0  0  0  0  0  0  0  0  0
    6.9194   -1.3138    0.0000 C   0  0  0  0  0  0  0  0  0  0  0  0
    8.0580   -0.6569    0.0000 C   0  0  0  0  0  0  0  0  0  0  0  0
    9.2185   -1.3138    0.0000 C   0  0  0  0  0  0  0  0  0  0  0  0
   10.3790   -0.6569    0.0000 C   0  0  0  0  0  0  0  0  0  0  0  0
   11.5177   -1.3138    0.0000 C   0  0  0  0  0  0  0  0  0  0  0  0
   12.6782   -0.6569    0.0000 C   0  0  0  0  0  0  0  0  0  0  0  0
   13.8387   -1.3138    0.0000 C   0  0  0  0  0  0  0  0  0  0  0  0
   14.9774   -0.6569    0.0000 C   0  0  0  0  0  0  0  0  0  0  0  0
   16.1160   -1.3138    0.0000 C   0  0  0  0  0  0  0  0  0  0  0  0
    4.6202   -2.6495    0.0000 O   0  0  0  0  0  0  0  0  0  0  0  0
    4.6202    0.0000    0.0000 O   0  0  0  0  0  0  0  0  0  0  0  0
   17.2765   -0.6569    0.0000 C   0  0  0  0  0  0  0  0  0  0  0  0
   18.4370   -1.3357    0.0000 C   0  0  0  0  0  0  0  0  0  0  0  0
   19.5976   -0.6569    0.0000 C   0  0  0  0  0  0  0  0  0  0  0  0
   20.7362   -1.3357    0.0000 C   0  0  0  0  0  0  0  0  0  0  0  0
   21.8967   -0.6569    0.0000 C   0  0  0  0  0  0  0  0  0  0  0  0
  1  2  1  0  0  0  0
  1  3  2  0  0  0  0
  1  7  1  0  0  0  0
  2  4  2  0  0  0  0
  3  5  1  0  0  0  0
  4  6  1  0  0  0  0
  5  6  2  0  0  0  0
  7  8  1  0  0  0  0
  8  9  1  0  0  0  0
  8 19  2  0  0  0  0
  8 20  2  0  0  0  0
  9 10  1  0  0  0  0
 10 11  1  0  0  0  0
 11 12  1  0  0  0  0
 12 13  1  0  0  0  0
 13 14  1  0  0  0  0
 14 15  1  0  0  0  0
 15 16  1  0  0  0  0
 16 17  1  0  0  0  0
 17 18  1  0  0  0  0
 18 21  1  0  0  0  0
 21 22  1  0  0  0  0
 22 23  1  0  0  0  0
 23 24  1  0  0  0  0
 24 25  1  0  0  0  0
M  END
> <ID>
12651

> <Formula>
C21H36O3S

> <FW>
368.5737

> <DSSTox_CID>
27526

> <DSSTox_RID>
82396

> <DSSTox_GSID>
47526

> <DSSTox_FileID_Sort>
7077

> <TS_ChemName>
C10-21 sulfonic acids phenyl esters

> <TS_ChemName_Synonyms>


> <TS_CASRN>
91082-17-6

> <CASRN_ChemName_Relationship>
primary

> <TS_Description>
mixture or formulation

> <ChemNote>
complex mixture of mono-, di-, tri- linear alkyl esters; structure shown mono-C15

> <STRUCTURE_Shown>
representative component

> <STRUCTURE_Formula>
C21H36O3S

> <STRUCTURE_MW>
368.5737

> <STRUCTURE_ChemType>
defined organic

> <STRUCTURE_DefinedOrganicForm>
parent

> <STRUCTURE_IUPAC>
phenyl pentadecane-1-sulfonate

> <STRUCTURE_SMILES>
O=S(=O)(Oc1ccccc1)CCCCCCCCCCCCCCC

> <STRUCTURE_SMILES_Desalt>
O=S(=O)(Oc1ccccc1)CCCCCCCCCCCCCCC

> <Substance_modify_yyyymmdd>
20100831

$$$$
