911-45-5
ChemmineR-0915142007XD

 29 31  0  0  0  0  0  0  0  0  1 V2000
    3.4640   -3.9969    0.0000 C    0  0  0  0  0  0  0  0  0  0  0  0
    3.4640   -2.6519    0.0000 C    0  0  0  0  0  0  0  0  0  0  0  0
    4.6060   -1.9921    0.0000 Cl   0  0  0  0  0  0  0  0  0  0  0  0
    2.2967   -1.9921    0.0000 C    0  0  0  0  0  0  0  0  0  0  0  0
    1.1547   -2.6519    0.0000 C    0  0  0  0  0  0  0  0  0  0  0  0
    0.0000   -1.9921    0.0000 C    0  0  0  0  0  0  0  0  0  0  0  0
    0.0000   -0.6598    0.0000 C    0  0  0  0  0  0  0  0  0  0  0  0
    1.1547    0.0000    0.0000 C    0  0  0  0  0  0  0  0  0  0  0  0
    2.2967   -0.6598    0.0000 C    0  0  0  0  0  0  0  0  0  0  0  0
    4.6060   -4.6568    0.0000 C    0  0  0  0  0  0  0  0  0  0  0  0
    5.7607   -3.9969    0.0000 C    0  0  0  0  0  0  0  0  0  0  0  0
    6.9280   -4.6568    0.0000 C    0  0  0  0  0  0  0  0  0  0  0  0
    6.9280   -5.9891    0.0000 C    0  0  0  0  0  0  0  0  0  0  0  0
    5.7607   -6.6489    0.0000 C    0  0  0  0  0  0  0  0  0  0  0  0
    4.6060   -5.9891    0.0000 C    0  0  0  0  0  0  0  0  0  0  0  0
    8.0700   -6.6489    0.0000 O    0  0  0  0  0  0  0  0  0  0  0  0
    9.2247   -5.9891    0.0000 C    0  0  0  0  0  0  0  0  0  0  0  0
    9.2247   -4.6568    0.0000 C    0  0  0  0  0  0  0  0  0  0  0  0
   10.3667   -3.9969    0.0000 N    0  0  0  0  0  0  0  0  0  0  0  0
   10.3667   -2.6519    0.0000 C    0  0  0  0  0  0  0  0  0  0  0  0
    9.2247   -1.9921    0.0000 C    0  0  0  0  0  0  0  0  0  0  0  0
   11.5340   -4.6568    0.0000 C    0  0  0  0  0  0  0  0  0  0  0  0
   12.6887   -3.9969    0.0000 C    0  0  0  0  0  0  0  0  0  0  0  0
    2.2967   -4.6568    0.0000 C    0  0  0  0  0  0  0  0  0  0  0  0
    2.2967   -5.9891    0.0000 C    0  0  0  0  0  0  0  0  0  0  0  0
    1.1547   -6.6489    0.0000 C    0  0  0  0  0  0  0  0  0  0  0  0
    0.0000   -5.9891    0.0000 C    0  0  0  0  0  0  0  0  0  0  0  0
    0.0000   -4.6568    0.0000 C    0  0  0  0  0  0  0  0  0  0  0  0
    1.1547   -3.9969    0.0000 C    0  0  0  0  0  0  0  0  0  0  0  0
  1  2  2  3  0  0  0
  1 10  1  0  0  0  0
  1 24  1  0  0  0  0
  2  3  1  0  0  0  0
  2  4  1  0  0  0  0
  4  5  2  0  0  0  0
  4  9  1  0  0  0  0
  5  6  1  0  0  0  0
  6  7  2  0  0  0  0
  7  8  1  0  0  0  0
  8  9  2  0  0  0  0
 10 11  2  0  0  0  0
 10 15  1  0  0  0  0
 11 12  1  0  0  0  0
 12 13  2  0  0  0  0
 13 14  1  0  0  0  0
 13 16  1  0  0  0  0
 14 15  2  0  0  0  0
 16 17  1  0  0  0  0
 17 18  1  0  0  0  0
 18 19  1  0  0  0  0
 19 20  1  0  0  0  0
 19 22  1  0  0  0  0
 20 21  1  0  0  0  0
 22 23  1  0  0  0  0
 24 25  2  0  0  0  0
 24 29  1  0  0  0  0
 25 26  1  0  0  0  0
 26 27  2  0  0  0  0
 27 28  1  0  0  0  0
 28 29  2  0  0  0  0
M  END
> <ID>
2569

> <Formula>
C26H28ClNO

> <FW>
405.9596

> <DSSTox_CID>
2843

> <DSSTox_RID>
76754

> <DSSTox_GSID>
22843

> <DSSTox_FileID_Sort>
1438

> <TS_ChemName>
Clomiphene

> <TS_ChemName_Synonyms>


> <TS_CASRN>
911-45-5

> <CASRN_ChemName_Relationship>
primary

> <TS_Description>
mixture or formulation

> <ChemNote>
mixture of Z,E isomers; structure shown Z; stereochem

> <STRUCTURE_Shown>
representative isomer in mixture

> <STRUCTURE_Formula>
C26H28ClNO

> <STRUCTURE_MW>
405.9596

> <STRUCTURE_ChemType>
defined organic

> <STRUCTURE_DefinedOrganicForm>
parent

> <STRUCTURE_IUPAC>
2-[4-(2-chloro-1,2-diphenylethenyl)phenoxy]-N,N-diethylethanamine

> <STRUCTURE_SMILES>
CCN(CCOc1ccc(cc1)C(c2ccccc2)=C(Cl)c3ccccc3)CC

> <STRUCTURE_SMILES_Desalt>
CCN(CCOc1ccc(cc1)C(c2ccccc2)=C(Cl)c3ccccc3)CC

> <Substance_modify_yyyymmdd>
20080429

$$$$
