911-65-9
ChemmineR-0915142007XD

 29 31  0  0  0  0  0  0  0  0  2 V2000
    6.7941   -5.8256    0.0000 C   0  0  0  0  0  0  0  0  0  0  0  0
    5.6642   -5.1946    0.0000 N   0  0  0  0  0  0  0  0  0  0  0  0
    6.7941   -7.1463    0.0000 N   0  0  0  0  0  0  0  0  0  0  0  0
    4.5490   -7.1463    0.0000 C   0  0  0  0  0  0  0  0  0  0  0  0
    1.1739   -7.7773    0.0000 N   0  3  0  0  0  0  0  0  0  0  0  0
    4.5490   -5.8256    0.0000 C   0  0  0  0  0  0  0  0  0  0  0  0
    3.4337   -7.7773    0.0000 C   0  0  0  0  0  0  0  0  0  0  0  0
    2.2892   -7.1463    0.0000 C   0  0  0  0  0  0  0  0  0  0  0  0
    5.6642   -3.8593    0.0000 C   0  0  0  0  0  0  0  0  0  0  0  0
    3.4337   -5.1946    0.0000 C   0  0  0  0  0  0  0  0  0  0  0  0
    7.9240   -5.1946    0.0000 C   0  0  0  0  0  0  0  0  0  0  0  0
    1.1739   -9.0980    0.0000 O   0  5  0  0  0  0  0  0  0  0  0  0
    0.0000   -7.1903    0.0000 O   0  0  0  0  0  0  0  0  0  0  0  0
    2.2892   -5.8256    0.0000 C   0  0  0  0  0  0  0  0  0  0  0  0
    6.7941   -3.2283    0.0000 C   0  0  0  0  0  0  0  0  0  0  0  0
    9.0539   -5.8256    0.0000 C   0  0  0  0  0  0  0  0  0  0  0  0
    6.7941   -1.9076    0.0000 N   0  0  0  0  0  0  0  0  0  0  0  0
   11.2404   -7.1463    0.0000 C   0  0  0  0  0  0  0  0  0  0  0  0
   10.1692   -5.1946    0.0000 C   0  0  0  0  0  0  0  0  0  0  0  0
    9.0539   -7.1463    0.0000 C   0  0  0  0  0  0  0  0  0  0  0  0
   11.2404   -5.8256    0.0000 C   0  0  0  0  0  0  0  0  0  0  0  0
   10.1692   -7.7773    0.0000 C   0  0  0  0  0  0  0  0  0  0  0  0
   12.4290   -7.7773    0.0000 O   0  0  0  0  0  0  0  0  0  0  0  0
    5.6642   -1.2766    0.0000 C   0  0  0  0  0  0  0  0  0  0  0  0
    7.9240   -1.2766    0.0000 C   0  0  0  0  0  0  0  0  0  0  0  0
   13.5589   -7.0876    0.0000 C   0  0  0  0  0  0  0  0  0  0  0  0
    7.9240    0.0000    0.0000 C   0  0  0  0  0  0  0  0  0  0  0  0
    4.5490   -1.9076    0.0000 C   0  0  0  0  0  0  0  0  0  0  0  0
   14.6741   -7.7773    0.0000 C   0  0  0  0  0  0  0  0  0  0  0  0
  1  2  1  0  0  0  0
  1  3  2  0  0  0  0
  1 11  1  0  0  0  0
  2  6  1  0  0  0  0
  2  9  1  0  0  0  0
  3  4  1  0  0  0  0
  4  7  1  0  0  0  0
  4  6  2  0  0  0  0
  5  8  1  0  0  0  0
  5 12  1  0  0  0  0
  5 13  2  0  0  0  0
  6 10  1  0  0  0  0
  7  8  2  0  0  0  0
  8 14  1  0  0  0  0
  9 15  1  0  0  0  0
 10 14  2  0  0  0  0
 11 16  1  0  0  0  0
 15 17  1  0  0  0  0
 16 19  1  0  0  0  0
 16 20  2  0  0  0  0
 17 24  1  0  0  0  0
 17 25  1  0  0  0  0
 18 22  2  0  0  0  0
 18 23  1  0  0  0  0
 18 21  1  0  0  0  0
 19 21  2  0  0  0  0
 20 22  1  0  0  0  0
 23 26  1  0  0  0  0
 24 28  1  0  0  0  0
 25 27  1  0  0  0  0
 26 29  1  0  0  0  0
M  END
> <ID>
13908

> <Formula>
C22H28N4O3

> <FW>
396.4827

> <DSSTox_CID>
28845

> <DSSTox_RID>
83114

> <DSSTox_GSID>
48919

> <DSSTox_FileID_Sort>
7791

> <TS_ChemName>
Etonitazene

> <TS_ChemName_Synonyms>


> <TS_CASRN>
911-65-9

> <CASRN_ChemName_Relationship>
primary

> <TS_Description>
single chemical compound

> <ChemNote>


> <STRUCTURE_Shown>
tested chemical

> <STRUCTURE_Formula>
C22H28N4O3

> <STRUCTURE_MW>
396.4827

> <STRUCTURE_ChemType>
defined organic

> <STRUCTURE_DefinedOrganicForm>
parent

> <STRUCTURE_IUPAC>
2-[2-(4-ethoxybenzyl)-5-nitro-1H-benzimidazol-1-yl]-N,N-diethylethanamine

> <STRUCTURE_SMILES>
[O-][N+](=O)c2cc3nc(Cc1ccc(OCC)cc1)n(CCN(CC)CC)c3cc2

> <STRUCTURE_SMILES_Desalt>
[O-][N+](=O)c2cc3nc(Cc1ccc(OCC)cc1)n(CCN(CC)CC)c3cc2

> <Substance_modify_yyyymmdd>
20111204

$$$$
