911217-00-0
ChemmineR-0915142007XD

 65 67  0  0  1  0  0  0  0  0  2 V2000
   12.6071   -4.7995    0.0000 C   0  0  0  0  0  0  0  0  0  0  0  0
   11.4918   -6.7937    0.0000 C   0  0  0  0  0  0  0  0  0  0  0  0
   12.6071   -6.1515    0.0000 C   0  0  0  0  0  0  0  0  0  0  0  0
    9.2103   -6.7937    0.0000 C   0  0  0  0  0  0  0  0  0  0  0  0
   10.3764   -6.1515    0.0000 C   0  0  0  0  0  0  0  0  0  0  0  0
   11.4918   -4.1742    0.0000 C   0  0  0  0  0  0  0  0  0  0  0  0
   10.3764   -4.7995    0.0000 C   0  0  0  0  0  0  0  0  0  0  0  0
    9.2103   -8.0949    0.0000 C   0  0  0  0  0  0  0  0  0  0  0  0
   13.7732   -4.1742    0.0000 C   0  0  0  0  0  0  0  0  0  0  0  0
    8.0780   -8.7878    0.0000 C   0  0  0  0  0  0  0  0  0  0  0  0
   14.8886   -2.1970    0.0000 C   0  0  0  0  0  0  0  0  0  0  0  0
   13.7732   -2.8898    0.0000 C   0  0  0  0  0  0  0  0  0  0  0  0
   14.8886   -4.7995    0.0000 C   0  0  0  0  0  0  0  0  0  0  0  0
    4.6136   -9.5145    0.0000 O   0  0  0  0  0  0  0  0  0  0  0  0
    6.9627   -8.0949    0.0000 C   0  0  0  0  0  0  0  0  0  0  0  0
   11.4918   -8.0949    0.0000 C   0  0  0  0  0  0  0  0  0  0  0  0
   15.6491   -1.0647    0.0000 C   0  0  0  0  0  0  0  0  0  0  0  0
    8.0780   -6.1515    0.0000 C   0  0  0  0  0  0  0  0  0  0  0  0
   13.7732   -6.7937    0.0000 C   0  0  0  0  0  0  0  0  0  0  0  0
   10.3764   -8.7878    0.0000 C   0  0  0  0  0  0  0  0  0  0  0  0
    9.2103   -4.2249    0.0000 O   0  0  0  0  0  0  0  0  0  0  0  0
   14.8886   -6.1515    0.0000 C   0  0  0  0  0  0  0  0  0  0  0  0
    6.9627   -6.7937    0.0000 C   0  0  0  0  0  0  0  0  0  0  0  0
   16.0040   -2.8898    0.0000 C   0  0  0  0  0  0  0  0  0  0  0  0
   16.0040   -4.1742    0.0000 C   0  0  0  0  0  0  0  0  0  0  0  0
   15.0069    0.0000    0.0000 O   0  0  0  0  0  0  0  0  0  0  0  0
   11.5087   -5.6276    0.0000 C   0  0  0  0  0  0  0  0  0  0  0  0
    9.2103   -5.4586    0.0000 C   0  0  0  0  0  0  0  0  0  0  0  0
   12.6747   -7.3682    0.0000 C   0  0  0  0  0  0  0  0  0  0  0  0
   16.8997   -1.0647    0.0000 O   0  0  0  0  0  0  0  0  0  0  0  0
    7.5710   -9.9201    0.0000 C   0  0  0  0  0  0  0  0  0  0  0  0
    8.5512   -9.8694    0.0000 C   0  0  0  0  0  0  0  0  0  0  0  0
   14.1112   -1.0647    0.0000 C   0  0  0  0  0  0  0  0  0  0  0  0
   14.8886   -3.4475    0.0000 C   0  0  0  0  0  0  0  0  0  0  0  0
   10.3088   -7.2838    0.0000 H   0  0  0  0  0  0  0  0  0  0  0  0
    9.1596   -9.3793    0.0000 H   0  0  0  0  0  0  0  0  0  0  0  0
   13.7225   -5.4586    0.0000 H   0  0  0  0  0  0  0  0  0  0  0  0
    4.6136  -10.8327    0.0000 C   0  0  0  0  0  0  0  0  0  0  0  0
    3.4644  -11.4749    0.0000 C   0  0  0  0  0  0  0  0  0  0  0  0
    5.7628  -11.4749    0.0000 O   0  0  0  0  0  0  0  0  0  0  0  0
    3.4644  -12.8268    0.0000 C   0  0  0  0  0  0  0  0  0  0  0  0
    5.7628  -12.8268    0.0000 C   0  0  0  0  0  0  0  0  0  0  0  0
    4.6136  -13.4690    0.0000 C   0  0  0  0  0  0  0  0  0  0  0  0
    2.3322  -13.4690    0.0000 O   0  0  0  0  0  0  0  0  0  0  0  0
    4.6136  -14.8041    0.0000 O   0  0  0  0  0  0  0  0  0  0  0  0
    6.9120  -13.4690    0.0000 C   0  0  0  0  0  0  0  0  0  0  0  0
    6.9120  -14.8041    0.0000 O   0  0  0  0  0  0  0  0  0  0  0  0
    8.0780  -12.8268    0.0000 O   0  0  0  0  0  0  0  0  0  0  0  0
    2.2984  -10.8327    0.0000 O   0  0  0  0  0  0  0  0  0  0  0  0
    2.2984   -9.4638    0.0000 C   0  0  0  0  0  0  0  0  0  0  0  0
    1.1492   -8.8216    0.0000 C   0  0  0  0  0  0  0  0  0  0  0  0
    3.4475   -8.8216    0.0000 O   0  0  0  0  0  0  0  0  0  0  0  0
    1.1492   -7.4865    0.0000 C   0  0  0  0  0  0  0  0  0  0  0  0
    3.4475   -7.4865    0.0000 C   0  0  0  0  0  0  0  0  0  0  0  0
    2.2984   -6.7937    0.0000 C   0  0  0  0  0  0  0  0  0  0  0  0
    0.0000   -9.4638    0.0000 O   0  0  0  0  0  0  0  0  0  0  0  0
    0.0000   -6.7937    0.0000 O   0  0  0  0  0  0  0  0  0  0  0  0
    2.2984   -5.4586    0.0000 O   0  0  0  0  0  0  0  0  0  0  0  0
    4.6136   -6.7937    0.0000 C   0  0  0  0  0  0  0  0  0  0  0  0
    4.6136   -5.4586    0.0000 O   0  5  0  0  0  0  0  0  0  0  0  0
    5.7628   -7.4865    0.0000 O   0  0  0  0  0  0  0  0  0  0  0  0
    6.4726   -1.4703    0.0000 N   0  3  0  0  0  0  0  0  0  0  0  0
   11.7115  -11.9650    0.0000 O   0  0  0  0  0  0  0  0  0  0  0  0
   13.7901  -11.9143    0.0000 O   0  0  0  0  0  0  0  0  0  0  0  0
   15.4294  -11.9143    0.0000 O   0  0  0  0  0  0  0  0  0  0  0  0
  1  3  1  0  0  0  0
  1  6  2  0  0  0  0
  1  9  1  0  0  0  0
  2  3  1  0  0  0  0
  2 16  1  0  0  0  0
  2 27  1  1  0  0  0
  2  5  1  0  0  0  0
  3 19  1  0  0  0  0
  3 29  1  6  0  0  0
  4  5  1  0  0  0  0
  4  8  1  0  0  0  0
  4 18  1  0  0  0  0
  4 28  1  1  0  0  0
  5  7  1  0  0  0  0
  5 35  1  6  0  0  0
  6  7  1  0  0  0  0
  7 21  2  0  0  0  0
  8 10  1  0  0  0  0
  8 36  1  6  0  0  0
  8 20  1  0  0  0  0
  9 12  1  0  0  0  0
  9 13  1  0  0  0  0
  9 37  1  1  0  0  0
 10 31  1  6  0  0  0
 10 32  1  1  0  0  0
 10 15  1  0  0  0  0
 11 12  1  0  0  0  0
 11 17  1  1  0  0  0
 11 33  1  6  0  0  0
 11 24  1  0  0  0  0
 13 22  1  0  0  0  0
 13 25  1  0  0  0  0
 13 34  1  1  0  0  0
 15 14  1  1  0  0  0
 38 14  1  1  0  0  0
 15 23  1  0  0  0  0
 16 20  1  0  0  0  0
 17 26  2  0  0  0  0
 17 30  1  0  0  0  0
 18 23  1  0  0  0  0
 19 22  1  0  0  0  0
 24 25  1  0  0  0  0
 38 39  1  0  0  0  0
 38 40  1  0  0  0  0
 39 41  1  0  0  0  0
 39 49  1  1  0  0  0
 40 42  1  0  0  0  0
 41 43  1  0  0  0  0
 41 44  1  6  0  0  0
 42 43  1  0  0  0  0
 42 46  1  6  0  0  0
 43 45  1  1  0  0  0
 46 47  1  0  0  0  0
 46 48  2  0  0  0  0
 50 49  1  1  0  0  0
 50 51  1  0  0  0  0
 50 52  1  0  0  0  0
 51 53  1  0  0  0  0
 51 56  1  6  0  0  0
 52 54  1  0  0  0  0
 53 55  1  0  0  0  0
 53 57  1  1  0  0  0
 54 55  1  0  0  0  0
 54 59  1  1  0  0  0
 55 58  1  6  0  0  0
 59 60  1  0  0  0  0
 59 61  2  0  0  0  0
M  END
> <ID>
12386

> <Formula>
C42H71NO19

> <FW>
894.0084 (821.9247+18.0379+18.0153+18.0153+18.0153)

> <DSSTox_CID>
27243

> <DSSTox_RID>
82205

> <DSSTox_GSID>
47243

> <DSSTox_FileID_Sort>
6886

> <TS_ChemName>
Ammonium glycyrrhizinate trihydrate

> <TS_ChemName_Synonyms>
Glycyrrhizic acid monoammonium salt trihydrate

> <TS_CASRN>
911217-00-0

> <CASRN_ChemName_Relationship>
primary

> <TS_Description>
single chemical compound

> <ChemNote>
parent [1405-86-3]

> <STRUCTURE_Shown>
tested chemical

> <STRUCTURE_Formula>
C42H71NO19

> <STRUCTURE_MW>
894.0084

> <STRUCTURE_ChemType>
defined organic

> <STRUCTURE_DefinedOrganicForm>
salt

> <STRUCTURE_IUPAC>
ammonium (3beta)-30-hydroxy-11,30-dioxoolean-12-en-3-yl 2-O-beta-D-glucopyranuronosyl-alpha-D-glucopyranosiduronic acid hydrate (1:1:3)

> <STRUCTURE_SMILES>
[NH4+].O.O.O.O=C(O)[C@@]6(C)CC[C@]7(C)CC[C@]5(C)C(=CC(=O)[C@H]4[C@@]5(C)CC[C@@H]3[C@]4(C)CC[C@H](O[C@H]2O[C@H](C(=O)O)[C@@H](O)[C@H](O)[C@H]2O[C@@H]1O[C@@H]([C@@H](O)[C@H](O)[C@H]1O)C([O-])=O)[C@@]3(C)C)[C@@H]7C6

> <STRUCTURE_SMILES_Desalt>
O=C(O)[C@H]7O[C@@H](O[C@@H]6[C@@H](O)[C@H](O)[C@H](O[C@@H]6O[C@H]2CC[C@]3(C)[C@H]4C(=O)C=C1[C@@H]5C[C@](C)(CC[C@]5(C)CC[C@@]1(C)[C@]4(C)CC[C@H]3[C@]2(C)C)C(=O)O)C(=O)O)[C@H](O)[C@@H](O)[C@@H]7O

> <Substance_modify_yyyymmdd>
20100507

$$$$
