91161-71-6
ChemmineR-0915142007XD

 22 23  0  0  0  0  0  0  0  0  1 V2000
    1.1460    0.0000    0.0000 C   0  0  0  0  0  0  0  0  0  0  0  0
    0.0000   -0.6628    0.0000 C   0  0  0  0  0  0  0  0  0  0  0  0
    0.0000   -1.9883    0.0000 C   0  0  0  0  0  0  0  0  0  0  0  0
    1.1460   -2.6511    0.0000 C   0  0  0  0  0  0  0  0  0  0  0  0
    2.3059   -1.9883    0.0000 C   0  0  0  0  0  0  0  0  0  0  0  0
    2.3059   -0.6628    0.0000 C   0  0  0  0  0  0  0  0  0  0  0  0
    3.4519   -2.6511    0.0000 C   0  0  0  0  0  0  0  0  0  0  0  0
    4.5841   -1.9883    0.0000 C   0  0  0  0  0  0  0  0  0  0  0  0
    5.7578   -2.6511    0.0000 N   0  0  0  0  0  0  0  0  0  0  0  0
    5.7578   -3.9904    0.0000 C   0  0  0  0  0  0  0  0  0  0  0  0
    6.9038   -1.9883    0.0000 C   0  0  0  0  0  0  0  0  0  0  0  0
    8.0499   -2.6511    0.0000 C   0  0  0  0  0  0  0  0  0  0  0  0
    9.2097   -1.9883    0.0000 C   0  0  0  0  0  0  0  0  0  0  0  0
   10.3557   -2.6511    0.0000 C   0  0  0  0  0  0  0  0  0  0  0  0
   11.5018   -3.3414    0.0000 C   0  0  0  0  0  0  0  0  0  0  0  0
   12.6616   -3.9904    0.0000 C   0  0  0  0  0  0  0  0  0  0  0  0
   13.3244   -2.8306    0.0000 C   0  0  0  0  0  0  0  0  0  0  0  0
   13.8076   -4.6532    0.0000 C   0  0  0  0  0  0  0  0  0  0  0  0
   11.9988   -5.1364    0.0000 C   0  0  0  0  0  0  0  0  0  0  0  0
    3.4519   -3.9904    0.0000 C   0  0  0  0  0  0  0  0  0  0  0  0
    2.3059   -4.6532    0.0000 C   0  0  0  0  0  0  0  0  0  0  0  0
    1.1460   -3.9904    0.0000 C   0  0  0  0  0  0  0  0  0  0  0  0
  1  2  2  0  0  0  0
  1  6  1  0  0  0  0
  2  3  1  0  0  0  0
  3  4  2  0  0  0  0
  4  5  1  0  0  0  0
  4 22  1  0  0  0  0
  5  6  2  0  0  0  0
  5  7  1  0  0  0  0
  7  8  1  0  0  0  0
  7 20  2  0  0  0  0
  8  9  1  0  0  0  0
  9 10  1  0  0  0  0
  9 11  1  0  0  0  0
 11 12  1  0  0  0  0
 12 13  2  0  0  0  0
 13 14  1  0  0  0  0
 14 15  3  0  0  0  0
 15 16  1  0  0  0  0
 16 17  1  0  0  0  0
 16 18  1  0  0  0  0
 16 19  1  0  0  0  0
 20 21  1  0  0  0  0
 21 22  2  0  0  0  0
M  END
> <ID>
3254

> <Formula>
C21H25N

> <FW>
291.4299

> <DSSTox_CID>
3640

> <DSSTox_RID>
77123

> <DSSTox_GSID>
23640

> <DSSTox_FileID_Sort>
1806

> <TS_ChemName>
Terbinafine

> <TS_ChemName_Synonyms>


> <TS_CASRN>
91161-71-6

> <CASRN_ChemName_Relationship>
primary

> <TS_Description>
single chemical compound

> <ChemNote>
stereochem

> <STRUCTURE_Shown>
tested chemical

> <STRUCTURE_Formula>
C21H25N

> <STRUCTURE_MW>
291.4299

> <STRUCTURE_ChemType>
defined organic

> <STRUCTURE_DefinedOrganicForm>
parent

> <STRUCTURE_IUPAC>
(2E)-N,6,6-trimethyl-N-(naphthalen-1-ylmethyl)hept-2-en-4-yn-1-amine

> <STRUCTURE_SMILES>
CC(C)(C)C#C\C=C\CN(C)Cc2cccc1ccccc12

> <STRUCTURE_SMILES_Desalt>
CC(C)(C)C#C\C=C\CN(C)Cc2cccc1ccccc12

> <Substance_modify_yyyymmdd>
20080429

$$$$
