912-57-2
ChemmineR-0915142007XD

 35 39  0  0  1  0  0  0  0  0  1 V2000
    8.0698   -7.6849    0.0000 C   0  0  0  0  0  0  0  0  0  0  0  0
    6.9149   -7.0147    0.0000 C   0  0  0  0  0  0  0  0  0  0  0  0
    6.9149   -8.3407    0.0000 C   0  0  0  0  0  0  0  0  0  0  0  0
    5.7601   -9.0108    0.0000 C   0  0  0  0  0  0  0  0  0  0  0  0
    4.6195   -8.3550    0.0000 C   0  0  0  0  0  0  0  0  0  0  0  0
    5.0615   -9.6096    0.0000 H   0  0  0  0  0  0  0  0  0  0  0  0
    4.6195   -7.0290    0.0000 C   0  0  0  0  0  0  0  0  0  0  0  0
    4.3913   -5.7173    0.0000 H   0  0  0  0  0  0  0  0  0  0  0  0
    3.4646   -6.3589    0.0000 C   0  0  0  0  0  0  0  0  0  0  0  0
    2.3097   -7.0290    0.0000 C   0  0  0  0  0  0  0  0  0  0  0  0
    2.3097   -8.3550    0.0000 C   0  0  0  0  0  0  0  0  0  0  0  0
    1.1549   -9.0108    0.0000 C   0  0  0  0  0  0  0  0  0  0  0  0
    1.1549  -10.3510    0.0000 C   0  0  0  0  0  0  0  0  0  0  0  0
    0.0000  -11.0211    0.0000 O   0  0  0  0  0  0  0  0  0  0  0  0
    2.3097  -11.0211    0.0000 C   0  0  0  0  0  0  0  0  0  0  0  0
    3.4646  -10.3510    0.0000 C   0  0  0  0  0  0  0  0  0  0  0  0
    3.4646   -9.0108    0.0000 C   0  0  0  0  0  0  0  0  0  0  0  0
    4.3343  -10.0374    0.0000 H   0  0  0  0  0  0  0  0  0  0  0  0
    5.7743   -6.3589    0.0000 C   0  0  0  0  0  0  0  0  0  0  0  0
    5.1042   -5.2183    0.0000 H   0  0  0  0  0  0  0  0  0  0  0  0
    6.0452   -5.0757    0.0000 C   0  0  0  0  0  0  0  0  0  0  0  0
    7.3569   -4.9331    0.0000 C   0  0  0  0  0  0  0  0  0  0  0  0
    7.9130   -6.1450    0.0000 C   0  0  0  0  0  0  0  0  0  0  0  0
    8.7827   -7.1288    0.0000 H   0  0  0  0  0  0  0  0  0  0  0  0
    9.1106   -5.6032    0.0000 O   0  0  0  0  0  0  0  0  0  0  0  0
    9.2532   -4.2630    0.0000 C   0  0  0  0  0  0  0  0  0  0  0  0
    8.1839   -3.4931    0.0000 O   0  0  0  0  0  0  0  0  0  0  0  0
   10.4794   -3.7355    0.0000 C   0  0  0  0  0  0  0  0  0  0  0  0
   10.6077   -2.4095    0.0000 C   0  0  0  0  0  0  0  0  0  0  0  0
   11.8196   -1.8677    0.0000 C   0  0  0  0  0  0  0  0  0  0  0  0
   12.8889   -2.6519    0.0000 C   0  0  0  0  0  0  0  0  0  0  0  0
   14.1150   -2.1244    0.0000 C   0  0  0  0  0  0  0  0  0  0  0  0
   14.2576   -0.7842    0.0000 C   0  0  0  0  0  0  0  0  0  0  0  0
   13.1883    0.0000    0.0000 C   0  0  0  0  0  0  0  0  0  0  0  0
   11.9621   -0.5418    0.0000 C   0  0  0  0  0  0  0  0  0  0  0  0
  2  1  1  6  0  0  0
  2  3  1  0  0  0  0
  2 19  1  0  0  0  0
  2 23  1  0  0  0  0
  3  4  1  0  0  0  0
  4  5  1  0  0  0  0
  5  6  1  1  0  0  0
  5  7  1  0  0  0  0
  5 17  1  0  0  0  0
  7  8  1  6  0  0  0
  7  9  1  0  0  0  0
  7 19  1  0  0  0  0
  9 10  1  0  0  0  0
 10 11  1  0  0  0  0
 11 12  2  0  0  0  0
 11 17  1  0  0  0  0
 12 13  1  0  0  0  0
 13 14  2  0  0  0  0
 13 15  1  0  0  0  0
 15 16  1  0  0  0  0
 16 17  1  0  0  0  0
 17 18  1  6  0  0  0
 19 20  1  1  0  0  0
 19 21  1  0  0  0  0
 21 22  1  0  0  0  0
 22 23  1  0  0  0  0
 23 24  1  0  0  0  0
 23 25  1  6  0  0  0
 25 26  1  0  0  0  0
 26 27  2  0  0  0  0
 26 28  1  0  0  0  0
 28 29  1  0  0  0  0
 29 30  1  0  0  0  0
 30 31  1  0  0  0  0
 30 35  1  0  0  0  0
 31 32  1  0  0  0  0
 32 33  1  0  0  0  0
 33 34  1  0  0  0  0
 34 35  1  0  0  0  0
M  END
> <ID>
16250

> <Formula>
C27H40O3

> <FW>
412.6047

> <DSSTox_CID>
31641

> <DSSTox_RID>
97525

> <DSSTox_GSID>
57852

> <DSSTox_FileID_Sort>
8592

> <TS_ChemName>
Nandrolone cyclohexylpropionate

> <TS_ChemName_Synonyms>


> <TS_CASRN>
912-57-2

> <CASRN_ChemName_Relationship>
primary

> <TS_Description>
single chemical compound

> <ChemNote>


> <STRUCTURE_Shown>
tested chemical

> <STRUCTURE_Formula>
C27H40O3

> <STRUCTURE_MW>
412.6047

> <STRUCTURE_ChemType>
defined organic

> <STRUCTURE_DefinedOrganicForm>
parent

> <STRUCTURE_IUPAC>
(17beta)-3-oxoestr-4-en-17-yl 3-cyclohexylpropanoate

> <STRUCTURE_SMILES>
O=C5CC[C@H]4C(CC[C@@H]3[C@@H]4CC[C@@]2(C)[C@H]3CC[C@@H]2OC(=O)CCC1CCCCC1)=C5

> <STRUCTURE_SMILES_Desalt>
O=C5CC[C@H]4C(CC[C@@H]3[C@@H]4CC[C@@]2(C)[C@H]3CC[C@@H]2OC(=O)CCC1CCCCC1)=C5

> <Substance_modify_yyyymmdd>
20131018

$$$$
