91296-87-6
ChemmineR-0915142007XD

 29 31  0  0  0  0  0  0  0  0  1 V2000
   11.6991   -2.6674    0.0000 Cl   0  0  0  0  0  0  0  0  0  0  0  0
    1.1465    0.0000    0.0000 O    0  0  0  0  0  0  0  0  0  0  0  0
    1.1465   -1.3337    0.0000 C    0  0  0  0  0  0  0  0  0  0  0  0
    0.0000   -2.0005    0.0000 O    0  0  0  0  0  0  0  0  0  0  0  0
    2.3047   -2.0005    0.0000 C    0  0  0  0  0  0  0  0  0  0  0  0
    2.3047   -3.3225    0.0000 C    0  0  0  0  0  0  0  0  0  0  0  0
    3.4512   -3.9894    0.0000 N    0  0  0  0  0  0  0  0  0  0  0  0
    3.4512   -5.3231    0.0000 C    0  0  0  0  0  0  0  0  0  0  0  0
    2.3047   -5.9899    0.0000 C    0  0  0  0  0  0  0  0  0  0  0  0
    2.3047   -7.3119    0.0000 C    0  0  0  0  0  0  0  0  0  0  0  0
    3.4512   -7.9788    0.0000 C    0  0  0  0  0  0  0  0  0  0  0  0
    3.4512   -9.3125    0.0000 F    0  0  0  0  0  0  0  0  0  0  0  0
    4.6094   -7.3119    0.0000 C    0  0  0  0  0  0  0  0  0  0  0  0
    4.6094   -5.9899    0.0000 C    0  0  0  0  0  0  0  0  0  0  0  0
    4.6094   -3.3225    0.0000 C    0  0  0  0  0  0  0  0  0  0  0  0
    4.6094   -2.0005    0.0000 C    0  0  0  0  0  0  0  0  0  0  0  0
    5.7559   -1.3337    0.0000 C    0  0  0  0  0  0  0  0  0  0  0  0
    6.9142   -2.0005    0.0000 C    0  0  0  0  0  0  0  0  0  0  0  0
    8.0607   -1.3337    0.0000 F    0  0  0  0  0  0  0  0  0  0  0  0
    6.9142   -3.3225    0.0000 C    0  0  0  0  0  0  0  0  0  0  0  0
    5.7559   -3.9894    0.0000 C    0  0  0  0  0  0  0  0  0  0  0  0
    8.0607   -3.9894    0.0000 N    0  0  0  0  0  0  0  0  0  0  0  0
    8.0607   -5.3231    0.0000 C    0  0  0  0  0  0  0  0  0  0  0  0
    9.2189   -5.9899    0.0000 C    0  0  0  0  0  0  0  0  0  0  0  0
   10.3654   -5.3231    0.0000 N    0  0  0  0  0  0  0  0  0  0  0  0
   10.3654   -3.9894    0.0000 C    0  0  0  0  0  0  0  0  0  0  0  0
    9.2189   -3.3225    0.0000 C    0  0  0  0  0  0  0  0  0  0  0  0
    3.4512   -1.3337    0.0000 C    0  0  0  0  0  0  0  0  0  0  0  0
    3.4512    0.0000    0.0000 O    0  0  0  0  0  0  0  0  0  0  0  0
  2  3  1  0  0  0  0
  3  4  2  0  0  0  0
  3  5  1  0  0  0  0
  5  6  2  0  0  0  0
  5 28  1  0  0  0  0
  6  7  1  0  0  0  0
  7  8  1  0  0  0  0
  7 15  1  0  0  0  0
  8  9  2  0  0  0  0
  8 14  1  0  0  0  0
  9 10  1  0  0  0  0
 10 11  2  0  0  0  0
 11 12  1  0  0  0  0
 11 13  1  0  0  0  0
 13 14  2  0  0  0  0
 15 16  2  0  0  0  0
 15 21  1  0  0  0  0
 16 17  1  0  0  0  0
 16 28  1  0  0  0  0
 17 18  2  0  0  0  0
 18 19  1  0  0  0  0
 18 20  1  0  0  0  0
 20 21  2  0  0  0  0
 20 22  1  0  0  0  0
 22 23  1  0  0  0  0
 22 27  1  0  0  0  0
 23 24  1  0  0  0  0
 24 25  1  0  0  0  0
 25 26  1  0  0  0  0
 26 27  1  0  0  0  0
 28 29  2  0  0  0  0
M  END
> <ID>
11305

> <Formula>
C20H18ClF2N3O3

> <FW>
421.8250 (36.4609+385.3641)

> <DSSTox_CID>
25939

> <DSSTox_RID>
81237

> <DSSTox_GSID>
45939

> <DSSTox_FileID_Sort>
5918

> <TS_ChemName>
Sarafloxacin hydrochloride

> <TS_ChemName_Synonyms>


> <TS_CASRN>
91296-87-6

> <CASRN_ChemName_Relationship>
primary

> <TS_Description>
single chemical compound

> <ChemNote>
parent [98105-99-8]

> <STRUCTURE_Shown>
tested chemical

> <STRUCTURE_Formula>
C20H18ClF2N3O3

> <STRUCTURE_MW>
421.825

> <STRUCTURE_ChemType>
defined organic

> <STRUCTURE_DefinedOrganicForm>
complex

> <STRUCTURE_IUPAC>
6-fluoro-1-(4-fluorophenyl)-4-oxo-7-(piperazin-1-yl)-1,4-dihydroquinoline-3-carboxylic acid hydrochloride (1:1)

> <STRUCTURE_SMILES>
Cl.Fc1ccc(cc1)N2C=C(C(=O)O)C(=O)c3cc(F)c(cc23)N4CCNCC4

> <STRUCTURE_SMILES_Desalt>
Fc1ccc(cc1)N2C=C(C(=O)O)C(=O)c3cc(F)c(cc23)N4CCNCC4

> <Substance_modify_yyyymmdd>
20110930

$$$$
