91296-86-5
ChemmineR-0915142007XD

 30 32  0  0  0  0  0  0  0  0  1 V2000
    0.0000    0.0000    0.0000 C    0  0  0  0  0  0  0  0  0  0  0  0
    1.1484   -0.6725    0.0000 N    0  0  0  0  0  0  0  0  0  0  0  0
    2.2969    0.0000    0.0000 C    0  0  0  0  0  0  0  0  0  0  0  0
    3.4453   -0.6725    0.0000 C    0  0  0  0  0  0  0  0  0  0  0  0
    3.4453   -1.9969    0.0000 N    0  0  0  0  0  0  0  0  0  0  0  0
    2.2969   -2.6694    0.0000 C    0  0  0  0  0  0  0  0  0  0  0  0
    1.1484   -1.9969    0.0000 C    0  0  0  0  0  0  0  0  0  0  0  0
    4.5938   -2.6694    0.0000 C    0  0  0  0  0  0  0  0  0  0  0  0
    5.7629   -1.9969    0.0000 C    0  0  0  0  0  0  0  0  0  0  0  0
    5.7629   -0.6725    0.0000 F    0  0  0  0  0  0  0  0  0  0  0  0
    6.9114   -2.6694    0.0000 C    0  0  0  0  0  0  0  0  0  0  0  0
    6.9114   -3.9937    0.0000 C    0  0  0  0  0  0  0  0  0  0  0  0
    8.0495   -4.6455    0.0000 C    0  0  0  0  0  0  0  0  0  0  0  0
    9.1979   -3.9937    0.0000 O    0  0  0  0  0  0  0  0  0  0  0  0
    8.0495   -5.9699    0.0000 C    0  0  0  0  0  0  0  0  0  0  0  0
    6.9114   -6.6631    0.0000 C    0  0  0  0  0  0  0  0  0  0  0  0
    5.7629   -5.9699    0.0000 N    0  0  0  0  0  0  0  0  0  0  0  0
    4.5938   -6.6631    0.0000 C    0  0  0  0  0  0  0  0  0  0  0  0
    4.5938   -7.9874    0.0000 C    0  0  0  0  0  0  0  0  0  0  0  0
    3.4453   -8.6392    0.0000 C    0  0  0  0  0  0  0  0  0  0  0  0
    2.2969   -7.9874    0.0000 C    0  0  0  0  0  0  0  0  0  0  0  0
    1.1484   -8.6392    0.0000 F    0  0  0  0  0  0  0  0  0  0  0  0
    2.2969   -6.6631    0.0000 C    0  0  0  0  0  0  0  0  0  0  0  0
    3.4453   -5.9699    0.0000 C    0  0  0  0  0  0  0  0  0  0  0  0
    5.7629   -4.6455    0.0000 C    0  0  0  0  0  0  0  0  0  0  0  0
    4.5938   -3.9937    0.0000 C    0  0  0  0  0  0  0  0  0  0  0  0
    9.1979   -6.6631    0.0000 C    0  0  0  0  0  0  0  0  0  0  0  0
   10.3464   -5.9699    0.0000 O    0  0  0  0  0  0  0  0  0  0  0  0
    9.1979   -7.9874    0.0000 O    0  0  0  0  0  0  0  0  0  0  0  0
    2.7108   -4.1489    0.0000 Cl   0  0  0  0  0  0  0  0  0  0  0  0
  1  2  1  0  0  0  0
  2  3  1  0  0  0  0
  2  7  1  0  0  0  0
  3  4  1  0  0  0  0
  4  5  1  0  0  0  0
  5  6  1  0  0  0  0
  5  8  1  0  0  0  0
  6  7  1  0  0  0  0
  8  9  2  0  0  0  0
  8 26  1  0  0  0  0
  9 10  1  0  0  0  0
  9 11  1  0  0  0  0
 11 12  2  0  0  0  0
 12 13  1  0  0  0  0
 12 25  1  0  0  0  0
 13 14  2  0  0  0  0
 13 15  1  0  0  0  0
 15 16  2  0  0  0  0
 15 27  1  0  0  0  0
 16 17  1  0  0  0  0
 17 18  1  0  0  0  0
 17 25  1  0  0  0  0
 18 19  2  0  0  0  0
 18 24  1  0  0  0  0
 19 20  1  0  0  0  0
 20 21  2  0  0  0  0
 21 22  1  0  0  0  0
 21 23  1  0  0  0  0
 23 24  2  0  0  0  0
 25 26  2  0  0  0  0
 27 28  1  0  0  0  0
 27 29  2  0  0  0  0
M  END
> <ID>
11819

> <Formula>
C21H20ClF2N3O3

> <FW>
435.8516 (399.3907+36.4609)

> <DSSTox_CID>
26599

> <DSSTox_RID>
81754

> <DSSTox_GSID>
46599

> <DSSTox_FileID_Sort>
6435

> <TS_ChemName>
Difloxacin hydrochloride

> <TS_ChemName_Synonyms>


> <TS_CASRN>
91296-86-5

> <CASRN_ChemName_Relationship>
primary

> <TS_Description>
single chemical compound

> <ChemNote>
parent [98106-17-3]

> <STRUCTURE_Shown>
tested chemical

> <STRUCTURE_Formula>
C21H20ClF2N3O3

> <STRUCTURE_MW>
435.8516

> <STRUCTURE_ChemType>
defined organic

> <STRUCTURE_DefinedOrganicForm>
complex

> <STRUCTURE_IUPAC>
6-fluoro-1-(4-fluorophenyl)-7-(4-methylpiperazin-1-yl)-4-oxo-1,4-dihydroquinoline-3-carboxylic acid hydrochloride (1:1)

> <STRUCTURE_SMILES>
Cl.CN1CCN(CC1)c2cc3N(C=C(C(=O)O)C(=O)c3cc2F)c4ccc(F)cc4

> <STRUCTURE_SMILES_Desalt>
CN1CCN(CC1)c2cc3N(C=C(C(=O)O)C(=O)c3cc2F)c4ccc(F)cc4

> <Substance_modify_yyyymmdd>
20110809

$$$$
