91374-21-9
ChemmineR-0915142007XD

 19 20  0  0  0  0  0  0  0  0  1 V2000
    6.8958   -0.6700    0.0000 C   0  0  0  0  0  0  0  0  0  0  0  0
    6.8958   -1.9997    0.0000 C   0  0  0  0  0  0  0  0  0  0  0  0
    5.7620    0.0000    0.0000 C   0  0  0  0  0  0  0  0  0  0  0  0
    5.7620   -2.6697    0.0000 C   0  0  0  0  0  0  0  0  0  0  0  0
    4.6281   -0.6700    0.0000 C   0  0  0  0  0  0  0  0  0  0  0  0
    4.6281   -1.9997    0.0000 C   0  0  0  0  0  0  0  0  0  0  0  0
    8.1740   -0.2680    0.0000 N   0  0  0  0  0  0  0  0  0  0  0  0
    8.9780   -1.3400    0.0000 C   0  0  0  0  0  0  0  0  0  0  0  0
    8.1740   -2.4120    0.0000 C   0  0  0  0  0  0  0  0  0  0  0  0
   10.3076   -1.3400    0.0000 O   0  0  0  0  0  0  0  0  0  0  0  0
    5.7620   -3.9994    0.0000 C   0  0  0  0  0  0  0  0  0  0  0  0
    4.6281   -4.6694    0.0000 C   0  0  0  0  0  0  0  0  0  0  0  0
    3.4531   -3.9994    0.0000 N   0  0  0  0  0  0  0  0  0  0  0  0
    3.4531   -2.6697    0.0000 C   0  0  0  0  0  0  0  0  0  0  0  0
    2.3089   -4.6694    0.0000 C   0  0  0  0  0  0  0  0  0  0  0  0
    1.1545   -3.9994    0.0000 C   0  0  0  0  0  0  0  0  0  0  0  0
    0.0000   -4.6694    0.0000 C   0  0  0  0  0  0  0  0  0  0  0  0
    2.3089   -1.9997    0.0000 C   0  0  0  0  0  0  0  0  0  0  0  0
    2.3089   -0.6700    0.0000 C   0  0  0  0  0  0  0  0  0  0  0  0
  1  3  2  0  0  0  0
  1  7  1  0  0  0  0
  1  2  1  0  0  0  0
  2  4  2  0  0  0  0
  2  9  1  0  0  0  0
  3  5  1  0  0  0  0
  4  6  1  0  0  0  0
  4 11  1  0  0  0  0
  5  6  2  0  0  0  0
  7  8  1  0  0  0  0
  8  9  1  0  0  0  0
  8 10  2  0  0  0  0
 11 12  1  0  0  0  0
 12 13  1  0  0  0  0
 13 14  1  0  0  0  0
 13 15  1  0  0  0  0
 14 18  1  0  0  0  0
 15 16  1  0  0  0  0
 16 17  1  0  0  0  0
 18 19  1  0  0  0  0
M  END
> <ID>
10812

> <Formula>
C16H24N2O

> <FW>
260.3746

> <DSSTox_CID>
25195

> <DSSTox_RID>
80742

> <DSSTox_GSID>
45195

> <DSSTox_FileID_Sort>
5423

> <TS_ChemName>
Ropinirole

> <TS_ChemName_Synonyms>


> <TS_CASRN>
91374-21-9

> <CASRN_ChemName_Relationship>
primary

> <TS_Description>
single chemical compound

> <ChemNote>


> <STRUCTURE_Shown>
tested chemical

> <STRUCTURE_Formula>
C16H24N2O

> <STRUCTURE_MW>
260.3746

> <STRUCTURE_ChemType>
defined organic

> <STRUCTURE_DefinedOrganicForm>
parent

> <STRUCTURE_IUPAC>
4-[2-(dipropylamino)ethyl]-1,3-dihydro-2H-indol-2-one

> <STRUCTURE_SMILES>
CCCN(CCC)CCc1cccc2NC(=O)Cc12

> <STRUCTURE_SMILES_Desalt>
CCCN(CCC)CCc1cccc2NC(=O)Cc12

> <Substance_modify_yyyymmdd>
20100107

$$$$
