91421-42-0
ChemmineR-0915142007XD

 29 33  0  0  1  0  0  0  0  0  2 V2000
    1.1420   -0.6644    0.0000 N   0  3  0  0  0  0  0  0  0  0  0  0
    2.3047    0.0000    0.0000 O   0  0  0  0  0  0  0  0  0  0  0  0
    0.0000    0.0000    0.0000 O   0  5  0  0  0  0  0  0  0  0  0  0
    9.5924   -7.1112    0.0000 C   0  0  0  0  0  0  0  0  0  0  0  0
   10.3814   -6.0523    0.0000 O   0  0  0  0  0  0  0  0  0  0  0  0
    9.8416   -4.8170    0.0000 C   0  0  0  0  0  0  0  0  0  0  0  0
    8.2636   -6.9763    0.0000 C   0  0  0  0  0  0  0  0  0  0  0  0
    7.7341   -5.7617    0.0000 C   0  0  0  0  0  0  0  0  0  0  0  0
    8.5024   -4.6716    0.0000 C   0  0  0  0  0  0  0  0  0  0  0  0
    7.9625   -3.4570    0.0000 C   0  0  0  0  0  0  0  0  0  0  0  0
    6.4053   -5.6059    0.0000 C   0  0  0  0  0  0  0  0  0  0  0  0
    5.8655   -4.4017    0.0000 C   0  0  0  0  0  0  0  0  0  0  0  0
    6.6441   -3.3324    0.0000 N   0  0  0  0  0  0  0  0  0  0  0  0
    5.8655   -2.2528    0.0000 C   0  0  0  0  0  0  0  0  0  0  0  0
    4.6093   -2.6576    0.0000 C   0  0  0  0  0  0  0  0  0  0  0  0
    4.6093   -3.9865    0.0000 C   0  0  0  0  0  0  0  0  0  0  0  0
    3.4466   -4.6612    0.0000 N   0  0  0  0  0  0  0  0  0  0  0  0
    3.4466   -1.9932    0.0000 C   0  0  0  0  0  0  0  0  0  0  0  0
    2.3047   -2.6576    0.0000 C   0  0  0  0  0  0  0  0  0  0  0  0
    2.3047   -3.9865    0.0000 C   0  0  0  0  0  0  0  0  0  0  0  0
    1.1420   -4.6612    0.0000 C   0  0  0  0  0  0  0  0  0  0  0  0
    0.0000   -3.9865    0.0000 C   0  0  0  0  0  0  0  0  0  0  0  0
    0.0000   -2.6576    0.0000 C   0  0  0  0  0  0  0  0  0  0  0  0
    1.1420   -1.9932    0.0000 C   0  0  0  0  0  0  0  0  0  0  0  0
   10.1426   -8.3259    0.0000 O   0  0  0  0  0  0  0  0  0  0  0  0
    7.0697   -7.5057    0.0000 C   0  0  0  0  0  0  0  0  0  0  0  0
    8.1390   -8.2947    0.0000 O   0  0  0  0  0  0  0  0  0  0  0  0
    8.7515   -2.3773    0.0000 O   0  0  0  0  0  0  0  0  0  0  0  0
    5.9797   -6.7375    0.0000 C   0  0  0  0  0  0  0  0  0  0  0  0
  1  3  1  0  0  0  0
  1  2  2  0  0  0  0
  1 24  1  0  0  0  0
  4  7  1  0  0  0  0
  4 25  2  0  0  0  0
  4  5  1  0  0  0  0
  5  6  1  0  0  0  0
  6  9  1  0  0  0  0
  7  8  1  0  0  0  0
  7 26  1  6  0  0  0
  7 27  1  1  0  0  0
  8 11  1  0  0  0  0
  8  9  2  0  0  0  0
  9 10  1  0  0  0  0
 10 13  1  0  0  0  0
 10 28  2  0  0  0  0
 11 12  2  0  0  0  0
 12 13  1  0  0  0  0
 12 16  1  0  0  0  0
 13 14  1  0  0  0  0
 14 15  1  0  0  0  0
 15 18  1  0  0  0  0
 15 16  2  0  0  0  0
 16 17  1  0  0  0  0
 17 20  2  0  0  0  0
 18 19  2  0  0  0  0
 19 20  1  0  0  0  0
 19 24  1  0  0  0  0
 20 21  1  0  0  0  0
 21 22  2  0  0  0  0
 22 23  1  0  0  0  0
 23 24  2  0  0  0  0
 26 29  1  0  0  0  0
M  END
> <ID>
11941

> <Formula>
C20H15N3O6

> <FW>
393.3496

> <DSSTox_CID>
26752

> <DSSTox_RID>
81877

> <DSSTox_GSID>
46752

> <DSSTox_FileID_Sort>
6558

> <TS_ChemName>
Rubitecan

> <TS_ChemName_Synonyms>


> <TS_CASRN>
91421-42-0

> <CASRN_ChemName_Relationship>
primary

> <TS_Description>
single chemical compound

> <ChemNote>
stereochem

> <STRUCTURE_Shown>
tested chemical

> <STRUCTURE_Formula>
C20H15N3O6

> <STRUCTURE_MW>
393.3496

> <STRUCTURE_ChemType>
defined organic

> <STRUCTURE_DefinedOrganicForm>
parent

> <STRUCTURE_IUPAC>
(4S)-4-ethyl-4-hydroxy-10-nitro-1H-pyrano[3',4':6,7]indolizino[1,2-b]quinoline-3,14(4H,12H)-dione

> <STRUCTURE_SMILES>
[O-][N+](=O)c4cccc5nc1c(CN2C(=O)C=3COC(=O)[C@](O)(CC)C=3C=C12)cc45

> <STRUCTURE_SMILES_Desalt>
[O-][N+](=O)c4cccc5nc1c(CN2C(=O)C=3COC(=O)[C@](O)(CC)C=3C=C12)cc45

> <Substance_modify_yyyymmdd>
20110803

$$$$
