91465-08-6
ChemmineR-0915142007XD

 31 33  0  0  1  0  0  0  0  0  1 V2000
    5.2812   -1.0348    0.0000 C    0  0  0  0  0  0  0  0  0  0  0  0
    4.6210   -2.2124    0.0000 C    0  0  0  0  0  0  0  0  0  0  0  0
    5.9948   -2.2124    0.0000 C    0  0  0  0  0  0  0  0  0  0  0  0
    7.2795   -2.8725    0.0000 C    0  0  0  0  0  0  0  0  0  0  0  0
    3.4970   -2.8368    0.0000 C    0  0  0  0  0  0  0  0  0  0  0  0
    1.1776   -2.8368    0.0000 C    0  0  0  0  0  0  0  0  0  0  0  0
    2.3016   -2.2124    0.0000 C    0  0  0  0  0  0  0  0  0  0  0  0
    8.4035   -2.2124    0.0000 O    0  0  0  0  0  0  0  0  0  0  0  0
    9.5275   -5.3882    0.0000 N    0  0  0  0  0  0  0  0  0  0  0  0
    9.5275   -4.1928    0.0000 C    0  0  0  0  0  0  0  0  0  0  0  0
    9.5275   -2.8725    0.0000 C    0  0  0  0  0  0  0  0  0  0  0  0
   10.7229   -2.2124    0.0000 C    0  0  0  0  0  0  0  0  0  0  0  0
    7.2795   -4.1928    0.0000 O    0  0  0  0  0  0  0  0  0  0  0  0
   11.8648   -2.8725    0.0000 C    0  0  0  0  0  0  0  0  0  0  0  0
   13.0959   -2.2838    0.0000 C    0  0  0  0  0  0  0  0  0  0  0  0
   14.2556   -2.8725    0.0000 O    0  0  0  0  0  0  0  0  0  0  0  0
    0.0000   -3.4435    0.0000 F    0  0  0  0  0  0  0  0  0  0  0  0
    0.5709   -1.6771    0.0000 F    0  0  0  0  0  0  0  0  0  0  0  0
    1.7485   -3.9966    0.0000 F    0  0  0  0  0  0  0  0  0  0  0  0
    5.9948    0.0000    0.0000 C    0  0  0  0  0  0  0  0  0  0  0  0
    4.7459    0.0000    0.0000 C    0  0  0  0  0  0  0  0  0  0  0  0
    2.3016   -0.8386    0.0000 Cl   0  0  0  0  0  0  0  0  0  0  0  0
   15.5045   -2.2124    0.0000 C    0  0  0  0  0  0  0  0  0  0  0  0
   10.7229   -0.8921    0.0000 C    0  0  0  0  0  0  0  0  0  0  0  0
   11.8648   -0.1963    0.0000 C    0  0  0  0  0  0  0  0  0  0  0  0
   13.0959   -0.8921    0.0000 C    0  0  0  0  0  0  0  0  0  0  0  0
   15.5045   -0.8921    0.0000 C    0  0  0  0  0  0  0  0  0  0  0  0
   16.5929   -2.8725    0.0000 C    0  0  0  0  0  0  0  0  0  0  0  0
   17.8418   -2.2838    0.0000 C    0  0  0  0  0  0  0  0  0  0  0  0
   16.5929   -0.2498    0.0000 C    0  0  0  0  0  0  0  0  0  0  0  0
   17.8418   -0.8921    0.0000 C    0  0  0  0  0  0  0  0  0  0  0  0
  1  2  1  0  0  0  0
  1  3  1  0  0  0  0
  1 20  1  0  0  0  0
  1 21  1  0  0  0  0
  2  5  1  6  0  0  0
  2  3  1  0  0  0  0
  3  4  1  6  0  0  0
  4  8  1  0  0  0  0
  4 13  2  0  0  0  0
  5  7  2  0  0  0  0
  6  7  1  0  0  0  0
  6 17  1  0  0  0  0
  6 18  1  0  0  0  0
  6 19  1  0  0  0  0
  7 22  1  0  0  0  0
  8 11  1  0  0  0  0
  9 10  3  0  0  0  0
 11 10  1  1  0  0  0
 11 12  1  0  0  0  0
 12 14  1  0  0  0  0
 12 24  2  0  0  0  0
 14 15  2  0  0  0  0
 15 16  1  0  0  0  0
 15 26  1  0  0  0  0
 16 23  1  0  0  0  0
 23 27  1  0  0  0  0
 23 28  2  0  0  0  0
 24 25  1  0  0  0  0
 25 26  2  0  0  0  0
 27 30  2  0  0  0  0
 28 29  1  0  0  0  0
 29 31  2  0  0  0  0
 30 31  1  0  0  0  0
M  END
> <ID>
6520

> <Formula>
C23H19ClF3NO3

> <FW>
449.8501

> <DSSTox_CID>
12559

> <DSSTox_RID>
78987

> <DSSTox_GSID>
32559

> <DSSTox_FileID_Sort>
3669

> <TS_ChemName>
lambda-Cyhalothrin

> <TS_ChemName_Synonyms>


> <TS_CASRN>
91465-08-6

> <CASRN_ChemName_Relationship>
primary

> <TS_Description>
mixture or formulation

> <ChemNote>
1:1 mixture of (Z)-(1R,3R), S-ester and (Z)-(1S,3S), R-ester, structure shown  (Z)-(1R,3R), S-ester, stereochem

> <STRUCTURE_Shown>
representative isomer in mixture

> <STRUCTURE_Formula>
C23H19ClF3NO3

> <STRUCTURE_MW>
449.8501

> <STRUCTURE_ChemType>
defined organic

> <STRUCTURE_DefinedOrganicForm>
parent

> <STRUCTURE_IUPAC>
(S)-cyano(3-phenoxyphenyl)methyl (1R,3R)-3-[(1Z)-2-chloro-3,3,3-trifluoroprop-1-en-1-yl]-2,2-dimethylcyclopropanecarboxylate

> <STRUCTURE_SMILES>
Cl\C(=C/[C@H]3[C@@H](C(=O)O[C@H](C#N)c2cccc(Oc1ccccc1)c2)C3(C)C)C(F)(F)F

> <STRUCTURE_SMILES_Desalt>
Cl\C(=C/[C@H]3[C@@H](C(=O)O[C@H](C#N)c2cccc(Oc1ccccc1)c2)C3(C)C)C(F)(F)F

> <Substance_modify_yyyymmdd>
20080429

$$$$
