915-67-3
ChemmineR-0915142007XD

 38 38  0  0  0  0  0  0  0  0  2 V2000
    3.0935   -8.6839    0.0000 C    0  0  0  0  0  0  0  0  0  0  0  0
    3.7593   -9.8353    0.0000 C    0  0  0  0  0  0  0  0  0  0  0  0
    5.0494   -9.8353    0.0000 C    0  0  0  0  0  0  0  0  0  0  0  0
    5.7153   -8.6839    0.0000 C    0  0  0  0  0  0  0  0  0  0  0  0
    5.0494   -7.5603    0.0000 C    0  0  0  0  0  0  0  0  0  0  0  0
    3.7593   -7.5603    0.0000 C    0  0  0  0  0  0  0  0  0  0  0  0
    2.6634   -6.2563    0.0000 N    0  0  0  0  0  0  0  0  0  0  0  0
    2.9548   -4.5778    0.0000 N    0  0  0  0  0  0  0  0  0  0  0  0
    4.0923   -3.9258    0.0000 C    0  0  0  0  0  0  0  0  0  0  0  0
    4.0923   -2.6218    0.0000 C    0  0  0  0  0  0  0  0  0  0  0  0
    5.2298   -1.9560    0.0000 C    0  0  0  0  0  0  0  0  0  0  0  0
    6.3396   -2.6218    0.0000 C    0  0  0  0  0  0  0  0  0  0  0  0
    6.3396   -3.9258    0.0000 C    0  0  0  0  0  0  0  0  0  0  0  0
    5.2298   -4.5778    0.0000 C    0  0  0  0  0  0  0  0  0  0  0  0
    7.4909   -1.9560    0.0000 S    0  0  0  0  0  0  0  0  0  0  0  0
    8.1429   -3.0935    0.0000 O    0  0  0  0  0  0  0  0  0  0  0  0
    6.8390   -0.8185    0.0000 O    0  0  0  0  0  0  0  0  0  0  0  0
    8.6285   -1.3040    0.0000 O    0  5  0  0  0  0  0  0  0  0  0  0
    5.2298   -0.6520    0.0000 C    0  0  0  0  0  0  0  0  0  0  0  0
    4.0923    0.0000    0.0000 C    0  0  0  0  0  0  0  0  0  0  0  0
    2.9548   -0.6520    0.0000 C    0  0  0  0  0  0  0  0  0  0  0  0
    2.9548   -1.9560    0.0000 C    0  0  0  0  0  0  0  0  0  0  0  0
    5.8956   -6.5476    0.0000 O    0  0  0  0  0  0  0  0  0  0  0  0
    7.0193   -8.6839    0.0000 S    0  0  0  0  0  0  0  0  0  0  0  0
    7.0193   -7.3661    0.0000 O    0  0  0  0  0  0  0  0  0  0  0  0
    7.0193   -9.9879    0.0000 O    0  0  0  0  0  0  0  0  0  0  0  0
    8.3371   -8.6839    0.0000 O    0  5  0  0  0  0  0  0  0  0  0  0
    3.0935  -10.9728    0.0000 C    0  0  0  0  0  0  0  0  0  0  0  0
    1.7895  -10.9728    0.0000 C    0  0  0  0  0  0  0  0  0  0  0  0
    1.1375   -9.8353    0.0000 C    0  0  0  0  0  0  0  0  0  0  0  0
    1.7895   -8.6839    0.0000 C    0  0  0  0  0  0  0  0  0  0  0  0
    1.1375  -12.0826    0.0000 S    0  0  0  0  0  0  0  0  0  0  0  0
    2.2612  -12.7485    0.0000 O    0  0  0  0  0  0  0  0  0  0  0  0
    0.0000  -11.4445    0.0000 O    0  0  0  0  0  0  0  0  0  0  0  0
    0.4717  -13.2201    0.0000 O    0  5  0  0  0  0  0  0  0  0  0  0
    8.5591   -7.4909    0.0000 Na   0  3  0  0  0  0  0  0  0  0  0  0
    1.6092  -13.8721    0.0000 Na   0  3  0  0  0  0  0  0  0  0  0  0
    7.9071   -0.0971    0.0000 Na   0  3  0  0  0  0  0  0  0  0  0  0
  1  2  1  0  0  0  0
  1  6  2  0  0  0  0
  1 31  1  0  0  0  0
  2  3  2  0  0  0  0
  2 28  1  0  0  0  0
  3  4  1  0  0  0  0
  4  5  2  0  0  0  0
  4 24  1  0  0  0  0
  5  6  1  0  0  0  0
  5 23  1  0  0  0  0
  6  7  1  0  0  0  0
  7  8  2  0  0  0  0
  8  9  1  0  0  0  0
  9 10  2  0  0  0  0
  9 14  1  0  0  0  0
 10 11  1  0  0  0  0
 10 22  1  0  0  0  0
 11 12  2  0  0  0  0
 11 19  1  0  0  0  0
 12 13  1  0  0  0  0
 12 15  1  0  0  0  0
 13 14  2  0  0  0  0
 15 16  2  0  0  0  0
 15 17  2  0  0  0  0
 15 18  1  0  0  0  0
 19 20  2  0  0  0  0
 20 21  1  0  0  0  0
 21 22  2  0  0  0  0
 24 25  2  0  0  0  0
 24 26  2  0  0  0  0
 24 27  1  0  0  0  0
 28 29  2  0  0  0  0
 29 30  1  0  0  0  0
 29 32  1  0  0  0  0
 30 31  2  0  0  0  0
 32 33  2  0  0  0  0
 32 34  2  0  0  0  0
 32 35  1  0  0  0  0
M  END
> <ID>
1185

> <Formula>
C20H11N2Na3O10S3

> <FW>
604.4730 (535.5054+22.9892+22.9892+22.9892)

> <DSSTox_CID>
1232

> <DSSTox_RID>
76024

> <DSSTox_GSID>
21232

> <DSSTox_FileID_Sort>
708

> <TS_ChemName>
Amaranth

> <TS_ChemName_Synonyms>
Amaranth (FD & C Red No. 2) (C.I. Acid Red 27, trisodium salt) (2,7-Naphthalenedisulfonic acid, 3-hydroxy-4-((4-sulfo-1-naphthyl)azo)-, trisodium salt)

> <TS_CASRN>
915-67-3

> <CASRN_ChemName_Relationship>
primary

> <TS_Description>
single chemical compound

> <ChemNote>


> <STRUCTURE_Shown>
tested chemical

> <STRUCTURE_Formula>
C20H11N2Na3O10S3

> <STRUCTURE_MW>
604.473

> <STRUCTURE_ChemType>
defined organic

> <STRUCTURE_DefinedOrganicForm>
salt

> <STRUCTURE_IUPAC>
trisodium 3-hydroxy-4-[(Z)-(4-sulfonatonaphthalen-1-yl)diazenyl]naphthalene-2,7-disulfonate

> <STRUCTURE_SMILES>
[Na+].[Na+].[Na+].[O-]S(=O)(=O)c4ccc(/N=N\c1c2ccc(cc2cc(c1O)S([O-])(=O)=O)S([O-])(=O)=O)c3ccccc34

> <STRUCTURE_SMILES_Desalt>
O=S(=O)(O)c4ccc(/N=N\c1c2ccc(cc2cc(c1O)S(=O)(=O)O)S(=O)(=O)O)c3ccccc34

> <Substance_modify_yyyymmdd>
20080429

$$$$
