91503-79-6
ChemmineR-0915142007XD

 24 25  0  0  0  0  0  0  0  0  1 V2000
    5.7692   -2.0061    0.0000 C   0  0  0  0  0  0  0  0  0  0  0  0
    5.7692   -3.3342    0.0000 C   0  0  0  0  0  0  0  0  0  0  0  0
    4.6209   -1.3282    0.0000 C   0  0  0  0  0  0  0  0  0  0  0  0
    4.6209   -3.9845    0.0000 C   0  0  0  0  0  0  0  0  0  0  0  0
    3.4587   -2.0061    0.0000 C   0  0  0  0  0  0  0  0  0  0  0  0
    3.4587   -3.3342    0.0000 C   0  0  0  0  0  0  0  0  0  0  0  0
    2.3104   -3.9845    0.0000 C   0  0  0  0  0  0  0  0  0  0  0  0
    2.3104   -5.3126    0.0000 C   0  0  0  0  0  0  0  0  0  0  0  0
    1.1483   -3.3204    0.0000 C   0  0  0  0  0  0  0  0  0  0  0  0
    1.1483   -5.9767    0.0000 C   0  0  0  0  0  0  0  0  0  0  0  0
    0.0000   -3.9845    0.0000 C   0  0  0  0  0  0  0  0  0  0  0  0
    0.0000   -5.3126    0.0000 C   0  0  0  0  0  0  0  0  0  0  0  0
    4.6209   -5.3126    0.0000 F   0  0  0  0  0  0  0  0  0  0  0  0
    6.9313   -1.3282    0.0000 C   0  0  0  0  0  0  0  0  0  0  0  0
    8.0796   -1.9784    0.0000 C   0  0  0  0  0  0  0  0  0  0  0  0
    6.9313    0.0000    0.0000 C   0  0  0  0  0  0  0  0  0  0  0  0
    8.0796   -3.3204    0.0000 O   0  0  0  0  0  0  0  0  0  0  0  0
    9.2279   -1.3282    0.0000 O   0  0  0  0  0  0  0  0  0  0  0  0
   10.3762   -1.9784    0.0000 C   0  0  0  0  0  0  0  0  0  0  0  0
   11.5245   -1.3282    0.0000 O   0  0  0  0  0  0  0  0  0  0  0  0
   10.3762   -3.3204    0.0000 C   0  0  0  0  0  0  0  0  0  0  0  0
   12.6867   -1.9784    0.0000 C   0  0  0  0  0  0  0  0  0  0  0  0
   13.8350   -1.3282    0.0000 C   0  0  0  0  0  0  0  0  0  0  0  0
   12.6867   -3.3204    0.0000 O   0  0  0  0  0  0  0  0  0  0  0  0
  1  2  1  0  0  0  0
  1  3  2  0  0  0  0
  1 14  1  0  0  0  0
  2  4  2  0  0  0  0
  3  5  1  0  0  0  0
  4  6  1  0  0  0  0
  4 13  1  0  0  0  0
  5  6  2  0  0  0  0
  6  7  1  0  0  0  0
  7  8  1  0  0  0  0
  7  9  2  0  0  0  0
  8 10  2  0  0  0  0
  9 11  1  0  0  0  0
 10 12  1  0  0  0  0
 11 12  2  0  0  0  0
 14 15  1  0  0  0  0
 14 16  1  0  0  0  0
 15 17  2  0  0  0  0
 15 18  1  0  0  0  0
 18 19  1  0  0  0  0
 19 20  1  0  0  0  0
 19 21  1  0  0  0  0
 20 22  1  0  0  0  0
 22 23  1  0  0  0  0
 22 24  2  0  0  0  0
M  END
> <ID>
13598

> <Formula>
C19H19FO4

> <FW>
330.3502

> <DSSTox_CID>
28526

> <DSSTox_RID>
82798

> <DSSTox_GSID>
48600

> <DSSTox_FileID_Sort>
7475

> <TS_ChemName>
Flurbiprofen axetil

> <TS_ChemName_Synonyms>
Flurbiprofen Axetil; Ropiopn

> <TS_CASRN>
91503-79-6

> <CASRN_ChemName_Relationship>
primary

> <TS_Description>
single chemical compound

> <ChemNote>


> <STRUCTURE_Shown>
tested chemical

> <STRUCTURE_Formula>
C19H19FO4

> <STRUCTURE_MW>
330.3502

> <STRUCTURE_ChemType>
defined organic

> <STRUCTURE_DefinedOrganicForm>
parent

> <STRUCTURE_IUPAC>
1-(acetyloxy)ethyl 2-(2-fluorobiphenyl-4-yl)propanoate

> <STRUCTURE_SMILES>
Fc2cc(ccc2c1ccccc1)C(C)C(=O)OC(C)OC(C)=O

> <STRUCTURE_SMILES_Desalt>
Fc2cc(ccc2c1ccccc1)C(C)C(=O)OC(C)OC(C)=O

> <Substance_modify_yyyymmdd>
20111014

$$$$
