91599-74-5
ChemmineR-0915142007XD

 38 40  0  0  1  0  0  0  0  0  2 V2000
    3.4461   -5.3109    0.0000 C    0  0  0  0  0  0  0  0  0  0  0  0
    4.5948   -5.9971    0.0000 C    0  0  0  0  0  0  0  0  0  0  0  0
    3.4461   -3.9832    0.0000 C    0  0  0  0  0  0  0  0  0  0  0  0
    2.2825   -5.9971    0.0000 C    0  0  0  0  0  0  0  0  0  0  0  0
    5.7435   -5.3109    0.0000 C    0  0  0  0  0  0  0  0  0  0  0  0
    4.5948   -7.3248    0.0000 C    0  0  0  0  0  0  0  0  0  0  0  0
    2.2825   -3.3118    0.0000 C    0  0  0  0  0  0  0  0  0  0  0  0
    4.5948   -3.3118    0.0000 C    0  0  0  0  0  0  0  0  0  0  0  0
    2.2825   -7.3248    0.0000 C    0  0  0  0  0  0  0  0  0  0  0  0
    1.1487   -5.3109    0.0000 C    0  0  0  0  0  0  0  0  0  0  0  0
    6.8922   -5.9971    0.0000 O    0  0  0  0  0  0  0  0  0  0  0  0
    5.7435   -3.9832    0.0000 O    0  0  0  0  0  0  0  0  0  0  0  0
    3.4461   -7.9812    0.0000 N    0  0  0  0  0  0  0  0  0  0  0  0
    5.7435   -7.9812    0.0000 C    0  0  0  0  0  0  0  0  0  0  0  0
    2.2825   -1.9990    0.0000 C    0  0  0  0  0  0  0  0  0  0  0  0
    4.5948   -1.9990    0.0000 C    0  0  0  0  0  0  0  0  0  0  0  0
    1.1487   -7.9812    0.0000 C    0  0  0  0  0  0  0  0  0  0  0  0
    1.1487   -3.9832    0.0000 O    0  0  0  0  0  0  0  0  0  0  0  0
    0.0000   -5.9971    0.0000 O    0  0  0  0  0  0  0  0  0  0  0  0
    8.0409   -5.3109    0.0000 C    0  0  0  0  0  0  0  0  0  0  0  0
    3.4461   -1.3277    0.0000 C    0  0  0  0  0  0  0  0  0  0  0  0
    1.1487   -1.3277    0.0000 N    0  3  0  0  0  0  0  0  0  0  0  0
    0.0000   -3.3118    0.0000 C    0  0  0  0  0  0  0  0  0  0  0  0
    9.1747   -5.9971    0.0000 C    0  0  0  0  0  0  0  0  0  0  0  0
    8.0409   -3.9832    0.0000 C    0  0  0  0  0  0  0  0  0  0  0  0
    0.0000   -1.9990    0.0000 O    0  0  0  0  0  0  0  0  0  0  0  0
    1.1487    0.0000    0.0000 O    0  5  0  0  0  0  0  0  0  0  0  0
   10.3383   -5.3109    0.0000 N    0  0  0  0  0  0  0  0  0  0  0  0
    9.1747   -3.3118    0.0000 C    0  0  0  0  0  0  0  0  0  0  0  0
   11.4721   -5.9971    0.0000 C    0  0  0  0  0  0  0  0  0  0  0  0
   10.3383   -3.9832    0.0000 C    0  0  0  0  0  0  0  0  0  0  0  0
   12.6506   -5.3109    0.0000 C    0  0  0  0  0  0  0  0  0  0  0  0
   13.7695   -5.9971    0.0000 C    0  0  0  0  0  0  0  0  0  0  0  0
   12.6506   -3.9832    0.0000 C    0  0  0  0  0  0  0  0  0  0  0  0
   14.9182   -5.3109    0.0000 C    0  0  0  0  0  0  0  0  0  0  0  0
   13.7695   -3.3118    0.0000 C    0  0  0  0  0  0  0  0  0  0  0  0
   14.9182   -3.9832    0.0000 C    0  0  0  0  0  0  0  0  0  0  0  0
    4.8186   -9.3836    0.0000 Cl   0  0  0  0  0  0  0  0  0  0  0  0
  1  2  1  0  0  0  0
  1  3  1  1  0  0  0
  1  4  1  0  0  0  0
  2  5  1  0  0  0  0
  2  6  2  0  0  0  0
  3  7  1  0  0  0  0
  3  8  2  0  0  0  0
  4  9  2  0  0  0  0
  4 10  1  0  0  0  0
  5 11  1  0  0  0  0
  5 12  2  0  0  0  0
  6 13  1  0  0  0  0
  6 14  1  0  0  0  0
  7 15  2  0  0  0  0
  8 16  1  0  0  0  0
  9 17  1  0  0  0  0
  9 13  1  0  0  0  0
 10 18  1  0  0  0  0
 10 19  2  0  0  0  0
 20 11  1  6  0  0  0
 15 21  1  0  0  0  0
 15 22  1  0  0  0  0
 16 21  2  0  0  0  0
 18 23  1  0  0  0  0
 20 24  1  0  0  0  0
 20 25  1  0  0  0  0
 22 26  2  0  0  0  0
 22 27  1  0  0  0  0
 24 28  1  0  0  0  0
 25 29  1  0  0  0  0
 28 30  1  0  0  0  0
 28 31  1  0  0  0  0
 29 31  1  0  0  0  0
 30 32  1  0  0  0  0
 32 33  2  0  0  0  0
 32 34  1  0  0  0  0
 33 35  1  0  0  0  0
 34 36  2  0  0  0  0
 35 37  2  0  0  0  0
 36 37  1  0  0  0  0
M  END
> <ID>
14034

> <Formula>
C28H32ClN3O6

> <FW>
542.0232 (505.5622+36.4609)

> <DSSTox_CID>
28976

> <DSSTox_RID>
83241

> <DSSTox_GSID>
49050

> <DSSTox_FileID_Sort>
7916

> <TS_ChemName>
rac Benidipine hydrochloride

> <TS_ChemName_Synonyms>


> <TS_CASRN>
91599-74-5

> <CASRN_ChemName_Relationship>
primary

> <TS_Description>
single chemical compound

> <ChemNote>
relative stereochem; structure shown (3R;4R); CASRN is for the racemic mixture

> <STRUCTURE_Shown>
tested chemical

> <STRUCTURE_Formula>
C28H32ClN3O6

> <STRUCTURE_MW>
542.0232

> <STRUCTURE_ChemType>
defined organic

> <STRUCTURE_DefinedOrganicForm>
complex

> <STRUCTURE_IUPAC>
(3R)-1-benzylpiperidin-3-yl methyl (4R)-2,6-dimethyl-4-(3-nitrophenyl)-1,4-dihydropyridine-3,5-dicarboxylate hydrochloride (1:1)

> <STRUCTURE_SMILES>
Cl.[O-][N+](=O)c1cccc(c1)[C@@H]2C(C(=O)OC)=C(C)NC(C)=C2C(=O)O[C@@H]4CCCN(Cc3ccccc3)C4

> <STRUCTURE_SMILES_Desalt>
[O-][N+](=O)c1cccc(c1)[C@@H]2C(C(=O)OC)=C(C)NC(C)=C2C(=O)O[C@@H]4CCCN(Cc3ccccc3)C4

> <Substance_modify_yyyymmdd>
20111204

$$$$
