91832-40-5
ChemmineR-0915142007XD

 28 30  0  0  1  0  0  0  0  0  1 V2000
    6.8497   -5.6974    0.0000 C   0  0  0  0  0  0  0  0  0  0  0  0
    6.8497   -4.3659    0.0000 C   0  0  0  0  0  0  0  0  0  0  0  0
    8.1940   -5.6974    0.0000 N   0  0  0  0  0  0  0  0  0  0  0  0
    8.1940   -4.3659    0.0000 C   0  0  0  0  0  0  0  0  0  0  0  0
    9.3335   -3.6745    0.0000 S   0  0  0  0  0  0  0  0  0  0  0  0
   10.4986   -4.3659    0.0000 C   0  0  0  0  0  0  0  0  0  0  0  0
   10.4986   -5.6974    0.0000 C   0  0  0  0  0  0  0  0  0  0  0  0
    9.3335   -6.3504    0.0000 C   0  0  0  0  0  0  0  0  0  0  0  0
    5.8895   -6.6449    0.0000 O   0  0  0  0  0  0  0  0  0  0  0  0
    9.3335   -7.6819    0.0000 C   0  0  0  0  0  0  0  0  0  0  0  0
   10.4986   -8.3733    0.0000 O   0  0  0  0  0  0  0  0  0  0  0  0
    8.1940   -8.3733    0.0000 O   0  0  0  0  0  0  0  0  0  0  0  0
   11.6509   -6.3504    0.0000 C   0  0  0  0  0  0  0  0  0  0  0  0
    5.7230   -4.3659    0.0000 N   0  0  0  0  0  0  0  0  0  0  0  0
    6.8497   -3.0087    0.0000 H   0  0  0  0  0  0  0  0  0  0  0  0
    8.1940   -3.0087    0.0000 H   0  0  0  0  0  0  0  0  0  0  0  0
   12.8032   -5.6974    0.0000 C   0  0  0  0  0  0  0  0  0  0  0  0
    1.2675   -0.8066    0.0000 C   0  0  0  0  0  0  0  0  0  0  0  0
    1.6900   -2.0485    0.0000 N   0  0  0  0  0  0  0  0  0  0  0  0
    3.0216   -2.0485    0.0000 C   0  0  0  0  0  0  0  0  0  0  0  0
    3.4313   -0.8066    0.0000 C   0  0  0  0  0  0  0  0  0  0  0  0
    2.3302    0.0000    0.0000 S   0  0  0  0  0  0  0  0  0  0  0  0
    3.7257   -3.1880    0.0000 C   0  0  0  0  0  0  0  0  0  0  0  0
    5.0701   -3.1880    0.0000 C   0  0  0  0  0  0  0  0  0  0  0  0
    5.7230   -2.0357    0.0000 O   0  0  0  0  0  0  0  0  0  0  0  0
    3.0472   -4.3659    0.0000 N   0  0  0  0  0  0  0  0  0  0  0  0
    0.0000   -0.3841    0.0000 N   0  0  0  0  0  0  0  0  0  0  0  0
    2.2278   -5.4029    0.0000 O   0  0  0  0  0  0  0  0  0  0  0  0
  1  9  2  0  0  0  0
  1  2  1  0  0  0  0
  1  3  1  0  0  0  0
  2  4  1  0  0  0  0
  2 14  1  1  0  0  0
  2 15  1  6  0  0  0
  3  4  1  0  0  0  0
  3  8  1  0  0  0  0
  4  5  1  0  0  0  0
  4 16  1  6  0  0  0
  5  6  1  0  0  0  0
  6  7  1  0  0  0  0
  7 13  1  0  0  0  0
  7  8  2  0  0  0  0
  8 10  1  0  0  0  0
 10 11  1  0  0  0  0
 10 12  2  0  0  0  0
 13 17  2  0  0  0  0
 14 24  1  0  0  0  0
 18 22  1  0  0  0  0
 18 19  2  0  0  0  0
 18 27  1  0  0  0  0
 19 20  1  0  0  0  0
 20 21  2  0  0  0  0
 20 23  1  0  0  0  0
 21 22  1  0  0  0  0
 23 24  1  0  0  0  0
 23 26  2  0  0  0  0
 24 25  2  0  0  0  0
 26 28  1  0  0  0  0
M  END
> <ID>
11393

> <Formula>
C14H13N5O5S2

> <FW>
395.4135

> <DSSTox_CID>
26084

> <DSSTox_RID>
81325

> <DSSTox_GSID>
46084

> <DSSTox_FileID_Sort>
6006

> <TS_ChemName>
Cefdinir

> <TS_ChemName_Synonyms>


> <TS_CASRN>
91832-40-5

> <CASRN_ChemName_Relationship>
primary

> <TS_Description>
single chemical compound

> <ChemNote>
stereochem

> <STRUCTURE_Shown>
tested chemical

> <STRUCTURE_Formula>
C14H13N5O5S2

> <STRUCTURE_MW>
395.4135

> <STRUCTURE_ChemType>
defined organic

> <STRUCTURE_DefinedOrganicForm>
parent

> <STRUCTURE_IUPAC>
(6R,7R)-7-{[(2-amino-1,3-thiazol-4-yl)(hydroxyimino)acetyl]amino}-3-ethenyl-8-oxo-5-thia-1-azabicyclo[4.2.0]oct-2-ene-2-carboxylic acid

> <STRUCTURE_SMILES>
Nc1scc(n1)/C(=N\O)C(=O)N[C@@H]3C(=O)N2C(=C(C=C)CS[C@@H]23)C(=O)O

> <STRUCTURE_SMILES_Desalt>
Nc1scc(n1)/C(=N\O)C(=O)N[C@@H]3C(=O)N2C(=C(C=C)CS[C@@H]23)C(=O)O

> <Substance_modify_yyyymmdd>
20110819

$$$$
