918639-10-8
ChemmineR-0915142007XD

 38 40  0  0  0  0  0  0  0  0  1 V2000
    3.7089   -0.7418    0.0000 C    0  0  0  0  0  0  0  0  0  0  0  0
    3.7089   -2.0770    0.0000 N    0  0  0  0  0  0  0  0  0  0  0  0
    2.5550   -0.0824    0.0000 C    0  0  0  0  0  0  0  0  0  0  0  0
    2.5550   -2.7199    0.0000 C    0  0  0  0  0  0  0  0  0  0  0  0
    1.4012   -0.7418    0.0000 N    0  0  0  0  0  0  0  0  0  0  0  0
    1.4012   -2.0770    0.0000 C    0  0  0  0  0  0  0  0  0  0  0  0
    4.8628   -2.7199    0.0000 C    0  0  0  0  0  0  0  0  0  0  0  0
    6.0002   -2.0770    0.0000 C    0  0  0  0  0  0  0  0  0  0  0  0
    7.1541   -2.7199    0.0000 C    0  0  0  0  0  0  0  0  0  0  0  0
    8.2915   -2.0770    0.0000 O    0  0  0  0  0  0  0  0  0  0  0  0
    9.4454   -2.7199    0.0000 C    0  0  0  0  0  0  0  0  0  0  0  0
   10.5828   -2.0770    0.0000 C    0  0  0  0  0  0  0  0  0  0  0  0
    9.4454   -4.0551    0.0000 C    0  0  0  0  0  0  0  0  0  0  0  0
   11.7367   -2.7199    0.0000 C    0  0  0  0  0  0  0  0  0  0  0  0
   10.5828   -4.7309    0.0000 C    0  0  0  0  0  0  0  0  0  0  0  0
   11.7367   -4.0551    0.0000 C    0  0  0  0  0  0  0  0  0  0  0  0
    8.2915   -4.7309    0.0000 O    0  0  0  0  0  0  0  0  0  0  0  0
    7.1541   -4.0551    0.0000 C    0  0  0  0  0  0  0  0  0  0  0  0
   12.8906   -2.0770    0.0000 N    0  0  0  0  0  0  0  0  0  0  0  0
   14.0445   -2.7199    0.0000 C    0  0  0  0  0  0  0  0  0  0  0  0
   12.8906   -4.7309    0.0000 C    0  0  0  0  0  0  0  0  0  0  0  0
   14.0445   -4.0551    0.0000 C    0  0  0  0  0  0  0  0  0  0  0  0
   12.8906   -6.0497    0.0000 N    0  0  0  0  0  0  0  0  0  0  0  0
   13.5664   -7.1871    0.0000 C    0  0  0  0  0  0  0  0  0  0  0  0
   14.8852   -7.1871    0.0000 C    0  0  0  0  0  0  0  0  0  0  0  0
   12.9071   -8.3245    0.0000 C    0  0  0  0  0  0  0  0  0  0  0  0
   15.5610   -8.3245    0.0000 C    0  0  0  0  0  0  0  0  0  0  0  0
   13.5829   -9.4949    0.0000 C    0  0  0  0  0  0  0  0  0  0  0  0
   14.9016   -9.4784    0.0000 C    0  0  0  0  0  0  0  0  0  0  0  0
   15.1984   -4.7309    0.0000 C    0  0  0  0  0  0  0  0  0  0  0  0
   16.4841   -4.4672    0.0000 N    0  0  0  0  0  0  0  0  0  0  0  0
   12.9236  -10.6487    0.0000 O    0  0  0  0  0  0  0  0  0  0  0  0
   15.5775  -10.6158    0.0000 Cl   0  0  0  0  0  0  0  0  0  0  0  0
   15.5445   -6.0167    0.0000 Cl   0  0  0  0  0  0  0  0  0  0  0  0
   11.5883  -10.6487    0.0000 C    0  0  0  0  0  0  0  0  0  0  0  0
    0.0000    0.0000    0.0000 C    0  0  0  0  0  0  0  0  0  0  0  0
    7.3684   -6.3794    0.0000 C    0  0  0  0  0  0  0  0  0  0  0  0
    8.5882   -6.3299    0.0000 O    0  0  0  0  0  0  0  0  0  0  0  0
  1  2  1  0  0  0  0
  1  3  1  0  0  0  0
  2  4  1  0  0  0  0
  2  7  1  0  0  0  0
  3  5  1  0  0  0  0
  4  6  1  0  0  0  0
  5  6  1  0  0  0  0
  5 36  1  0  0  0  0
  7  8  1  0  0  0  0
  8  9  1  0  0  0  0
  9 10  1  0  0  0  0
 10 11  1  0  0  0  0
 11 12  1  0  0  0  0
 11 13  2  0  0  0  0
 12 14  2  0  0  0  0
 13 15  1  0  0  0  0
 13 17  1  0  0  0  0
 14 19  1  0  0  0  0
 14 16  1  0  0  0  0
 15 16  2  0  0  0  0
 16 21  1  0  0  0  0
 17 18  1  0  0  0  0
 19 20  2  0  0  0  0
 20 22  1  0  0  0  0
 21 22  2  0  0  0  0
 21 23  1  0  0  0  0
 22 30  1  0  0  0  0
 23 24  1  0  0  0  0
 24 25  1  0  0  0  0
 24 26  2  0  0  0  0
 25 27  2  0  0  0  0
 25 34  1  0  0  0  0
 26 28  1  0  0  0  0
 27 29  1  0  0  0  0
 28 29  2  0  0  0  0
 28 32  1  0  0  0  0
 29 33  1  0  0  0  0
 30 31  3  0  0  0  0
 32 35  1  0  0  0  0
 37 38  1  0  0  0  0
M  END
> <ID>
14035

> <Formula>
C27H33Cl2N5O4

> <FW>
562.4880 (530.4462+32.0419)

> <DSSTox_CID>
28977

> <DSSTox_RID>
83242

> <DSSTox_GSID>
49051

> <DSSTox_FileID_Sort>
7917

> <TS_ChemName>
Bosutinib methanoate

> <TS_ChemName_Synonyms>


> <TS_CASRN>
918639-10-8

> <CASRN_ChemName_Relationship>
primary

> <TS_Description>
single chemical compound

> <ChemNote>


> <STRUCTURE_Shown>
tested chemical

> <STRUCTURE_Formula>
C27H33Cl2N5O4

> <STRUCTURE_MW>
562.488

> <STRUCTURE_ChemType>
defined organic

> <STRUCTURE_DefinedOrganicForm>
complex

> <STRUCTURE_IUPAC>
4-[(2,4-dichloro-5-methoxyphenyl)amino]-6-methoxy-7-[3-(4-methylpiperazin-1-yl)propoxy]quinoline-3-carbonitrile - methanol (1:1)

> <STRUCTURE_SMILES>
CO.COc4cc(Nc3c(C#N)cnc2cc(OCCCN1CCN(C)CC1)c(OC)cc23)c(Cl)cc4Cl

> <STRUCTURE_SMILES_Desalt>
COc4cc(Nc3c(C#N)cnc2cc(OCCCN1CCN(C)CC1)c(OC)cc23)c(Cl)cc4Cl

> <Substance_modify_yyyymmdd>
20111204

$$$$
