91940-87-3
ChemmineR-0915142007XD

 34 35  0  0  0  0  0  0  0  0  1 V2000
    8.7213   -5.8079    0.0000 Cl   0  0  0  0  0  0  0  0  0  0  0  0
    3.4466   -3.9989    0.0000 C    0  0  0  0  0  0  0  0  0  0  0  0
    3.4466   -5.3509    0.0000 C    0  0  0  0  0  0  0  0  0  0  0  0
    2.3041   -3.3133    0.0000 C    0  0  0  0  0  0  0  0  0  0  0  0
    4.4749   -3.1801    0.0000 C    0  0  0  0  0  0  0  0  0  0  0  0
    2.3041   -5.9983    0.0000 C    0  0  0  0  0  0  0  0  0  0  0  0
    4.4749   -6.1697    0.0000 C    0  0  0  0  0  0  0  0  0  0  0  0
    1.1235   -3.9989    0.0000 C    0  0  0  0  0  0  0  0  0  0  0  0
    5.7888   -3.4657    0.0000 C    0  0  0  0  0  0  0  0  0  0  0  0
    1.1235   -5.3509    0.0000 C    0  0  0  0  0  0  0  0  0  0  0  0
    5.7888   -5.8650    0.0000 C    0  0  0  0  0  0  0  0  0  0  0  0
    0.0000   -3.3133    0.0000 O    0  0  0  0  0  0  0  0  0  0  0  0
    6.3601   -4.6653    0.0000 N    0  0  0  0  0  0  0  0  0  0  0  0
    0.0000   -5.9983    0.0000 O    0  0  0  0  0  0  0  0  0  0  0  0
    6.6077   -6.8933    0.0000 O    0  0  0  0  0  0  0  0  0  0  0  0
    0.0000   -2.0185    0.0000 C    0  0  0  0  0  0  0  0  0  0  0  0
    7.5407   -4.0179    0.0000 C    0  0  0  0  0  0  0  0  0  0  0  0
    0.0000   -7.3313    0.0000 C    0  0  0  0  0  0  0  0  0  0  0  0
    8.6642   -4.6844    0.0000 C    0  0  0  0  0  0  0  0  0  0  0  0
    9.8067   -4.0179    0.0000 C    0  0  0  0  0  0  0  0  0  0  0  0
   10.9683   -4.6844    0.0000 N    0  0  0  0  0  0  0  0  0  0  0  0
   12.1299   -4.0179    0.0000 C    0  0  0  0  0  0  0  0  0  0  0  0
   10.9683   -5.9983    0.0000 C    0  0  0  0  0  0  0  0  0  0  0  0
   13.2724   -4.6844    0.0000 C    0  0  0  0  0  0  0  0  0  0  0  0
   14.4340   -4.0179    0.0000 C    0  0  0  0  0  0  0  0  0  0  0  0
   14.4340   -2.6850    0.0000 C    0  0  0  0  0  0  0  0  0  0  0  0
   15.5765   -4.6844    0.0000 C    0  0  0  0  0  0  0  0  0  0  0  0
   15.5765   -2.0375    0.0000 C    0  0  0  0  0  0  0  0  0  0  0  0
   16.7381   -4.0179    0.0000 C    0  0  0  0  0  0  0  0  0  0  0  0
   16.7381   -2.6850    0.0000 C    0  0  0  0  0  0  0  0  0  0  0  0
   15.5765   -0.6855    0.0000 O    0  0  0  0  0  0  0  0  0  0  0  0
   17.8806   -2.0375    0.0000 O    0  0  0  0  0  0  0  0  0  0  0  0
   14.4150    0.0000    0.0000 C    0  0  0  0  0  0  0  0  0  0  0  0
   19.0422   -2.7040    0.0000 C    0  0  0  0  0  0  0  0  0  0  0  0
  2  3  2  0  0  0  0
  2  4  1  0  0  0  0
  2  5  1  0  0  0  0
  3  6  1  0  0  0  0
  3  7  1  0  0  0  0
  4  8  2  0  0  0  0
  5  9  1  0  0  0  0
  6 10  2  0  0  0  0
  7 11  1  0  0  0  0
  8 12  1  0  0  0  0
  8 10  1  0  0  0  0
  9 13  1  0  0  0  0
 10 14  1  0  0  0  0
 11 15  2  0  0  0  0
 11 13  1  0  0  0  0
 12 16  1  0  0  0  0
 13 17  1  0  0  0  0
 14 18  1  0  0  0  0
 17 19  1  0  0  0  0
 19 20  1  0  0  0  0
 20 21  1  0  0  0  0
 21 22  1  0  0  0  0
 21 23  1  0  0  0  0
 22 24  1  0  0  0  0
 24 25  1  0  0  0  0
 25 26  1  0  0  0  0
 25 27  2  0  0  0  0
 26 28  2  0  0  0  0
 27 29  1  0  0  0  0
 28 30  1  0  0  0  0
 28 31  1  0  0  0  0
 29 30  2  0  0  0  0
 30 32  1  0  0  0  0
 31 33  1  0  0  0  0
 32 34  1  0  0  0  0
M  END
> <ID>
11158

> <Formula>
C26H37ClN2O5

> <FW>
493.0354 (36.4609+456.5744)

> <DSSTox_CID>
25745

> <DSSTox_RID>
81090

> <DSSTox_GSID>
45745

> <DSSTox_FileID_Sort>
5771

> <TS_ChemName>
Zatebradine hydrochloride

> <TS_ChemName_Synonyms>


> <TS_CASRN>
91940-87-3

> <CASRN_ChemName_Relationship>
primary

> <TS_Description>
single chemical compound

> <ChemNote>
parent [85175-67-3]

> <STRUCTURE_Shown>
tested chemical

> <STRUCTURE_Formula>
C26H37ClN2O5

> <STRUCTURE_MW>
493.0354

> <STRUCTURE_ChemType>
defined organic

> <STRUCTURE_DefinedOrganicForm>
complex

> <STRUCTURE_IUPAC>
3-(3-{[2-(3,4-dimethoxyphenyl)ethyl](methyl)amino}propyl)-7,8-dimethoxy-1,3,4,5-tetrahydro-2H-3-benzazepin-2-one hydrochloride (1:1)

> <STRUCTURE_SMILES>
Cl.COc1ccc(cc1OC)CCN(C)CCCN2CCc3cc(OC)c(OC)cc3CC2=O

> <STRUCTURE_SMILES_Desalt>
COc1ccc(cc1OC)CCN(C)CCCN2CCc3cc(OC)c(OC)cc3CC2=O

> <Substance_modify_yyyymmdd>
20110826

$$$$
