92-06-8
ChemmineR-0915142007XD

 18 20  0  0  0  0  0  0  0  0  1 V2000
    2.6694   -1.1576    0.0000 C   0  0  0  0  0  0  0  0  0  0  0  0
    2.0129   -0.0346    0.0000 C   0  0  0  0  0  0  0  0  0  0  0  0
    2.0129   -2.3411    0.0000 C   0  0  0  0  0  0  0  0  0  0  0  0
    0.6738   -0.0346    0.0000 C   0  0  0  0  0  0  0  0  0  0  0  0
    0.6738   -2.3411    0.0000 C   0  0  0  0  0  0  0  0  0  0  0  0
    0.0000   -1.1835    0.0000 C   0  0  0  0  0  0  0  0  0  0  0  0
    3.9998   -1.1576    0.0000 C   0  0  0  0  0  0  0  0  0  0  0  0
    4.6736   -2.3066    0.0000 C   0  0  0  0  0  0  0  0  0  0  0  0
    4.6736    0.0000    0.0000 C   0  0  0  0  0  0  0  0  0  0  0  0
    5.9867   -2.3066    0.0000 C   0  0  0  0  0  0  0  0  0  0  0  0
    5.9867    0.0000    0.0000 C   0  0  0  0  0  0  0  0  0  0  0  0
    6.6519   -1.1576    0.0000 C   0  0  0  0  0  0  0  0  0  0  0  0
    6.6519   -3.4555    0.0000 C   0  0  0  0  0  0  0  0  0  0  0  0
    5.9867   -4.6132    0.0000 C   0  0  0  0  0  0  0  0  0  0  0  0
    7.9650   -3.4555    0.0000 C   0  0  0  0  0  0  0  0  0  0  0  0
    6.6519   -5.7621    0.0000 C   0  0  0  0  0  0  0  0  0  0  0  0
    8.6389   -4.6132    0.0000 C   0  0  0  0  0  0  0  0  0  0  0  0
    7.9996   -5.7621    0.0000 C   0  0  0  0  0  0  0  0  0  0  0  0
  1  7  1  0  0  0  0
  1  2  2  0  0  0  0
  1  3  1  0  0  0  0
  2  4  1  0  0  0  0
  3  5  2  0  0  0  0
  4  6  2  0  0  0  0
  5  6  1  0  0  0  0
  7  8  2  0  0  0  0
  7  9  1  0  0  0  0
  8 10  1  0  0  0  0
  9 11  2  0  0  0  0
 10 12  2  0  0  0  0
 10 13  1  0  0  0  0
 11 12  1  0  0  0  0
 13 14  2  0  0  0  0
 13 15  1  0  0  0  0
 14 16  1  0  0  0  0
 15 17  2  0  0  0  0
 16 18  2  0  0  0  0
 17 18  1  0  0  0  0
M  END
> <ID>
5799

> <Formula>
C18H14

> <FW>
230.3038

> <DSSTox_CID>
9117

> <DSSTox_RID>
78671

> <DSSTox_GSID>
29117

> <DSSTox_FileID_Sort>
3353

> <TS_ChemName>
1,1':3',1''-Terphenyl

> <TS_ChemName_Synonyms>


> <TS_CASRN>
92-06-8

> <CASRN_ChemName_Relationship>
primary

> <TS_Description>
single chemical compound

> <ChemNote>


> <STRUCTURE_Shown>
tested chemical

> <STRUCTURE_Formula>
C18H14

> <STRUCTURE_MW>
230.3038

> <STRUCTURE_ChemType>
defined organic

> <STRUCTURE_DefinedOrganicForm>
parent

> <STRUCTURE_IUPAC>
1,1':3',1''-terphenyl

> <STRUCTURE_SMILES>
c1cc(ccc1)c2cccc(c2)c3ccccc3

> <STRUCTURE_SMILES_Desalt>
c1cc(ccc1)c2cccc(c2)c3ccccc3

> <Substance_modify_yyyymmdd>
20080429

$$$$
