92-12-6_1
ChemmineR-0915142007XD

 30 31  0  0  0  0  0  0  0  0  1 V2000
    4.6282   -3.9589    0.0000 C   0  0  0  0  0  0  0  0  0  0  0  0
    3.4807   -3.3277    0.0000 C   0  0  0  0  0  0  0  0  0  0  0  0
    5.7566   -3.3277    0.0000 C   0  0  0  0  0  0  0  0  0  0  0  0
    9.2182   -1.3387    0.0000 N   0  0  0  0  0  0  0  0  0  0  0  0
    2.3141   -3.9589    0.0000 C   0  0  0  0  0  0  0  0  0  0  0  0
    5.7566   -2.0081    0.0000 O   0  0  0  0  0  0  0  0  0  0  0  0
    6.9232   -1.3387    0.0000 C   0  0  0  0  0  0  0  0  0  0  0  0
    4.6282   -5.2976    0.0000 C   0  0  0  0  0  0  0  0  0  0  0  0
    8.0899   -2.0081    0.0000 C   0  0  0  0  0  0  0  0  0  0  0  0
    6.9232   -3.9589    0.0000 C   0  0  0  0  0  0  0  0  0  0  0  0
   10.3466   -2.0464    0.0000 C   0  0  0  0  0  0  0  0  0  0  0  0
    9.2182    0.0000    0.0000 C   0  0  0  0  0  0  0  0  0  0  0  0
    2.3141   -5.2976    0.0000 C   0  0  0  0  0  0  0  0  0  0  0  0
    1.1857   -3.3277    0.0000 C   0  0  0  0  0  0  0  0  0  0  0  0
    5.7566   -5.9670    0.0000 C   0  0  0  0  0  0  0  0  0  0  0  0
    6.9232   -5.2976    0.0000 C   0  0  0  0  0  0  0  0  0  0  0  0
    0.0000   -3.9589    0.0000 C   0  0  0  0  0  0  0  0  0  0  0  0
    1.1857   -5.9670    0.0000 C   0  0  0  0  0  0  0  0  0  0  0  0
    0.0000   -5.2976    0.0000 C   0  0  0  0  0  0  0  0  0  0  0  0
   16.7917   -4.8769    0.0000 C   0  0  0  0  0  0  0  0  0  0  0  0
   16.7917   -3.5381    0.0000 C   0  0  0  0  0  0  0  0  0  0  0  0
   17.9775   -5.5462    0.0000 C   0  0  0  0  0  0  0  0  0  0  0  0
   15.6442   -5.5462    0.0000 C   0  0  0  0  0  0  0  0  0  0  0  0
   15.6442   -2.8687    0.0000 C   0  0  0  0  0  0  0  0  0  0  0  0
   17.9775   -6.9041    0.0000 O   0  0  0  0  0  0  0  0  0  0  0  0
   14.4776   -3.5381    0.0000 C   0  0  0  0  0  0  0  0  0  0  0  0
   17.9775   -2.8687    0.0000 O   0  0  0  0  0  0  0  0  0  0  0  0
   14.4776   -4.8769    0.0000 C   0  0  0  0  0  0  0  0  0  0  0  0
   19.1249   -4.8769    0.0000 O   0  0  0  0  0  0  0  0  0  0  0  0
   13.4257   -2.9070    0.0000 N   0  0  0  0  0  0  0  0  0  0  0  0
  1  2  1  0  0  0  0
  1  3  1  0  0  0  0
  1  8  2  0  0  0  0
  2  5  1  0  0  0  0
  3  6  1  0  0  0  0
  3 10  2  0  0  0  0
  4  9  1  0  0  0  0
  4 11  1  0  0  0  0
  4 12  1  0  0  0  0
  5 13  2  0  0  0  0
  5 14  1  0  0  0  0
  6  7  1  0  0  0  0
  7  9  1  0  0  0  0
  8 15  1  0  0  0  0
 10 16  1  0  0  0  0
 13 18  1  0  0  0  0
 14 17  2  0  0  0  0
 15 16  2  0  0  0  0
 17 19  1  0  0  0  0
 18 19  2  0  0  0  0
 20 21  1  0  0  0  0
 20 22  1  0  0  0  0
 20 23  2  0  0  0  0
 21 24  2  0  0  0  0
 21 27  1  0  0  0  0
 22 25  2  0  0  0  0
 22 29  1  0  0  0  0
 23 28  1  0  0  0  0
 24 26  1  0  0  0  0
 26 28  2  0  0  0  0
 26 30  1  0  0  0  0
M  END
> <ID>
13757

> <Formula>
C24H28N2O4

> <FW>
408.4901 (255.3547+153.1354)

> <DSSTox_CID>
28693

> <DSSTox_RID>
82963

> <DSSTox_GSID>
48767

> <DSSTox_FileID_Sort>
7640

> <TS_ChemName>
Phentoloxamine PAS

> <TS_ChemName_Synonyms>
Phentoloxamine/ 4-aminosalicylic acid mixture

> <TS_CASRN>
92-12-6_1

> <CASRN_ChemName_Relationship>
CAS for major component

> <TS_Description>
single chemical compound

> <ChemNote>
1:1 mixture of phenyltoloxamine [92-12-6] and 4-aminosalicylic acid [65-49-6]

> <STRUCTURE_Shown>
tested chemical

> <STRUCTURE_Formula>
C24H28N2O4

> <STRUCTURE_MW>
408.4901

> <STRUCTURE_ChemType>
defined organic

> <STRUCTURE_DefinedOrganicForm>
complex

> <STRUCTURE_IUPAC>
4-amino-2-hydroxybenzoic acid - 2-(2-benzylphenoxy)-N,N-dimethylethanamine (1:1)

> <STRUCTURE_SMILES>
O=C(O)c1ccc(N)cc1O.CN(C)CCOc2ccccc2Cc1ccccc1

> <STRUCTURE_SMILES_Desalt>
CN(C)CCOc2ccccc2Cc1ccccc1

> <Substance_modify_yyyymmdd>
20130911

$$$$
