92-31-9
ChemmineR-0915142007XD

 20 21  0  0  0  0  0  0  0  0  2 V2000
    5.7434   -2.6588    0.0000 S    0  3  0  0  0  0  0  0  0  0  0  0
    5.7434    0.0000    0.0000 N    0  0  0  0  0  0  0  0  0  0  0  0
    6.9170   -1.9837    0.0000 C    0  0  0  0  0  0  0  0  0  0  0  0
    4.6113   -1.9837    0.0000 C    0  0  0  0  0  0  0  0  0  0  0  0
    6.9170   -0.6647    0.0000 C    0  0  0  0  0  0  0  0  0  0  0  0
    8.0906   -2.6588    0.0000 C    0  0  0  0  0  0  0  0  0  0  0  0
    3.4689   -2.6588    0.0000 C    0  0  0  0  0  0  0  0  0  0  0  0
    4.6113   -0.6647    0.0000 C    0  0  0  0  0  0  0  0  0  0  0  0
    2.2953   -1.9837    0.0000 C    0  0  0  0  0  0  0  0  0  0  0  0
    9.2434   -1.9837    0.0000 C    0  0  0  0  0  0  0  0  0  0  0  0
    8.0906    0.0000    0.0000 C    0  0  0  0  0  0  0  0  0  0  0  0
    9.2434   -0.6647    0.0000 C    0  0  0  0  0  0  0  0  0  0  0  0
    1.1424   -2.6588    0.0000 N    0  0  0  0  0  0  0  0  0  0  0  0
    2.2953   -0.6647    0.0000 C    0  0  0  0  0  0  0  0  0  0  0  0
    3.4689    0.0000    0.0000 C    0  0  0  0  0  0  0  0  0  0  0  0
   10.3859   -2.6276    0.0000 N    0  0  0  0  0  0  0  0  0  0  0  0
   10.3859   -0.0312    0.0000 C    0  0  0  0  0  0  0  0  0  0  0  0
    1.1424   -3.9778    0.0000 C    0  0  0  0  0  0  0  0  0  0  0  0
    0.0000   -1.9837    0.0000 C    0  0  0  0  0  0  0  0  0  0  0  0
    6.9481   -4.4348    0.0000 Cl   0  5  0  0  0  0  0  0  0  0  0  0
  1  3  2  0  0  0  0
  1  4  1  0  0  0  0
  2  8  1  0  0  0  0
  2  5  2  0  0  0  0
  3  5  1  0  0  0  0
  3  6  1  0  0  0  0
  4  7  2  0  0  0  0
  4  8  1  0  0  0  0
  5 11  1  0  0  0  0
  6 10  2  0  0  0  0
  7  9  1  0  0  0  0
  8 15  2  0  0  0  0
  9 13  1  0  0  0  0
  9 14  2  0  0  0  0
 10 12  1  0  0  0  0
 10 16  1  0  0  0  0
 11 12  2  0  0  0  0
 12 17  1  0  0  0  0
 13 18  1  0  0  0  0
 13 19  1  0  0  0  0
 14 15  1  0  0  0  0
M  END
> <ID>
13720

> <Formula>
C15H16ClN3S

> <FW>
305.8256 (270.3721+35.4535)

> <DSSTox_CID>
28654

> <DSSTox_RID>
82924

> <DSSTox_GSID>
48728

> <DSSTox_FileID_Sort>
7601

> <TS_ChemName>
Toluidine blue

> <TS_ChemName_Synonyms>


> <TS_CASRN>
92-31-9

> <CASRN_ChemName_Relationship>
primary

> <TS_Description>
single chemical compound

> <ChemNote>


> <STRUCTURE_Shown>
tested chemical

> <STRUCTURE_Formula>
C15H16ClN3S

> <STRUCTURE_MW>
305.8256

> <STRUCTURE_ChemType>
defined organic

> <STRUCTURE_DefinedOrganicForm>
salt

> <STRUCTURE_IUPAC>
3-amino-7-(dimethylamino)-2-methylphenothiazin-5-ium chloride

> <STRUCTURE_SMILES>
[Cl-].CN(C)c1ccc2nc3cc(C)c(N)cc3[s+]c2c1

> <STRUCTURE_SMILES_Desalt>
CN(C)c1ccc2nc3cc(C)c(N)cc3[s+]c2c1

> <Substance_modify_yyyymmdd>
20111204

$$$$
