92-39-7
ChemmineR-0915142007XD

 15 17  0  0  0  0  0  0  0  0  1 V2000
    8.0728   -2.6560    0.0000 Cl   0  0  0  0  0  0  0  0  0  0  0  0
    6.9184   -2.0021    0.0000 C    0  0  0  0  0  0  0  0  0  0  0  0
    6.9184   -0.6700    0.0000 C    0  0  0  0  0  0  0  0  0  0  0  0
    5.7479    0.0000    0.0000 C    0  0  0  0  0  0  0  0  0  0  0  0
    4.6096   -0.6539    0.0000 C    0  0  0  0  0  0  0  0  0  0  0  0
    3.4632    0.0000    0.0000 S    0  0  0  0  0  0  0  0  0  0  0  0
    2.3088   -0.6700    0.0000 C    0  0  0  0  0  0  0  0  0  0  0  0
    1.1544    0.0000    0.0000 C    0  0  0  0  0  0  0  0  0  0  0  0
    0.0000   -0.6700    0.0000 C    0  0  0  0  0  0  0  0  0  0  0  0
    0.0000   -2.0021    0.0000 C    0  0  0  0  0  0  0  0  0  0  0  0
    1.1544   -2.6560    0.0000 C    0  0  0  0  0  0  0  0  0  0  0  0
    2.3088   -2.0021    0.0000 C    0  0  0  0  0  0  0  0  0  0  0  0
    3.4632   -2.6560    0.0000 N    0  0  0  0  0  0  0  0  0  0  0  0
    4.6096   -2.0021    0.0000 C    0  0  0  0  0  0  0  0  0  0  0  0
    5.7640   -2.6560    0.0000 C    0  0  0  0  0  0  0  0  0  0  0  0
  1  2  1  0  0  0  0
  2  3  2  0  0  0  0
  2 15  1  0  0  0  0
  3  4  1  0  0  0  0
  4  5  2  0  0  0  0
  5  6  1  0  0  0  0
  5 14  1  0  0  0  0
  6  7  1  0  0  0  0
  7  8  2  0  0  0  0
  7 12  1  0  0  0  0
  8  9  1  0  0  0  0
  9 10  2  0  0  0  0
 10 11  1  0  0  0  0
 11 12  2  0  0  0  0
 12 13  1  0  0  0  0
 13 14  1  0  0  0  0
 14 15  2  0  0  0  0
M  END
> <ID>
16252

> <Formula>
C12H8ClNS

> <FW>
233.7166

> <DSSTox_CID>
31643

> <DSSTox_RID>
97527

> <DSSTox_GSID>
57854

> <DSSTox_FileID_Sort>
8594

> <TS_ChemName>
2-Chlorophenothiazine

> <TS_ChemName_Synonyms>


> <TS_CASRN>
92-39-7

> <CASRN_ChemName_Relationship>
primary

> <TS_Description>
single chemical compound

> <ChemNote>


> <STRUCTURE_Shown>
tested chemical

> <STRUCTURE_Formula>
C12H8ClNS

> <STRUCTURE_MW>
233.7166

> <STRUCTURE_ChemType>
defined organic

> <STRUCTURE_DefinedOrganicForm>
parent

> <STRUCTURE_IUPAC>
2-chloro-10H-phenothiazine

> <STRUCTURE_SMILES>
Clc1cc2Nc3ccccc3Sc2cc1

> <STRUCTURE_SMILES_Desalt>
Clc1cc2Nc3ccccc3Sc2cc1

> <Substance_modify_yyyymmdd>
20131018

$$$$
