92-48-8
ChemmineR-0915142007XD

 12 13  0  0  0  0  0  0  0  0  1 V2000
    5.7569   -0.6635    0.0000 C   0  0  0  0  0  0  0  0  0  0  0  0
    5.7569   -1.9973    0.0000 C   0  0  0  0  0  0  0  0  0  0  0  0
    6.9110   -2.6607    0.0000 C   0  0  0  0  0  0  0  0  0  0  0  0
    4.6097   -2.6607    0.0000 C   0  0  0  0  0  0  0  0  0  0  0  0
    3.4555   -1.9973    0.0000 C   0  0  0  0  0  0  0  0  0  0  0  0
    2.3014   -2.6607    0.0000 C   0  0  0  0  0  0  0  0  0  0  0  0
    1.1541   -1.9973    0.0000 C   0  0  0  0  0  0  0  0  0  0  0  0
    1.1541   -0.6635    0.0000 C   0  0  0  0  0  0  0  0  0  0  0  0
    0.0000    0.0000    0.0000 O   0  0  0  0  0  0  0  0  0  0  0  0
    2.3014    0.0000    0.0000 O   0  0  0  0  0  0  0  0  0  0  0  0
    3.4555   -0.6635    0.0000 C   0  0  0  0  0  0  0  0  0  0  0  0
    4.6097    0.0000    0.0000 C   0  0  0  0  0  0  0  0  0  0  0  0
  1  2  2  0  0  0  0
  1 12  1  0  0  0  0
  2  3  1  0  0  0  0
  2  4  1  0  0  0  0
  4  5  2  0  0  0  0
  5  6  1  0  0  0  0
  5 11  1  0  0  0  0
  6  7  2  0  0  0  0
  7  8  1  0  0  0  0
  8  9  2  0  0  0  0
  8 10  1  0  0  0  0
 10 11  1  0  0  0  0
 11 12  2  0  0  0  0
M  END
> <ID>
4284

> <Formula>
C10H8O2

> <FW>
160.1693

> <DSSTox_CID>
5588

> <DSSTox_RID>
77842

> <DSSTox_GSID>
25588

> <DSSTox_FileID_Sort>
2525

> <TS_ChemName>
6-Methyl coumarin

> <TS_ChemName_Synonyms>
6-Methyl coumarin (Methyl coumarin)

> <TS_CASRN>
92-48-8

> <CASRN_ChemName_Relationship>
primary

> <TS_Description>
single chemical compound

> <ChemNote>


> <STRUCTURE_Shown>
tested chemical

> <STRUCTURE_Formula>
C10H8O2

> <STRUCTURE_MW>
160.1693

> <STRUCTURE_ChemType>
defined organic

> <STRUCTURE_DefinedOrganicForm>
parent

> <STRUCTURE_IUPAC>
6-methyl-2H-chromen-2-one

> <STRUCTURE_SMILES>
Cc1ccc2OC(=O)C=Cc2c1

> <STRUCTURE_SMILES_Desalt>
Cc1ccc2OC(=O)C=Cc2c1

> <Substance_modify_yyyymmdd>
20080429

$$$$
