92-54-6
ChemmineR-0915142007XD

 12 13  0  0  0  0  0  0  0  0  1 V2000
    1.9922   -5.7579    0.0000 C   0  0  0  0  0  0  0  0  0  0  0  0
    2.6601   -4.6063    0.0000 C   0  0  0  0  0  0  0  0  0  0  0  0
    1.9922   -3.4547    0.0000 N   0  0  0  0  0  0  0  0  0  0  0  0
    0.6622   -3.4547    0.0000 C   0  0  0  0  0  0  0  0  0  0  0  0
    0.0000   -4.6063    0.0000 C   0  0  0  0  0  0  0  0  0  0  0  0
    0.6622   -5.7579    0.0000 N   0  0  0  0  0  0  0  0  0  0  0  0
    2.6601   -2.3031    0.0000 C   0  0  0  0  0  0  0  0  0  0  0  0
    3.9902   -2.3031    0.0000 C   0  0  0  0  0  0  0  0  0  0  0  0
    4.6524   -1.1516    0.0000 C   0  0  0  0  0  0  0  0  0  0  0  0
    3.9902    0.0000    0.0000 C   0  0  0  0  0  0  0  0  0  0  0  0
    2.6601    0.0000    0.0000 C   0  0  0  0  0  0  0  0  0  0  0  0
    1.9922   -1.1516    0.0000 C   0  0  0  0  0  0  0  0  0  0  0  0
  1  2  1  0  0  0  0
  1  6  1  0  0  0  0
  2  3  1  0  0  0  0
  3  4  1  0  0  0  0
  3  7  1  0  0  0  0
  4  5  1  0  0  0  0
  5  6  1  0  0  0  0
  7  8  2  0  0  0  0
  7 12  1  0  0  0  0
  8  9  1  0  0  0  0
  9 10  2  0  0  0  0
 10 11  1  0  0  0  0
 11 12  2  0  0  0  0
M  END
> <ID>
16253

> <Formula>
C10H14N2

> <FW>
162.2316

> <DSSTox_CID>
31644

> <DSSTox_RID>
97528

> <DSSTox_GSID>
57855

> <DSSTox_FileID_Sort>
8595

> <TS_ChemName>
Phenylpiperazine

> <TS_ChemName_Synonyms>


> <TS_CASRN>
92-54-6

> <CASRN_ChemName_Relationship>
primary

> <TS_Description>
single chemical compound

> <ChemNote>


> <STRUCTURE_Shown>
tested chemical

> <STRUCTURE_Formula>
C10H14N2

> <STRUCTURE_MW>
162.2316

> <STRUCTURE_ChemType>
defined organic

> <STRUCTURE_DefinedOrganicForm>
parent

> <STRUCTURE_IUPAC>
1-phenylpiperazine

> <STRUCTURE_SMILES>
c1cc(ccc1)N2CCNCC2

> <STRUCTURE_SMILES_Desalt>
c1cc(ccc1)N2CCNCC2

> <Substance_modify_yyyymmdd>
20131018

$$$$
