92-52-4
ChemmineR-0915142007XD

 12 13  0  0  0  0  0  0  0  0  1 V2000
    1.9961    0.0000    0.0000 C   0  0  0  0  0  0  0  0  0  0  0  0
    2.6615   -1.1511    0.0000 C   0  0  0  0  0  0  0  0  0  0  0  0
    1.9961   -2.3022    0.0000 C   0  0  0  0  0  0  0  0  0  0  0  0
    0.6654   -2.3022    0.0000 C   0  0  0  0  0  0  0  0  0  0  0  0
    0.0000   -1.1511    0.0000 C   0  0  0  0  0  0  0  0  0  0  0  0
    0.6654    0.0000    0.0000 C   0  0  0  0  0  0  0  0  0  0  0  0
    3.9922   -1.1511    0.0000 C   0  0  0  0  0  0  0  0  0  0  0  0
    4.6575    0.0000    0.0000 C   0  0  0  0  0  0  0  0  0  0  0  0
    5.9883    0.0000    0.0000 C   0  0  0  0  0  0  0  0  0  0  0  0
    6.6536   -1.1511    0.0000 C   0  0  0  0  0  0  0  0  0  0  0  0
    5.9883   -2.3022    0.0000 C   0  0  0  0  0  0  0  0  0  0  0  0
    4.6575   -2.3022    0.0000 C   0  0  0  0  0  0  0  0  0  0  0  0
  1  2  2  0  0  0  0
  1  6  1  0  0  0  0
  2  3  1  0  0  0  0
  2  7  1  0  0  0  0
  3  4  2  0  0  0  0
  4  5  1  0  0  0  0
  5  6  2  0  0  0  0
  7  8  2  0  0  0  0
  7 12  1  0  0  0  0
  8  9  1  0  0  0  0
  9 10  2  0  0  0  0
 10 11  1  0  0  0  0
 11 12  2  0  0  0  0
M  END
> <ID>
158

> <Formula>
C12H10

> <FW>
154.2078

> <DSSTox_CID>
161

> <DSSTox_RID>
75411

> <DSSTox_GSID>
20161

> <DSSTox_FileID_Sort>
95

> <TS_ChemName>
Biphenyl

> <TS_ChemName_Synonyms>
Biphenyl (1,1'-Biphenyl) (1,1-Biphenyl)

> <TS_CASRN>
92-52-4

> <CASRN_ChemName_Relationship>
primary

> <TS_Description>
single chemical compound

> <ChemNote>


> <STRUCTURE_Shown>
tested chemical

> <STRUCTURE_Formula>
C12H10

> <STRUCTURE_MW>
154.2078

> <STRUCTURE_ChemType>
defined organic

> <STRUCTURE_DefinedOrganicForm>
parent

> <STRUCTURE_IUPAC>
biphenyl

> <STRUCTURE_SMILES>
c1cc(ccc1)c2ccccc2

> <STRUCTURE_SMILES_Desalt>
c1cc(ccc1)c2ccccc2

> <Substance_modify_yyyymmdd>
20080429

$$$$
