92-59-1
ChemmineR-0915142007XD

 16 17  0  0  0  0  0  0  0  0  1 V2000
    3.9910   -4.6044    0.0000 C   0  0  0  0  0  0  0  0  0  0  0  0
    4.6475   -3.4554    0.0000 C   0  0  0  0  0  0  0  0  0  0  0  0
    3.9910   -2.3065    0.0000 N   0  0  0  0  0  0  0  0  0  0  0  0
    4.6475   -1.1489    0.0000 C   0  0  0  0  0  0  0  0  0  0  0  0
    5.9779   -1.1489    0.0000 C   0  0  0  0  0  0  0  0  0  0  0  0
    6.6431    0.0000    0.0000 C   0  0  0  0  0  0  0  0  0  0  0  0
    7.9734    0.0000    0.0000 C   0  0  0  0  0  0  0  0  0  0  0  0
    8.6386   -1.1489    0.0000 C   0  0  0  0  0  0  0  0  0  0  0  0
    7.9734   -2.3065    0.0000 C   0  0  0  0  0  0  0  0  0  0  0  0
    6.6431   -2.3065    0.0000 C   0  0  0  0  0  0  0  0  0  0  0  0
    2.6607   -2.3065    0.0000 C   0  0  0  0  0  0  0  0  0  0  0  0
    1.9955   -3.4554    0.0000 C   0  0  0  0  0  0  0  0  0  0  0  0
    0.6652   -3.4554    0.0000 C   0  0  0  0  0  0  0  0  0  0  0  0
    0.0000   -2.3065    0.0000 C   0  0  0  0  0  0  0  0  0  0  0  0
    0.6652   -1.1489    0.0000 C   0  0  0  0  0  0  0  0  0  0  0  0
    1.9955   -1.1489    0.0000 C   0  0  0  0  0  0  0  0  0  0  0  0
  1  2  1  0  0  0  0
  2  3  1  0  0  0  0
  3  4  1  0  0  0  0
  3 11  1  0  0  0  0
  4  5  1  0  0  0  0
  5  6  2  0  0  0  0
  5 10  1  0  0  0  0
  6  7  1  0  0  0  0
  7  8  2  0  0  0  0
  8  9  1  0  0  0  0
  9 10  2  0  0  0  0
 11 12  2  0  0  0  0
 11 16  1  0  0  0  0
 12 13  1  0  0  0  0
 13 14  2  0  0  0  0
 14 15  1  0  0  0  0
 15 16  2  0  0  0  0
M  END
> <ID>
4141

> <Formula>
C15H17N

> <FW>
211.3022

> <DSSTox_CID>
5315

> <DSSTox_RID>
77746

> <DSSTox_GSID>
25315

> <DSSTox_FileID_Sort>
2429

> <TS_ChemName>
N-Ethyl-N-phenyl benzylamine

> <TS_ChemName_Synonyms>


> <TS_CASRN>
92-59-1

> <CASRN_ChemName_Relationship>
primary

> <TS_Description>
single chemical compound

> <ChemNote>


> <STRUCTURE_Shown>
tested chemical

> <STRUCTURE_Formula>
C15H17N

> <STRUCTURE_MW>
211.3022

> <STRUCTURE_ChemType>
defined organic

> <STRUCTURE_DefinedOrganicForm>
parent

> <STRUCTURE_IUPAC>
N-benzyl-N-ethylaniline

> <STRUCTURE_SMILES>
CCN(Cc1ccccc1)c2ccccc2

> <STRUCTURE_SMILES_Desalt>
CCN(Cc1ccccc1)c2ccccc2

> <Substance_modify_yyyymmdd>
20080429

$$$$
