92-68-2
ChemmineR-0915142007XD

 13 14  0  0  0  0  0  0  0  0  1 V2000
    1.9935    0.0000    0.0000 C   0  0  0  0  0  0  0  0  0  0  0  0
    0.6618    0.0000    0.0000 C   0  0  0  0  0  0  0  0  0  0  0  0
    2.6553   -1.1562    0.0000 C   0  0  0  0  0  0  0  0  0  0  0  0
    0.0000   -1.1562    0.0000 C   0  0  0  0  0  0  0  0  0  0  0  0
    1.9935   -2.3044    0.0000 C   0  0  0  0  0  0  0  0  0  0  0  0
    0.6618   -2.3044    0.0000 C   0  0  0  0  0  0  0  0  0  0  0  0
    3.9869   -1.1562    0.0000 C   0  0  0  0  0  0  0  0  0  0  0  0
    4.6488   -2.3044    0.0000 C   0  0  0  0  0  0  0  0  0  0  0  0
    4.6488    0.0000    0.0000 C   0  0  0  0  0  0  0  0  0  0  0  0
    5.9804   -2.3044    0.0000 C   0  0  0  0  0  0  0  0  0  0  0  0
    5.9804    0.0000    0.0000 C   0  0  0  0  0  0  0  0  0  0  0  0
    6.6422   -1.1562    0.0000 C   0  0  0  0  0  0  0  0  0  0  0  0
    7.9739   -1.1562    0.0000 O   0  0  0  0  0  0  0  0  0  0  0  0
  1  2  1  0  0  0  0
  1  3  1  0  0  0  0
  2  4  1  0  0  0  0
  3  5  1  0  0  0  0
  3  7  1  0  0  0  0
  4  6  1  0  0  0  0
  5  6  1  0  0  0  0
  7  8  1  0  0  0  0
  7  9  1  0  0  0  0
  8 10  1  0  0  0  0
  9 11  1  0  0  0  0
 10 12  1  0  0  0  0
 11 12  1  0  0  0  0
 12 13  2  0  0  0  0
M  END
> <ID>
7917

> <Formula>
C12H20O

> <FW>
180.2866

> <DSSTox_CID>
20721

> <DSSTox_RID>
79568

> <DSSTox_GSID>
40721

> <DSSTox_FileID_Sort>
4250

> <TS_ChemName>
4-Cyclohexylcyclohexanone

> <TS_ChemName_Synonyms>
4-Cyclohexylcyclohexanone ([1,1'-Bicyclohexyl]-4-one)

> <TS_CASRN>
92-68-2

> <CASRN_ChemName_Relationship>
primary

> <TS_Description>
single chemical compound

> <ChemNote>


> <STRUCTURE_Shown>
tested chemical

> <STRUCTURE_Formula>
C12H20O

> <STRUCTURE_MW>
180.2866

> <STRUCTURE_ChemType>
defined organic

> <STRUCTURE_DefinedOrganicForm>
parent

> <STRUCTURE_IUPAC>
1,1'-bi(cyclohexyl)-4-one

> <STRUCTURE_SMILES>
O=C1CCC(CC1)C2CCCCC2

> <STRUCTURE_SMILES_Desalt>
O=C1CCC(CC1)C2CCCCC2

> <Substance_modify_yyyymmdd>
20080429

$$$$
