92-70-6
ChemmineR-0915142007XD

 14 15  0  0  0  0  0  0  0  0  1 V2000
    2.3209   -1.9834    0.0000 C   0  0  0  0  0  0  0  0  0  0  0  0
    2.3209   -3.3126    0.0000 C   0  0  0  0  0  0  0  0  0  0  0  0
    1.1363   -1.3154    0.0000 C   0  0  0  0  0  0  0  0  0  0  0  0
    1.1363   -3.9875    0.0000 C   0  0  0  0  0  0  0  0  0  0  0  0
    3.4297   -3.9875    0.0000 C   0  0  0  0  0  0  0  0  0  0  0  0
    3.4297   -1.3154    0.0000 C   0  0  0  0  0  0  0  0  0  0  0  0
    4.5935   -1.9834    0.0000 C   0  0  0  0  0  0  0  0  0  0  0  0
    4.5935   -3.3126    0.0000 C   0  0  0  0  0  0  0  0  0  0  0  0
    0.0000   -3.3126    0.0000 C   0  0  0  0  0  0  0  0  0  0  0  0
    0.0000   -1.9834    0.0000 C   0  0  0  0  0  0  0  0  0  0  0  0
    5.7505   -1.3154    0.0000 C   0  0  0  0  0  0  0  0  0  0  0  0
    6.8869   -2.0041    0.0000 O   0  0  0  0  0  0  0  0  0  0  0  0
    5.7505    0.0000    0.0000 O   0  0  0  0  0  0  0  0  0  0  0  0
    5.7505   -3.9875    0.0000 O   0  0  0  0  0  0  0  0  0  0  0  0
  1  2  2  0  0  0  0
  1  3  1  0  0  0  0
  1  6  1  0  0  0  0
  2  4  1  0  0  0  0
  2  5  1  0  0  0  0
  3 10  2  0  0  0  0
  4  9  2  0  0  0  0
  5  8  2  0  0  0  0
  6  7  2  0  0  0  0
  7  8  1  0  0  0  0
  7 11  1  0  0  0  0
  8 14  1  0  0  0  0
  9 10  1  0  0  0  0
 11 12  2  0  0  0  0
 11 13  1  0  0  0  0
M  END
> <ID>
4724

> <Formula>
C11H8O3

> <FW>
188.1794

> <DSSTox_CID>
6560

> <DSSTox_RID>
78150

> <DSSTox_GSID>
26560

> <DSSTox_FileID_Sort>
2833

> <TS_ChemName>
3-Hydroxy-2-naphthoic acid

> <TS_ChemName_Synonyms>
3-Hydroxy-2-naphthoic acid (2-Naphthalenecarboxylic acid, 3-hydroxy-)

> <TS_CASRN>
92-70-6

> <CASRN_ChemName_Relationship>
primary

> <TS_Description>
single chemical compound

> <ChemNote>


> <STRUCTURE_Shown>
tested chemical

> <STRUCTURE_Formula>
C11H8O3

> <STRUCTURE_MW>
188.1794

> <STRUCTURE_ChemType>
defined organic

> <STRUCTURE_DefinedOrganicForm>
parent

> <STRUCTURE_IUPAC>
3-hydroxynaphthalene-2-carboxylic acid

> <STRUCTURE_SMILES>
O=C(O)c1cc2ccccc2cc1O

> <STRUCTURE_SMILES_Desalt>
O=C(O)c1cc2ccccc2cc1O

> <Substance_modify_yyyymmdd>
20080429

$$$$
