92-88-6
ChemmineR-0915142007XD

 14 15  0  0  0  0  0  0  0  0  1 V2000
    4.0054   -1.1511    0.0000 C   0  0  0  0  0  0  0  0  0  0  0  0
    3.3410    0.0000    0.0000 C   0  0  0  0  0  0  0  0  0  0  0  0
    3.3410   -2.2928    0.0000 C   0  0  0  0  0  0  0  0  0  0  0  0
    2.0027    0.0000    0.0000 C   0  0  0  0  0  0  0  0  0  0  0  0
    2.0027   -2.2928    0.0000 C   0  0  0  0  0  0  0  0  0  0  0  0
    1.3383   -1.1511    0.0000 C   0  0  0  0  0  0  0  0  0  0  0  0
    5.3437   -1.1511    0.0000 C   0  0  0  0  0  0  0  0  0  0  0  0
    6.0175   -2.2928    0.0000 C   0  0  0  0  0  0  0  0  0  0  0  0
    6.0175    0.0000    0.0000 C   0  0  0  0  0  0  0  0  0  0  0  0
    7.3276   -2.2928    0.0000 C   0  0  0  0  0  0  0  0  0  0  0  0
    7.3276    0.0000    0.0000 C   0  0  0  0  0  0  0  0  0  0  0  0
    8.0202   -1.1511    0.0000 C   0  0  0  0  0  0  0  0  0  0  0  0
    0.0000   -1.1511    0.0000 O   0  0  0  0  0  0  0  0  0  0  0  0
    9.3584   -1.1511    0.0000 O   0  0  0  0  0  0  0  0  0  0  0  0
  1  7  1  0  0  0  0
  1  2  2  0  0  0  0
  1  3  1  0  0  0  0
  2  4  1  0  0  0  0
  3  5  2  0  0  0  0
  4  6  2  0  0  0  0
  5  6  1  0  0  0  0
  6 13  1  0  0  0  0
  7  8  2  0  0  0  0
  7  9  1  0  0  0  0
  8 10  1  0  0  0  0
  9 11  2  0  0  0  0
 10 12  2  0  0  0  0
 11 12  1  0  0  0  0
 12 14  1  0  0  0  0
M  END
> <ID>
5800

> <Formula>
C12H10O2

> <FW>
186.2066

> <DSSTox_CID>
9120

> <DSSTox_RID>
78672

> <DSSTox_GSID>
29120

> <DSSTox_FileID_Sort>
3354

> <TS_ChemName>
4,4'-Biphenyldiol

> <TS_ChemName_Synonyms>
4,4'-Biphenyldiol ([1,1'-Biphenyl]-4,4'-diol)

> <TS_CASRN>
92-88-6

> <CASRN_ChemName_Relationship>
primary

> <TS_Description>
single chemical compound

> <ChemNote>


> <STRUCTURE_Shown>
tested chemical

> <STRUCTURE_Formula>
C12H10O2

> <STRUCTURE_MW>
186.2066

> <STRUCTURE_ChemType>
defined organic

> <STRUCTURE_DefinedOrganicForm>
parent

> <STRUCTURE_IUPAC>
biphenyl-4,4'-diol

> <STRUCTURE_SMILES>
Oc1ccc(cc1)c2ccc(O)cc2

> <STRUCTURE_SMILES_Desalt>
Oc1ccc(cc1)c2ccc(O)cc2

> <Substance_modify_yyyymmdd>
20080429

$$$$
