92-94-4
ChemmineR-0915142007XD

 18 20  0  0  0  0  0  0  0  0  1 V2000
    2.6683   -1.1527    0.0000 C   0  0  0  0  0  0  0  0  0  0  0  0
    2.0066   -2.2948    0.0000 C   0  0  0  0  0  0  0  0  0  0  0  0
    2.0066    0.0000    0.0000 C   0  0  0  0  0  0  0  0  0  0  0  0
    0.6724   -2.2948    0.0000 C   0  0  0  0  0  0  0  0  0  0  0  0
    0.6724    0.0000    0.0000 C   0  0  0  0  0  0  0  0  0  0  0  0
    0.0000   -1.1527    0.0000 C   0  0  0  0  0  0  0  0  0  0  0  0
    6.6708   -1.1527    0.0000 C   0  0  0  0  0  0  0  0  0  0  0  0
    6.0091   -2.2948    0.0000 C   0  0  0  0  0  0  0  0  0  0  0  0
    6.0091    0.0000    0.0000 C   0  0  0  0  0  0  0  0  0  0  0  0
    4.6749   -2.2948    0.0000 C   0  0  0  0  0  0  0  0  0  0  0  0
    4.6749    0.0000    0.0000 C   0  0  0  0  0  0  0  0  0  0  0  0
    4.0025   -1.1527    0.0000 C   0  0  0  0  0  0  0  0  0  0  0  0
   10.6733   -1.1527    0.0000 C   0  0  0  0  0  0  0  0  0  0  0  0
   10.0116   -2.2948    0.0000 C   0  0  0  0  0  0  0  0  0  0  0  0
   10.0116    0.0000    0.0000 C   0  0  0  0  0  0  0  0  0  0  0  0
    8.6774   -2.2948    0.0000 C   0  0  0  0  0  0  0  0  0  0  0  0
    8.6774    0.0000    0.0000 C   0  0  0  0  0  0  0  0  0  0  0  0
    8.0050   -1.1527    0.0000 C   0  0  0  0  0  0  0  0  0  0  0  0
  1  2  1  0  0  0  0
  1  3  2  0  0  0  0
  1 12  1  0  0  0  0
  2  4  2  0  0  0  0
  3  5  1  0  0  0  0
  4  6  1  0  0  0  0
  5  6  2  0  0  0  0
  7  8  1  0  0  0  0
  7  9  2  0  0  0  0
  7 18  1  0  0  0  0
  8 10  2  0  0  0  0
  9 11  1  0  0  0  0
 10 12  1  0  0  0  0
 11 12  2  0  0  0  0
 13 14  1  0  0  0  0
 13 15  2  0  0  0  0
 14 16  2  0  0  0  0
 15 17  1  0  0  0  0
 16 18  1  0  0  0  0
 17 18  2  0  0  0  0
M  END
> <ID>
5476

> <Formula>
C18H14

> <FW>
230.3038

> <DSSTox_CID>
7888

> <DSSTox_RID>
78673

> <DSSTox_GSID>
29121

> <DSSTox_FileID_Sort>
3355

> <TS_ChemName>
1,1':4',1''-Terphenyl

> <TS_ChemName_Synonyms>


> <TS_CASRN>
92-94-4

> <CASRN_ChemName_Relationship>
primary

> <TS_Description>
single chemical compound

> <ChemNote>


> <STRUCTURE_Shown>
tested chemical

> <STRUCTURE_Formula>
C18H14

> <STRUCTURE_MW>
230.3038

> <STRUCTURE_ChemType>
defined organic

> <STRUCTURE_DefinedOrganicForm>
parent

> <STRUCTURE_IUPAC>
1,1':4',1''-terphenyl

> <STRUCTURE_SMILES>
c1cc(ccc1)c2ccc(cc2)c3ccccc3

> <STRUCTURE_SMILES_Desalt>
c1cc(ccc1)c2ccc(cc2)c3ccccc3

> <Substance_modify_yyyymmdd>
20080429

$$$$
