921-03-9
ChemmineR-0915142007XD

  7  6  0  0  0  0  0  0  0  0  1 V2000
    0.0000   -2.3052    0.0000 O    0  0  0  0  0  0  0  0  0  0  0  0
    1.3306   -2.3052    0.0000 C    0  0  0  0  0  0  0  0  0  0  0  0
    1.9941   -1.1508    0.0000 C    0  0  0  0  0  0  0  0  0  0  0  0
    3.3247   -1.1508    0.0000 Cl   0  0  0  0  0  0  0  0  0  0  0  0
    1.3306    0.0000    0.0000 Cl   0  0  0  0  0  0  0  0  0  0  0  0
    1.9941   -3.4560    0.0000 C    0  0  0  0  0  0  0  0  0  0  0  0
    3.3247   -3.4560    0.0000 Cl   0  0  0  0  0  0  0  0  0  0  0  0
  1  2  2  0  0  0  0
  2  3  1  0  0  0  0
  2  6  1  0  0  0  0
  3  4  1  0  0  0  0
  3  5  1  0  0  0  0
  6  7  1  0  0  0  0
M  END
> <ID>
1617

> <Formula>
C3H3Cl3O

> <FW>
161.4143

> <DSSTox_CID>
1680

> <DSSTox_RID>
76280

> <DSSTox_GSID>
21680

> <DSSTox_FileID_Sort>
964

> <TS_ChemName>
1,1,3-Trichloropropanone

> <TS_ChemName_Synonyms>


> <TS_CASRN>
921-03-9

> <CASRN_ChemName_Relationship>
primary

> <TS_Description>
single chemical compound

> <ChemNote>


> <STRUCTURE_Shown>
tested chemical

> <STRUCTURE_Formula>
C3H3Cl3O

> <STRUCTURE_MW>
161.4143

> <STRUCTURE_ChemType>
defined organic

> <STRUCTURE_DefinedOrganicForm>
parent

> <STRUCTURE_IUPAC>
1,1,3-trichloropropan-2-one

> <STRUCTURE_SMILES>
ClC(Cl)C(=O)CCl

> <STRUCTURE_SMILES_Desalt>
ClC(Cl)C(=O)CCl

> <Substance_modify_yyyymmdd>
20080429

$$$$
