92339-11-2
ChemmineR-0915142007XD

 62 63  0  0  0  0  0  0  0  0  1 V2000
    9.2098   -5.3159    0.0000 C   0  0  0  0  0  0  0  0  0  0  0  0
   10.3474   -5.9722    0.0000 N   0  0  0  0  0  0  0  0  0  0  0  0
    8.0504   -5.9722    0.0000 C   0  0  0  0  0  0  0  0  0  0  0  0
    9.2098   -3.9814    0.0000 C   0  0  0  0  0  0  0  0  0  0  0  0
   11.5068   -5.3159    0.0000 C   0  0  0  0  0  0  0  0  0  0  0  0
   10.3474   -7.3066    0.0000 C   0  0  0  0  0  0  0  0  0  0  0  0
    6.9128   -5.3159    0.0000 C   0  0  0  0  0  0  0  0  0  0  0  0
    8.0504   -7.3066    0.0000 I   0  0  0  0  0  0  0  0  0  0  0  0
    8.0504   -3.3252    0.0000 C   0  0  0  0  0  0  0  0  0  0  0  0
   10.3474   -3.3252    0.0000 I   0  0  0  0  0  0  0  0  0  0  0  0
   12.6662   -5.9722    0.0000 C   0  0  0  0  0  0  0  0  0  0  0  0
   11.5068   -7.9848    0.0000 C   0  0  0  0  0  0  0  0  0  0  0  0
    9.2098   -7.9848    0.0000 O   0  0  0  0  0  0  0  0  0  0  0  0
    6.9128   -3.9814    0.0000 C   0  0  0  0  0  0  0  0  0  0  0  0
    5.7534   -5.9722    0.0000 C   0  0  0  0  0  0  0  0  0  0  0  0
    8.0504   -1.9907    0.0000 C   0  0  0  0  0  0  0  0  0  0  0  0
   12.6662   -7.3066    0.0000 C   0  0  0  0  0  0  0  0  0  0  0  0
   13.8257   -5.3159    0.0000 O   0  0  0  0  0  0  0  0  0  0  0  0
    5.7534   -3.3252    0.0000 I   0  0  0  0  0  0  0  0  0  0  0  0
    4.5940   -5.3159    0.0000 N   0  0  0  0  0  0  0  0  0  0  0  0
    5.7534   -7.3066    0.0000 O   0  0  0  0  0  0  0  0  0  0  0  0
    9.2098   -1.3344    0.0000 N   0  0  0  0  0  0  0  0  0  0  0  0
    6.9128   -1.3344    0.0000 O   0  0  0  0  0  0  0  0  0  0  0  0
   13.8257   -7.9848    0.0000 N   0  0  0  0  0  0  0  0  0  0  0  0
    3.4564   -5.9722    0.0000 C   0  0  0  0  0  0  0  0  0  0  0  0
   10.3474   -1.9907    0.0000 C   0  0  0  0  0  0  0  0  0  0  0  0
   13.8257   -9.3192    0.0000 C   0  0  0  0  0  0  0  0  0  0  0  0
   14.9632   -7.3066    0.0000 C   0  0  0  0  0  0  0  0  0  0  0  0
    2.2970   -5.3159    0.0000 C   0  0  0  0  0  0  0  0  0  0  0  0
   11.5068   -1.3344    0.0000 C   0  0  0  0  0  0  0  0  0  0  0  0
   14.9632   -9.9755    0.0000 C   0  0  0  0  0  0  0  0  0  0  0  0
   12.6662   -9.9755    0.0000 C   0  0  0  0  0  0  0  0  0  0  0  0
   16.1227   -7.9848    0.0000 C   0  0  0  0  0  0  0  0  0  0  0  0
   14.9632   -5.9722    0.0000 O   0  0  0  0  0  0  0  0  0  0  0  0
    1.1157   -5.9722    0.0000 C   0  0  0  0  0  0  0  0  0  0  0  0
    2.2970   -3.9814    0.0000 O   0  0  0  0  0  0  0  0  0  0  0  0
   12.6662   -1.9907    0.0000 C   0  0  0  0  0  0  0  0  0  0  0  0
   11.5068    0.0000    0.0000 O   0  0  0  0  0  0  0  0  0  0  0  0
   14.9632  -11.2880    0.0000 C   0  0  0  0  0  0  0  0  0  0  0  0
   16.1227   -9.3192    0.0000 I   0  0  0  0  0  0  0  0  0  0  0  0
   12.6662  -11.2880    0.0000 C   0  0  0  0  0  0  0  0  0  0  0  0
   11.5068   -9.3192    0.0000 I   0  0  0  0  0  0  0  0  0  0  0  0
    0.0000   -5.3159    0.0000 O   0  0  0  0  0  0  0  0  0  0  0  0
   13.8257   -1.3344    0.0000 O   0  0  0  0  0  0  0  0  0  0  0  0
   13.8257  -11.9662    0.0000 C   0  0  0  0  0  0  0  0  0  0  0  0
   16.1227  -11.9662    0.0000 C   0  0  0  0  0  0  0  0  0  0  0  0
   11.5068  -11.9662    0.0000 C   0  0  0  0  0  0  0  0  0  0  0  0
   13.8257  -13.3006    0.0000 I   0  0  0  0  0  0  0  0  0  0  0  0
   17.2821  -11.2880    0.0000 N   0  0  0  0  0  0  0  0  0  0  0  0
   16.1227  -13.3006    0.0000 O   0  0  0  0  0  0  0  0  0  0  0  0
   10.3474  -11.2880    0.0000 N   0  0  0  0  0  0  0  0  0  0  0  0
   11.5068  -13.3006    0.0000 O   0  0  0  0  0  0  0  0  0  0  0  0
   18.4196  -11.9662    0.0000 C   0  0  0  0  0  0  0  0  0  0  0  0
    9.2098  -11.9662    0.0000 C   0  0  0  0  0  0  0  0  0  0  0  0
   19.5791  -11.2880    0.0000 C   0  0  0  0  0  0  0  0  0  0  0  0
    8.0504  -11.2880    0.0000 C   0  0  0  0  0  0  0  0  0  0  0  0
   20.7166  -11.9662    0.0000 C   0  0  0  0  0  0  0  0  0  0  0  0
   19.5791   -9.9755    0.0000 O   0  0  0  0  0  0  0  0  0  0  0  0
    6.9128  -11.9662    0.0000 C   0  0  0  0  0  0  0  0  0  0  0  0
    8.0504   -9.9755    0.0000 O   0  0  0  0  0  0  0  0  0  0  0  0
   21.8761  -11.2880    0.0000 O   0  0  0  0  0  0  0  0  0  0  0  0
    5.7534  -11.2880    0.0000 O   0  0  0  0  0  0  0  0  0  0  0  0
  1  2  1  0  0  0  0
  1  3  1  0  0  0  0
  1  4  2  0  0  0  0
  2  5  1  0  0  0  0
  2  6  1  0  0  0  0
  3  7  2  0  0  0  0
  3  8  1  0  0  0  0
  4  9  1  0  0  0  0
  4 10  1  0  0  0  0
  5 11  1  0  0  0  0
  6 12  1  0  0  0  0
  6 13  2  0  0  0  0
  7 14  1  0  0  0  0
  7 15  1  0  0  0  0
  9 16  1  0  0  0  0
  9 14  2  0  0  0  0
 11 17  1  0  0  0  0
 11 18  1  0  0  0  0
 14 19  1  0  0  0  0
 15 20  1  0  0  0  0
 15 21  2  0  0  0  0
 16 22  1  0  0  0  0
 16 23  2  0  0  0  0
 17 24  1  0  0  0  0
 20 25  1  0  0  0  0
 22 26  1  0  0  0  0
 24 27  1  0  0  0  0
 24 28  1  0  0  0  0
 25 29  1  0  0  0  0
 26 30  1  0  0  0  0
 27 31  1  0  0  0  0
 27 32  2  0  0  0  0
 28 33  1  0  0  0  0
 28 34  2  0  0  0  0
 29 35  1  0  0  0  0
 29 36  1  0  0  0  0
 30 37  1  0  0  0  0
 30 38  1  0  0  0  0
 31 39  2  0  0  0  0
 31 40  1  0  0  0  0
 32 41  1  0  0  0  0
 32 42  1  0  0  0  0
 35 43  1  0  0  0  0
 37 44  1  0  0  0  0
 39 45  1  0  0  0  0
 39 46  1  0  0  0  0
 41 47  1  0  0  0  0
 41 45  2  0  0  0  0
 45 48  1  0  0  0  0
 46 49  1  0  0  0  0
 46 50  2  0  0  0  0
 47 51  1  0  0  0  0
 47 52  2  0  0  0  0
 49 53  1  0  0  0  0
 51 54  1  0  0  0  0
 53 55  1  0  0  0  0
 54 56  1  0  0  0  0
 55 57  1  0  0  0  0
 55 58  1  0  0  0  0
 56 59  1  0  0  0  0
 56 60  1  0  0  0  0
 57 61  1  0  0  0  0
 59 62  1  0  0  0  0
M  END
> <ID>
10997

> <Formula>
C35H44I6N6O15

> <FW>
1550.1819

> <DSSTox_CID>
25523

> <DSSTox_RID>
80929

> <DSSTox_GSID>
45523

> <DSSTox_FileID_Sort>
5610

> <TS_ChemName>
Iodixanol

> <TS_ChemName_Synonyms>


> <TS_CASRN>
92339-11-2

> <CASRN_ChemName_Relationship>
primary

> <TS_Description>
single chemical compound

> <ChemNote>


> <STRUCTURE_Shown>
tested chemical

> <STRUCTURE_Formula>
C35H44I6N6O15

> <STRUCTURE_MW>
1550.1819

> <STRUCTURE_ChemType>
defined organic

> <STRUCTURE_DefinedOrganicForm>
parent

> <STRUCTURE_IUPAC>
5,5'-[(2-hydroxypropane-1,3-diyl)bis(acetylimino)]bis[N,N'-bis(2,3-dihydroxypropyl)-2,4,6-triiodobenzene-1,3-dicarboxamide]

> <STRUCTURE_SMILES>
OCC(O)CNC(=O)c1c(I)c(c(I)c(C(=O)NCC(O)CO)c1I)N(CC(O)CN(C(C)=O)c2c(I)c(c(I)c(c2I)C(=O)NCC(O)CO)C(=O)NCC(O)CO)C(C)=O

> <STRUCTURE_SMILES_Desalt>
OCC(O)CNC(=O)c1c(I)c(c(I)c(C(=O)NCC(O)CO)c1I)N(CC(O)CN(C(C)=O)c2c(I)c(c(I)c(c2I)C(=O)NCC(O)CO)C(=O)NCC(O)CO)C(C)=O

> <Substance_modify_yyyymmdd>
20100107

$$$$
