926-57-8
ChemmineR-0915142007XD

  6  5  0  0  0  0  0  0  0  0  1 V2000
    1.3289    0.0000    0.0000 C    0  0  0  0  0  0  0  0  0  0  0  0
    2.0034   -1.1533    0.0000 C    0  0  0  0  0  0  0  0  0  0  0  0
    3.3323   -1.1533    0.0000 C    0  0  0  0  0  0  0  0  0  0  0  0
    3.9907   -2.3066    0.0000 C    0  0  0  0  0  0  0  0  0  0  0  0
    0.0000    0.0000    0.0000 Cl   0  0  0  0  0  0  0  0  0  0  0  0
    3.9907    0.0000    0.0000 Cl   0  0  0  0  0  0  0  0  0  0  0  0
  1  2  1  0  0  0  0
  1  5  1  0  0  0  0
  2  3  2  0  0  0  0
  3  4  1  0  0  0  0
  3  6  1  0  0  0  0
M  END
> <ID>
5087

> <Formula>
C4H6Cl2

> <FW>
124.9964

> <DSSTox_CID>
7338

> <DSSTox_RID>
78413

> <DSSTox_GSID>
27338

> <DSSTox_FileID_Sort>
3096

> <TS_ChemName>
1,3-Dichloro-2-butene

> <TS_ChemName_Synonyms>


> <TS_CASRN>
926-57-8

> <CASRN_ChemName_Relationship>
primary

> <TS_Description>
mixture or formulation

> <ChemNote>
mixture of Z,E isomers; structure shown Z; stereochem

> <STRUCTURE_Shown>
representative isomer in mixture

> <STRUCTURE_Formula>
C4H6Cl2

> <STRUCTURE_MW>
124.9964

> <STRUCTURE_ChemType>
defined organic

> <STRUCTURE_DefinedOrganicForm>
parent

> <STRUCTURE_IUPAC>
(2Z)-1,3-dichlorobut-2-ene

> <STRUCTURE_SMILES>
C\C(Cl)=C\CCl

> <STRUCTURE_SMILES_Desalt>
C\C(Cl)=C\CCl

> <Substance_modify_yyyymmdd>
20080429

$$$$
