92623-83-1
ChemmineR-0915142007XD

 28 31  0  0  0  0  0  0  0  0  1 V2000
    3.9876   -9.0618    0.0000 C   0  0  0  0  0  0  0  0  0  0  0  0
    3.1075  -10.0505    0.0000 O   0  0  0  0  0  0  0  0  0  0  0  0
    3.5639   -5.6500    0.0000 N   0  0  0  0  0  0  0  0  0  0  0  0
    4.3570   -6.7257    0.0000 C   0  0  0  0  0  0  0  0  0  0  0  0
    3.5639   -7.7905    0.0000 C   0  0  0  0  0  0  0  0  0  0  0  0
    2.3035   -7.3885    0.0000 C   0  0  0  0  0  0  0  0  0  0  0  0
    1.1517   -8.0513    0.0000 C   0  0  0  0  0  0  0  0  0  0  0  0
    0.0000   -7.3885    0.0000 C   0  0  0  0  0  0  0  0  0  0  0  0
    0.0000   -6.0629    0.0000 C   0  0  0  0  0  0  0  0  0  0  0  0
    1.1517   -5.3893    0.0000 C   0  0  0  0  0  0  0  0  0  0  0  0
    2.3035   -6.0629    0.0000 C   0  0  0  0  0  0  0  0  0  0  0  0
    3.9224   -4.3245    0.0000 C   0  0  0  0  0  0  0  0  0  0  0  0
    5.1828   -3.9007    0.0000 C   0  0  0  0  0  0  0  0  0  0  0  0
    6.9756   -0.8910    0.0000 C   0  0  0  0  0  0  0  0  0  0  0  0
    6.7257   -2.1948    0.0000 C   0  0  0  0  0  0  0  0  0  0  0  0
    5.4545   -2.6077    0.0000 N   0  0  0  0  0  0  0  0  0  0  0  0
    4.4657   -1.7167    0.0000 C   0  0  0  0  0  0  0  0  0  0  0  0
    4.7373   -0.4129    0.0000 C   0  0  0  0  0  0  0  0  0  0  0  0
    5.9977    0.0000    0.0000 O   0  0  0  0  0  0  0  0  0  0  0  0
    5.6609   -6.7040    0.0000 C   0  0  0  0  0  0  0  0  0  0  0  0
    5.2806   -9.3334    0.0000 C   0  0  0  0  0  0  0  0  0  0  0  0
    6.1716   -8.3338    0.0000 C   0  0  0  0  0  0  0  0  0  0  0  0
    7.4754   -8.6054    0.0000 C   0  0  0  0  0  0  0  0  0  0  0  0
    7.8883   -9.8767    0.0000 C   0  0  0  0  0  0  0  0  0  0  0  0
    6.9974  -10.8655    0.0000 C   0  0  0  0  0  0  0  0  0  0  0  0
    5.6935  -10.5938    0.0000 C   0  0  0  0  0  0  0  0  0  0  0  0
    9.1813  -10.1483    0.0000 O   0  0  0  0  0  0  0  0  0  0  0  0
   10.0614   -9.1487    0.0000 C   0  0  0  0  0  0  0  0  0  0  0  0
  1  2  2  0  0  0  0
  1  5  1  0  0  0  0
  1 21  1  0  0  0  0
  3  4  1  0  0  0  0
  3 11  1  0  0  0  0
  3 12  1  0  0  0  0
  4  5  2  0  0  0  0
  4 20  1  0  0  0  0
  5  6  1  0  0  0  0
  6  7  1  0  0  0  0
  6 11  2  0  0  0  0
  7  8  2  0  0  0  0
  8  9  1  0  0  0  0
  9 10  2  0  0  0  0
 10 11  1  0  0  0  0
 12 13  1  0  0  0  0
 13 16  1  0  0  0  0
 14 15  1  0  0  0  0
 14 19  1  0  0  0  0
 15 16  1  0  0  0  0
 16 17  1  0  0  0  0
 17 18  1  0  0  0  0
 18 19  1  0  0  0  0
 21 22  1  0  0  0  0
 21 26  2  0  0  0  0
 22 23  2  0  0  0  0
 23 24  1  0  0  0  0
 24 25  2  0  0  0  0
 24 27  1  0  0  0  0
 25 26  1  0  0  0  0
 27 28  1  0  0  0  0
M  END
> <ID>
11429

> <Formula>
C23H26N2O3

> <FW>
378.4641

> <DSSTox_CID>
26127

> <DSSTox_RID>
81361

> <DSSTox_GSID>
46127

> <DSSTox_FileID_Sort>
6042

> <TS_ChemName>
Pravadoline

> <TS_ChemName_Synonyms>


> <TS_CASRN>
92623-83-1

> <CASRN_ChemName_Relationship>
primary

> <TS_Description>
single chemical compound

> <ChemNote>


> <STRUCTURE_Shown>
tested chemical

> <STRUCTURE_Formula>
C23H26N2O3

> <STRUCTURE_MW>
378.4641

> <STRUCTURE_ChemType>
defined organic

> <STRUCTURE_DefinedOrganicForm>
parent

> <STRUCTURE_IUPAC>
(4-methoxyphenyl){2-methyl-1-[2-(morpholin-4-yl)ethyl]-1H-indol-3-yl}methanone

> <STRUCTURE_SMILES>
COc1ccc(cc1)C(=O)c3c4ccccc4n(CCN2CCOCC2)c3C

> <STRUCTURE_SMILES_Desalt>
COc1ccc(cc1)C(=O)c3c4ccccc4n(CCN2CCOCC2)c3C

> <Substance_modify_yyyymmdd>
20110818

$$$$
