927-19-5
ChemmineR-0915142007XD

 12  9  0  0  0  0  0  0  0  0  2 V2000
    8.7702   -2.3066    0.0000 K   0  3  0  0  0  0  0  0  0  0  0  0
    8.6298   -0.2105    0.0000 K   0  3  0  0  0  0  0  0  0  0  0  0
    2.2715   -1.8242    0.0000 C   0  0  0  0  0  0  0  0  0  0  0  0
    2.2715   -3.1660    0.0000 O   0  0  0  0  0  0  0  0  0  0  0  0
    0.0000   -1.8242    0.0000 O   0  0  0  0  0  0  0  0  0  0  0  0
    4.5693   -1.8242    0.0000 O   0  0  0  0  0  0  0  0  0  0  0  0
    3.4379   -1.1401    0.0000 C   0  0  0  0  0  0  0  0  0  0  0  0
    1.1314   -1.1401    0.0000 C   0  0  0  0  0  0  0  0  0  0  0  0
    5.7006   -1.1840    0.0000 P   0  0  0  0  0  0  0  0  0  0  0  0
    6.8407   -0.4999    0.0000 O   0  5  0  0  0  0  0  0  0  0  0  0
    5.0604    0.0000    0.0000 O   0  0  0  0  0  0  0  0  0  0  0  0
    6.3935   -2.3153    0.0000 O   0  5  0  0  0  0  0  0  0  0  0  0
  3  4  1  0  0  0  0
  3  7  1  0  0  0  0
  3  8  1  0  0  0  0
  5  8  1  0  0  0  0
  6  7  1  0  0  0  0
  6  9  1  0  0  0  0
  9 10  1  0  0  0  0
  9 11  2  0  0  0  0
  9 12  1  0  0  0  0
M  END
> <ID>
13613

> <Formula>
C3H7K2O6P

> <FW>
248.2544 (39.0978+39.0978+170.0589)

> <DSSTox_CID>
28542

> <DSSTox_RID>
82814

> <DSSTox_GSID>
48616

> <DSSTox_FileID_Sort>
7491

> <TS_ChemName>
Dipotassium glycerophosphate

> <TS_ChemName_Synonyms>
POTASSIUM GLYCEROPHOSPHATE

> <TS_CASRN>
927-19-5

> <CASRN_ChemName_Relationship>
primary

> <TS_Description>
single chemical compound

> <ChemNote>
parent [57-03-4]

> <STRUCTURE_Shown>
tested chemical

> <STRUCTURE_Formula>
C3H7K2O6P

> <STRUCTURE_MW>
248.2544

> <STRUCTURE_ChemType>
defined organic

> <STRUCTURE_DefinedOrganicForm>
salt

> <STRUCTURE_IUPAC>
dipotassium 2,3-dihydroxypropyl phosphate

> <STRUCTURE_SMILES>
[K+].[K+].[O-]P([O-])(=O)OCC(O)CO

> <STRUCTURE_SMILES_Desalt>
O=P(O)(O)OCC(O)CO

> <Substance_modify_yyyymmdd>
20111015

$$$$
