928-95-0
ChemmineR-0915142007XD

  7  6  0  0  0  0  0  0  0  0  1 V2000
    1.1597    0.0000    0.0000 C   0  0  0  0  0  0  0  0  0  0  0  0
    2.3334   -0.6427    0.0000 C   0  0  0  0  0  0  0  0  0  0  0  0
    3.4931    0.0000    0.0000 C   0  0  0  0  0  0  0  0  0  0  0  0
    4.6529   -0.6427    0.0000 C   0  0  0  0  0  0  0  0  0  0  0  0
    5.8266    0.0000    0.0000 C   0  0  0  0  0  0  0  0  0  0  0  0
    6.9863   -0.6427    0.0000 C   0  0  0  0  0  0  0  0  0  0  0  0
    0.0000   -0.6427    0.0000 O   0  0  0  0  0  0  0  0  0  0  0  0
  1  2  1  0  0  0  0
  1  7  1  0  0  0  0
  2  3  2  0  0  0  0
  3  4  1  0  0  0  0
  4  5  1  0  0  0  0
  5  6  1  0  0  0  0
M  END
> <ID>
12216

> <Formula>
C6H12O

> <FW>
100.1589

> <DSSTox_CID>
27062

> <DSSTox_RID>
82079

> <DSSTox_GSID>
47062

> <DSSTox_FileID_Sort>
6760

> <TS_ChemName>
(E)-2-Hexen-1-ol

> <TS_ChemName_Synonyms>
trans-2-Hexen-1-ol

> <TS_CASRN>
928-95-0

> <CASRN_ChemName_Relationship>
primary

> <TS_Description>
single chemical compound

> <ChemNote>
stereochem

> <STRUCTURE_Shown>
tested chemical

> <STRUCTURE_Formula>
C6H12O

> <STRUCTURE_MW>
100.1589

> <STRUCTURE_ChemType>
defined organic

> <STRUCTURE_DefinedOrganicForm>
parent

> <STRUCTURE_IUPAC>
(2E)-hex-2-en-1-ol

> <STRUCTURE_SMILES>
CCC\C=C\CO

> <STRUCTURE_SMILES_Desalt>
CCC\C=C\CO

> <Substance_modify_yyyymmdd>
20100429

$$$$
