929-06-6
ChemmineR-0915142007XD

  7  6  0  0  0  0  0  0  0  0  1 V2000
    1.1578    0.0000    0.0000 C   0  0  0  0  0  0  0  0  0  0  0  0
    2.3086   -0.6586    0.0000 C   0  0  0  0  0  0  0  0  0  0  0  0
    0.0000   -0.6586    0.0000 O   0  0  0  0  0  0  0  0  0  0  0  0
    3.4664    0.0000    0.0000 O   0  0  0  0  0  0  0  0  0  0  0  0
    4.6242   -0.6586    0.0000 C   0  0  0  0  0  0  0  0  0  0  0  0
    5.7751    0.0000    0.0000 C   0  0  0  0  0  0  0  0  0  0  0  0
    6.9328   -0.6586    0.0000 N   0  0  0  0  0  0  0  0  0  0  0  0
  1  2  1  0  0  0  0
  1  3  1  0  0  0  0
  2  4  1  0  0  0  0
  4  5  1  0  0  0  0
  5  6  1  0  0  0  0
  6  7  1  0  0  0  0
M  END
> <ID>
5090

> <Formula>
C4H11NO2

> <FW>
105.1356

> <DSSTox_CID>
7341

> <DSSTox_RID>
78414

> <DSSTox_GSID>
27341

> <DSSTox_FileID_Sort>
3097

> <TS_ChemName>
2-(2-Aminoethoxy)ethanol

> <TS_ChemName_Synonyms>


> <TS_CASRN>
929-06-6

> <CASRN_ChemName_Relationship>
primary

> <TS_Description>
single chemical compound

> <ChemNote>


> <STRUCTURE_Shown>
tested chemical

> <STRUCTURE_Formula>
C4H11NO2

> <STRUCTURE_MW>
105.1356

> <STRUCTURE_ChemType>
defined organic

> <STRUCTURE_DefinedOrganicForm>
parent

> <STRUCTURE_IUPAC>
2-(2-aminoethoxy)ethanol

> <STRUCTURE_SMILES>
NCCOCCO

> <STRUCTURE_SMILES_Desalt>
NCCOCCO

> <Substance_modify_yyyymmdd>
20080429

$$$$
