929-59-9
ChemmineR-0915142007XD

 10  9  0  0  0  0  0  0  0  0  1 V2000
    9.2085   -0.8617    0.0000 C   0  0  0  0  0  0  0  0  0  0  0  0
    8.0769   -0.1765    0.0000 C   0  0  0  0  0  0  0  0  0  0  0  0
   10.3817   -0.2388    0.0000 N   0  0  0  0  0  0  0  0  0  0  0  0
    1.1731    0.0000    0.0000 C   0  0  0  0  0  0  0  0  0  0  0  0
    2.3047   -0.6852    0.0000 C   0  0  0  0  0  0  0  0  0  0  0  0
    0.0000   -0.6229    0.0000 N   0  0  0  0  0  0  0  0  0  0  0  0
    4.6095   -0.7475    0.0000 C   0  0  0  0  0  0  0  0  0  0  0  0
    5.7722   -0.1038    0.0000 C   0  0  0  0  0  0  0  0  0  0  0  0
    3.4779   -0.0415    0.0000 O   0  0  0  0  0  0  0  0  0  0  0  0
    6.9038   -0.8098    0.0000 O   0  0  0  0  0  0  0  0  0  0  0  0
  1  2  1  0  0  0  0
  1  3  1  0  0  0  0
  2 10  1  0  0  0  0
  4  5  1  0  0  0  0
  4  6  1  0  0  0  0
  5  9  1  0  0  0  0
  7  8  1  0  0  0  0
  7  9  1  0  0  0  0
  8 10  1  0  0  0  0
M  END
> <ID>
10394

> <Formula>
C6H16N2O2

> <FW>
148.2034

> <DSSTox_CID>
24742

> <DSSTox_RID>
80436

> <DSSTox_GSID>
44742

> <DSSTox_FileID_Sort>
5118

> <TS_ChemName>
2,2'-[Ethane-1,2-diylbis(oxy)]diethanamine

> <TS_ChemName_Synonyms>
2,2'-[Ethane-1,2-diylbis(oxy)]diethanamine (Ethanamine, 2,2'-[1,2-ethanediylbis(oxy)]bis-)

> <TS_CASRN>
929-59-9

> <CASRN_ChemName_Relationship>
primary

> <TS_Description>
single chemical compound

> <ChemNote>


> <STRUCTURE_Shown>
tested chemical

> <STRUCTURE_Formula>
C6H16N2O2

> <STRUCTURE_MW>
148.2034

> <STRUCTURE_ChemType>
defined organic

> <STRUCTURE_DefinedOrganicForm>
parent

> <STRUCTURE_IUPAC>
2,2'-[ethane-1,2-diylbis(oxy)]diethanamine

> <STRUCTURE_SMILES>
NCCOCCOCCN

> <STRUCTURE_SMILES_Desalt>
NCCOCCOCCN

> <Substance_modify_yyyymmdd>
20091116

$$$$
