929-73-7
ChemmineR-0915142007XD

 14 12  0  0  0  0  0  0  0  0  1 V2000
    0.0000   -0.6638    0.0000 C    0  0  0  0  0  0  0  0  0  0  0  0
    1.1479    0.0000    0.0000 C    0  0  0  0  0  0  0  0  0  0  0  0
    2.3096   -0.6638    0.0000 C    0  0  0  0  0  0  0  0  0  0  0  0
    3.4575    0.0000    0.0000 C    0  0  0  0  0  0  0  0  0  0  0  0
    4.6053   -0.6638    0.0000 C    0  0  0  0  0  0  0  0  0  0  0  0
    5.7670    0.0000    0.0000 C    0  0  0  0  0  0  0  0  0  0  0  0
    6.9149   -0.6638    0.0000 C    0  0  0  0  0  0  0  0  0  0  0  0
    8.0628    0.0000    0.0000 C    0  0  0  0  0  0  0  0  0  0  0  0
    9.2245   -0.6638    0.0000 C    0  0  0  0  0  0  0  0  0  0  0  0
   10.3724    0.0000    0.0000 C    0  0  0  0  0  0  0  0  0  0  0  0
   11.5202   -0.6638    0.0000 C    0  0  0  0  0  0  0  0  0  0  0  0
   12.6819    0.0000    0.0000 C    0  0  0  0  0  0  0  0  0  0  0  0
   13.8298   -0.6638    0.0000 N    0  0  0  0  0  0  0  0  0  0  0  0
    8.0489   -1.7287    0.0000 Cl   0  0  0  0  0  0  0  0  0  0  0  0
  1  2  1  0  0  0  0
  2  3  1  0  0  0  0
  3  4  1  0  0  0  0
  4  5  1  0  0  0  0
  5  6  1  0  0  0  0
  6  7  1  0  0  0  0
  7  8  1  0  0  0  0
  8  9  1  0  0  0  0
  9 10  1  0  0  0  0
 10 11  1  0  0  0  0
 11 12  1  0  0  0  0
 12 13  1  0  0  0  0
M  END
> <ID>
9986

> <Formula>
C12H28ClN

> <FW>
221.8104 (185.3495+36.4609)

> <DSSTox_CID>
24322

> <DSSTox_RID>
80153

> <DSSTox_GSID>
44322

> <DSSTox_FileID_Sort>
4835

> <TS_ChemName>
Dodecylamine hydrochloride

> <TS_ChemName_Synonyms>
Dodecylamine hydrochloride (Dodecan-1-amine hydrochloride)

> <TS_CASRN>
929-73-7

> <CASRN_ChemName_Relationship>
primary

> <TS_Description>
single chemical compound

> <ChemNote>
parent [124-22-1]

> <STRUCTURE_Shown>
tested chemical

> <STRUCTURE_Formula>
C12H28ClN

> <STRUCTURE_MW>
221.8104

> <STRUCTURE_ChemType>
defined organic

> <STRUCTURE_DefinedOrganicForm>
complex

> <STRUCTURE_IUPAC>
dodecan-1-amine hydrochloride (1:1)

> <STRUCTURE_SMILES>
Cl.CCCCCCCCCCCCN

> <STRUCTURE_SMILES_Desalt>
CCCCCCCCCCCCN

> <Substance_modify_yyyymmdd>
20090518

$$$$
