92953-10-1
ChemmineR-0915142007XD

 34 34  0  0  0  0  0  0  0  0  2 V2000
    0.0000   -3.4180    0.0000 C    0  0  0  0  0  0  0  0  0  0  0  0
    1.1566   -2.7448    0.0000 C    0  0  0  0  0  0  0  0  0  0  0  0
    2.3132   -3.4007    0.0000 C    0  0  0  0  0  0  0  0  0  0  0  0
    3.4525   -2.7275    0.0000 C    0  0  0  0  0  0  0  0  0  0  0  0
    4.6091   -3.3835    0.0000 C    0  0  0  0  0  0  0  0  0  0  0  0
    5.7657   -2.7102    0.0000 C    0  0  0  0  0  0  0  0  0  0  0  0
    6.9223   -3.3662    0.0000 C    0  0  0  0  0  0  0  0  0  0  0  0
    8.0617   -2.7102    0.0000 N    0  3  0  0  0  0  0  0  0  0  0  0
    8.7349   -3.8496    0.0000 C    0  0  0  0  0  0  0  0  0  0  0  0
   10.0641   -3.8496    0.0000 C    0  0  0  0  0  0  0  0  0  0  0  0
    7.4057   -1.5536    0.0000 C    0  0  0  0  0  0  0  0  0  0  0  0
    6.0765   -1.5536    0.0000 C    0  0  0  0  0  0  0  0  0  0  0  0
    9.2010   -2.0370    0.0000 C    0  0  0  0  0  0  0  0  0  0  0  0
   10.3576   -2.6930    0.0000 C    0  0  0  0  0  0  0  0  0  0  0  0
   11.5142   -2.0197    0.0000 C    0  0  0  0  0  0  0  0  0  0  0  0
   12.6708   -2.6757    0.0000 C    0  0  0  0  0  0  0  0  0  0  0  0
   13.8274   -2.0025    0.0000 C    0  0  0  0  0  0  0  0  0  0  0  0
   13.8101   -0.6732    0.0000 C    0  0  0  0  0  0  0  0  0  0  0  0
   14.9495    0.0000    0.0000 C    0  0  0  0  0  0  0  0  0  0  0  0
   16.1061   -0.6732    0.0000 C    0  0  0  0  0  0  0  0  0  0  0  0
   17.2627    0.0000    0.0000 Cl   0  0  0  0  0  0  0  0  0  0  0  0
   16.1061   -2.0025    0.0000 C    0  0  0  0  0  0  0  0  0  0  0  0
   14.9667   -2.6584    0.0000 C    0  0  0  0  0  0  0  0  0  0  0  0
   15.2429  -10.6683    0.0000 C    0  0  0  0  0  0  0  0  0  0  0  0
   15.2429   -9.3218    0.0000 C    0  0  0  0  0  0  0  0  0  0  0  0
   16.3995   -8.6659    0.0000 C    0  0  0  0  0  0  0  0  0  0  0  0
   16.3995   -7.3366    0.0000 C    0  0  0  0  0  0  0  0  0  0  0  0
   15.2429   -6.6634    0.0000 C    0  0  0  0  0  0  0  0  0  0  0  0
   14.0863   -7.3366    0.0000 C    0  0  0  0  0  0  0  0  0  0  0  0
   14.0863   -8.6659    0.0000 C    0  0  0  0  0  0  0  0  0  0  0  0
   15.2429   -5.3514    0.0000 S    0  0  0  0  0  0  0  0  0  0  0  0
   15.2429   -4.0049    0.0000 O    0  5  0  0  0  0  0  0  0  0  0  0
   16.5549   -5.3514    0.0000 O    0  0  0  0  0  0  0  0  0  0  0  0
   13.8964   -5.3514    0.0000 O    0  0  0  0  0  0  0  0  0  0  0  0
  1  2  1  0  0  0  0
  2  3  1  0  0  0  0
  3  4  1  0  0  0  0
  4  5  1  0  0  0  0
  5  6  1  0  0  0  0
  6  7  1  0  0  0  0
  7  8  1  0  0  0  0
  8  9  1  0  0  0  0
  8 11  1  0  0  0  0
  8 13  1  0  0  0  0
  9 10  1  0  0  0  0
 11 12  1  0  0  0  0
 13 14  1  0  0  0  0
 14 15  1  0  0  0  0
 15 16  1  0  0  0  0
 16 17  1  0  0  0  0
 17 18  2  0  0  0  0
 17 23  1  0  0  0  0
 18 19  1  0  0  0  0
 19 20  2  0  0  0  0
 20 21  1  0  0  0  0
 20 22  1  0  0  0  0
 22 23  2  0  0  0  0
 24 25  1  0  0  0  0
 25 26  2  0  0  0  0
 25 30  1  0  0  0  0
 26 27  1  0  0  0  0
 27 28  2  0  0  0  0
 28 29  1  0  0  0  0
 28 31  1  0  0  0  0
 29 30  2  0  0  0  0
 31 32  1  0  0  0  0
 31 33  2  0  0  0  0
 31 34  2  0  0  0  0
M  END
> <ID>
11062

> <Formula>
C28H44ClNO3S

> <FW>
510.1719 (338.9776+171.1942)

> <DSSTox_CID>
25601

> <DSSTox_RID>
80994

> <DSSTox_GSID>
45601

> <DSSTox_FileID_Sort>
5675

> <TS_ChemName>
Clofilium tosylate

> <TS_ChemName_Synonyms>


> <TS_CASRN>
92953-10-1

> <CASRN_ChemName_Relationship>
primary

> <TS_Description>
single chemical compound

> <ChemNote>
parent [68379-02-2]

> <STRUCTURE_Shown>
tested chemical

> <STRUCTURE_Formula>
C28H44ClNO3S

> <STRUCTURE_MW>
510.1719

> <STRUCTURE_ChemType>
defined organic

> <STRUCTURE_DefinedOrganicForm>
complex

> <STRUCTURE_IUPAC>
N-[4-(4-chlorophenyl)butyl]-N,N-diethylheptan-1-aminium 4-methylbenzenesulfonate

> <STRUCTURE_SMILES>
Clc1ccc(CCCC[N+](CC)(CC)CCCCCCC)cc1.[O-]S(=O)(=O)c1ccc(C)cc1

> <STRUCTURE_SMILES_Desalt>
Clc1ccc(CCCC[N+](CC)(CC)CCCCCCC)cc1

> <Substance_modify_yyyymmdd>
20100107

$$$$
