929601-09-2
ChemmineR-0915142007XD

 29 30  0  0  0  0  0  0  0  0  1 V2000
   10.3348   -2.0123    0.0000 C    0  0  0  0  0  0  0  0  0  0  0  0
   10.3348   -3.3212    0.0000 C    0  0  0  0  0  0  0  0  0  0  0  0
    9.2017   -1.3285    0.0000 C    0  0  0  0  0  0  0  0  0  0  0  0
    9.2017   -3.9854    0.0000 C    0  0  0  0  0  0  0  0  0  0  0  0
    8.0490   -2.0123    0.0000 C    0  0  0  0  0  0  0  0  0  0  0  0
    8.0490   -3.3212    0.0000 C    0  0  0  0  0  0  0  0  0  0  0  0
   11.4874   -1.3285    0.0000 C    0  0  0  0  0  0  0  0  0  0  0  0
   12.6401   -2.0123    0.0000 C    0  0  0  0  0  0  0  0  0  0  0  0
   11.4874   -3.9854    0.0000 C    0  0  0  0  0  0  0  0  0  0  0  0
   12.6401   -3.3212    0.0000 C    0  0  0  0  0  0  0  0  0  0  0  0
    6.8964   -1.3285    0.0000 N    0  0  0  0  0  0  0  0  0  0  0  0
    5.7437   -2.0123    0.0000 C    0  0  0  0  0  0  0  0  0  0  0  0
    4.5911   -1.3285    0.0000 C    0  0  0  0  0  0  0  0  0  0  0  0
    3.4579   -2.0123    0.0000 C    0  0  0  0  0  0  0  0  0  0  0  0
    4.5911    0.0000    0.0000 O    0  0  0  0  0  0  0  0  0  0  0  0
    3.4579   -3.3212    0.0000 C    0  0  0  0  0  0  0  0  0  0  0  0
    2.3053   -1.3285    0.0000 C    0  0  0  0  0  0  0  0  0  0  0  0
    2.3053   -3.9854    0.0000 C    0  0  0  0  0  0  0  0  0  0  0  0
    1.1526   -2.0123    0.0000 C    0  0  0  0  0  0  0  0  0  0  0  0
    1.1526   -3.3212    0.0000 C    0  0  0  0  0  0  0  0  0  0  0  0
    0.0000   -1.3285    0.0000 Cl   0  0  0  0  0  0  0  0  0  0  0  0
   13.7927   -1.3285    0.0000 O    0  0  0  0  0  0  0  0  0  0  0  0
   14.9258   -2.0123    0.0000 C    0  0  0  0  0  0  0  0  0  0  0  0
   16.0785   -1.3285    0.0000 C    0  0  0  0  0  0  0  0  0  0  0  0
   17.2311   -2.0123    0.0000 O    0  0  0  0  0  0  0  0  0  0  0  0
   18.3838   -1.3285    0.0000 C    0  0  0  0  0  0  0  0  0  0  0  0
   19.5364   -2.0123    0.0000 C    0  0  0  0  0  0  0  0  0  0  0  0
   16.0785    0.0000    0.0000 O    0  0  0  0  0  0  0  0  0  0  0  0
    5.9586   -4.7473    0.0000 Cl   0  0  0  0  0  0  0  0  0  0  0  0
  1  3  1  0  0  0  0
  1  7  1  0  0  0  0
  1  2  2  0  0  0  0
  2  4  1  0  0  0  0
  2  9  1  0  0  0  0
  3  5  1  0  0  0  0
  4  6  1  0  0  0  0
  5  6  1  0  0  0  0
  5 11  1  0  0  0  0
  7  8  2  0  0  0  0
  8 10  1  0  0  0  0
  8 22  1  0  0  0  0
  9 10  2  0  0  0  0
 11 12  1  0  0  0  0
 12 13  1  0  0  0  0
 13 14  1  0  0  0  0
 13 15  1  0  0  0  0
 14 16  1  0  0  0  0
 14 17  2  0  0  0  0
 16 18  2  0  0  0  0
 17 19  1  0  0  0  0
 18 20  1  0  0  0  0
 19 20  2  0  0  0  0
 19 21  1  0  0  0  0
 22 23  1  0  0  0  0
 23 24  1  0  0  0  0
 24 25  1  0  0  0  0
 24 28  2  0  0  0  0
 25 26  1  0  0  0  0
 26 27  1  0  0  0  0
M  END
> <ID>
12502

> <Formula>
C22H27Cl2NO4

> <FW>
440.3601 (403.8991+36.4609)

> <DSSTox_CID>
27360

> <DSSTox_RID>
82296

> <DSSTox_GSID>
47360

> <DSSTox_FileID_Sort>
6977

> <TS_ChemName>
SR58611

> <TS_ChemName_Synonyms>
SR58611A

> <TS_CASRN>
929601-09-2

> <CASRN_ChemName_Relationship>
primary

> <TS_Description>
single chemical compound

> <ChemNote>


> <STRUCTURE_Shown>
tested chemical

> <STRUCTURE_Formula>
C22H27Cl2NO4

> <STRUCTURE_MW>
440.3601

> <STRUCTURE_ChemType>
defined organic

> <STRUCTURE_DefinedOrganicForm>
complex

> <STRUCTURE_IUPAC>
ethyl [(7-{[2-(3-chlorophenyl)-2-hydroxyethyl]amino}-5,6,7,8-tetrahydronaphthalen-2-yl)oxy]acetate hydrochloride (1:1)

> <STRUCTURE_SMILES>
Cl.Clc1cccc(c1)C(O)CNC2Cc3cc(ccc3CC2)OCC(=O)OCC

> <STRUCTURE_SMILES_Desalt>
Clc1cccc(c1)C(O)CNC2Cc3cc(ccc3CC2)OCC(=O)OCC

> <Substance_modify_yyyymmdd>
20130910

$$$$
