93-05-0
ChemmineR-0915142007XD

 12 12  0  0  0  0  0  0  0  0  1 V2000
    5.3179   -2.3042    0.0000 N   0  0  0  0  0  0  0  0  0  0  0  0
    3.9866   -2.3042    0.0000 C   0  0  0  0  0  0  0  0  0  0  0  0
    3.3283   -3.4526    0.0000 C   0  0  0  0  0  0  0  0  0  0  0  0
    1.9970   -3.4526    0.0000 C   0  0  0  0  0  0  0  0  0  0  0  0
    1.3313   -2.3042    0.0000 C   0  0  0  0  0  0  0  0  0  0  0  0
    0.0000   -2.3042    0.0000 N   0  0  0  0  0  0  0  0  0  0  0  0
    1.9970   -1.1484    0.0000 C   0  0  0  0  0  0  0  0  0  0  0  0
    3.3283   -1.1484    0.0000 C   0  0  0  0  0  0  0  0  0  0  0  0
    5.9835   -1.1484    0.0000 C   0  0  0  0  0  0  0  0  0  0  0  0
    5.3179    0.0000    0.0000 C   0  0  0  0  0  0  0  0  0  0  0  0
    5.9835   -3.4526    0.0000 C   0  0  0  0  0  0  0  0  0  0  0  0
    7.3148   -3.4526    0.0000 C   0  0  0  0  0  0  0  0  0  0  0  0
  1  2  1  0  0  0  0
  1  9  1  0  0  0  0
  1 11  1  0  0  0  0
  2  3  2  0  0  0  0
  2  8  1  0  0  0  0
  3  4  1  0  0  0  0
  4  5  2  0  0  0  0
  5  6  1  0  0  0  0
  5  7  1  0  0  0  0
  7  8  2  0  0  0  0
  9 10  1  0  0  0  0
 11 12  1  0  0  0  0
M  END
> <ID>
3995

> <Formula>
C10H16N2

> <FW>
164.2474

> <DSSTox_CID>
5058

> <DSSTox_RID>
77645

> <DSSTox_GSID>
25058

> <DSSTox_FileID_Sort>
2328

> <TS_ChemName>
N,N-Diethylbenzene-1,4-diamine

> <TS_ChemName_Synonyms>
N,N-Diethylbenzene-1,4-diamine (N,N-Diethyl-p-phenylenediamine)

> <TS_CASRN>
93-05-0

> <CASRN_ChemName_Relationship>
primary

> <TS_Description>
single chemical compound

> <ChemNote>


> <STRUCTURE_Shown>
tested chemical

> <STRUCTURE_Formula>
C10H16N2

> <STRUCTURE_MW>
164.2474

> <STRUCTURE_ChemType>
defined organic

> <STRUCTURE_DefinedOrganicForm>
parent

> <STRUCTURE_IUPAC>
N,N-diethylbenzene-1,4-diamine

> <STRUCTURE_SMILES>
CCN(CC)c1ccc(N)cc1

> <STRUCTURE_SMILES_Desalt>
CCN(CC)c1ccc(N)cc1

> <Substance_modify_yyyymmdd>
20080429

$$$$
