93-04-9
ChemmineR-0915142007XD

 12 13  0  0  0  0  0  0  0  0  1 V2000
    2.2982   -0.6764    0.0000 C   0  0  0  0  0  0  0  0  0  0  0  0
    3.4508    0.0000    0.0000 C   0  0  0  0  0  0  0  0  0  0  0  0
    2.2982   -2.0084    0.0000 C   0  0  0  0  0  0  0  0  0  0  0  0
    3.4508   -2.6640    0.0000 C   0  0  0  0  0  0  0  0  0  0  0  0
    4.6034   -0.6764    0.0000 C   0  0  0  0  0  0  0  0  0  0  0  0
    4.6034   -2.0084    0.0000 C   0  0  0  0  0  0  0  0  0  0  0  0
    5.7490    0.0000    0.0000 O   0  0  0  0  0  0  0  0  0  0  0  0
    1.1526    0.0000    0.0000 C   0  0  0  0  0  0  0  0  0  0  0  0
    1.1526   -2.6640    0.0000 C   0  0  0  0  0  0  0  0  0  0  0  0
    6.9016   -0.6557    0.0000 C   0  0  0  0  0  0  0  0  0  0  0  0
    0.0000   -0.6764    0.0000 C   0  0  0  0  0  0  0  0  0  0  0  0
    0.0000   -2.0084    0.0000 C   0  0  0  0  0  0  0  0  0  0  0  0
  1  2  1  0  0  0  0
  1  3  2  0  0  0  0
  1  8  1  0  0  0  0
  2  5  2  0  0  0  0
  3  4  1  0  0  0  0
  3  9  1  0  0  0  0
  4  6  2  0  0  0  0
  5  7  1  0  0  0  0
  5  6  1  0  0  0  0
  7 10  1  0  0  0  0
  8 11  2  0  0  0  0
  9 12  2  0  0  0  0
 11 12  1  0  0  0  0
M  END
> <ID>
10049

> <Formula>
C11H10O

> <FW>
158.1965

> <DSSTox_CID>
24392

> <DSSTox_RID>
80193

> <DSSTox_GSID>
44392

> <DSSTox_FileID_Sort>
4875

> <TS_ChemName>
2-Methoxynaphthalene

> <TS_ChemName_Synonyms>
Naphthalene, 2-methoxy-

> <TS_CASRN>
93-04-9

> <CASRN_ChemName_Relationship>
primary

> <TS_Description>
single chemical compound

> <ChemNote>


> <STRUCTURE_Shown>
tested chemical

> <STRUCTURE_Formula>
C11H10O

> <STRUCTURE_MW>
158.1965

> <STRUCTURE_ChemType>
defined organic

> <STRUCTURE_DefinedOrganicForm>
parent

> <STRUCTURE_IUPAC>
2-methoxynaphthalene

> <STRUCTURE_SMILES>
COc1ccc2ccccc2c1

> <STRUCTURE_SMILES_Desalt>
COc1ccc2ccccc2c1

> <Substance_modify_yyyymmdd>
20091116

$$$$
