93-14-1
ChemmineR-0915142007XD

 14 14  0  0  0  0  0  0  0  0  1 V2000
    0.6648   -4.6071    0.0000 C   0  0  0  0  0  0  0  0  0  0  0  0
    0.0000   -3.4570    0.0000 C   0  0  0  0  0  0  0  0  0  0  0  0
    0.6648   -2.3002    0.0000 C   0  0  0  0  0  0  0  0  0  0  0  0
    1.9944   -2.3002    0.0000 C   0  0  0  0  0  0  0  0  0  0  0  0
    2.6592   -1.1501    0.0000 O   0  0  0  0  0  0  0  0  0  0  0  0
    1.9944    0.0000    0.0000 C   0  0  0  0  0  0  0  0  0  0  0  0
    2.6592   -3.4570    0.0000 C   0  0  0  0  0  0  0  0  0  0  0  0
    3.9888   -3.4570    0.0000 O   0  0  0  0  0  0  0  0  0  0  0  0
    4.6536   -4.6071    0.0000 C   0  0  0  0  0  0  0  0  0  0  0  0
    5.9832   -4.6071    0.0000 C   0  0  0  0  0  0  0  0  0  0  0  0
    6.6480   -5.7572    0.0000 O   0  0  0  0  0  0  0  0  0  0  0  0
    6.6480   -3.4570    0.0000 C   0  0  0  0  0  0  0  0  0  0  0  0
    5.9832   -2.3002    0.0000 O   0  0  0  0  0  0  0  0  0  0  0  0
    1.9944   -4.6071    0.0000 C   0  0  0  0  0  0  0  0  0  0  0  0
  1  2  2  0  0  0  0
  1 14  1  0  0  0  0
  2  3  1  0  0  0  0
  3  4  2  0  0  0  0
  4  5  1  0  0  0  0
  4  7  1  0  0  0  0
  5  6  1  0  0  0  0
  7  8  1  0  0  0  0
  7 14  2  0  0  0  0
  8  9  1  0  0  0  0
  9 10  1  0  0  0  0
 10 11  1  0  0  0  0
 10 12  1  0  0  0  0
 12 13  1  0  0  0  0
M  END
> <ID>
2796

> <Formula>
C10H14O4

> <FW>
198.2158

> <DSSTox_CID>
3114

> <DSSTox_RID>
76881

> <DSSTox_GSID>
23114

> <DSSTox_FileID_Sort>
1565

> <TS_ChemName>
Guaifenesin

> <TS_ChemName_Synonyms>


> <TS_CASRN>
93-14-1

> <CASRN_ChemName_Relationship>
primary

> <TS_Description>
single chemical compound

> <ChemNote>


> <STRUCTURE_Shown>
tested chemical

> <STRUCTURE_Formula>
C10H14O4

> <STRUCTURE_MW>
198.2158

> <STRUCTURE_ChemType>
defined organic

> <STRUCTURE_DefinedOrganicForm>
parent

> <STRUCTURE_IUPAC>
3-(2-methoxyphenoxy)propane-1,2-diol

> <STRUCTURE_SMILES>
OCC(O)COc1ccccc1OC

> <STRUCTURE_SMILES_Desalt>
OCC(O)COc1ccccc1OC

> <Substance_modify_yyyymmdd>
20080429

$$$$
