93-15-2
ChemmineR-0915142007XD

 13 13  0  0  0  0  0  0  0  0  1 V2000
    1.9945    0.0000    0.0000 O   0  0  0  0  0  0  0  0  0  0  0  0
    0.6622    0.0000    0.0000 C   0  0  0  0  0  0  0  0  0  0  0  0
    2.6567   -1.1488    0.0000 C   0  0  0  0  0  0  0  0  0  0  0  0
    3.9890   -1.1488    0.0000 C   0  0  0  0  0  0  0  0  0  0  0  0
    4.6512   -2.3057    0.0000 C   0  0  0  0  0  0  0  0  0  0  0  0
    5.9836   -2.3057    0.0000 C   0  0  0  0  0  0  0  0  0  0  0  0
    6.6457   -3.4545    0.0000 C   0  0  0  0  0  0  0  0  0  0  0  0
    7.9781   -3.4545    0.0000 C   0  0  0  0  0  0  0  0  0  0  0  0
    3.9890   -3.4545    0.0000 C   0  0  0  0  0  0  0  0  0  0  0  0
    2.6567   -3.4545    0.0000 C   0  0  0  0  0  0  0  0  0  0  0  0
    1.9945   -2.3057    0.0000 C   0  0  0  0  0  0  0  0  0  0  0  0
    0.6622   -2.3057    0.0000 O   0  0  0  0  0  0  0  0  0  0  0  0
    0.0000   -3.4545    0.0000 C   0  0  0  0  0  0  0  0  0  0  0  0
  1  2  1  0  0  0  0
  1  3  1  0  0  0  0
  3  4  2  0  0  0  0
  3 11  1  0  0  0  0
  4  5  1  0  0  0  0
  5  6  1  0  0  0  0
  5  9  2  0  0  0  0
  6  7  1  0  0  0  0
  7  8  2  0  0  0  0
  9 10  1  0  0  0  0
 10 11  2  0  0  0  0
 11 12  1  0  0  0  0
 12 13  1  0  0  0  0
M  END
> <ID>
4295

> <Formula>
C11H14O2

> <FW>
178.2277

> <DSSTox_CID>
5607

> <DSSTox_RID>
77851

> <DSSTox_GSID>
25607

> <DSSTox_FileID_Sort>
2534

> <TS_ChemName>
Methyleugenol

> <TS_ChemName_Synonyms>
Methyleugenol (Benzene, 1,2-dimethoxy-4-(2-propenyl)-) (4-Allyl-1,2-dimethoxybenzene)

> <TS_CASRN>
93-15-2

> <CASRN_ChemName_Relationship>
primary

> <TS_Description>
single chemical compound

> <ChemNote>


> <STRUCTURE_Shown>
tested chemical

> <STRUCTURE_Formula>
C11H14O2

> <STRUCTURE_MW>
178.2277

> <STRUCTURE_ChemType>
defined organic

> <STRUCTURE_DefinedOrganicForm>
parent

> <STRUCTURE_IUPAC>
1,2-dimethoxy-4-(prop-2-en-1-yl)benzene

> <STRUCTURE_SMILES>
COc1cc(ccc1OC)CC=C

> <STRUCTURE_SMILES_Desalt>
COc1cc(ccc1OC)CC=C

> <Substance_modify_yyyymmdd>
20080429

$$$$
