93-51-6
ChemmineR-0915142007XD

 10 10  0  0  0  0  0  0  0  0  1 V2000
    2.2993   -1.9973    0.0000 C   0  0  0  0  0  0  0  0  0  0  0  0
    1.1496   -1.3245    0.0000 C   0  0  0  0  0  0  0  0  0  0  0  0
    2.2993   -3.3218    0.0000 C   0  0  0  0  0  0  0  0  0  0  0  0
    0.0000   -1.9973    0.0000 C   0  0  0  0  0  0  0  0  0  0  0  0
    1.1496   -3.9734    0.0000 C   0  0  0  0  0  0  0  0  0  0  0  0
    0.0000   -3.3218    0.0000 C   0  0  0  0  0  0  0  0  0  0  0  0
    3.4648   -1.3086    0.0000 O   0  0  0  0  0  0  0  0  0  0  0  0
    1.1496    0.0000    0.0000 O   0  0  0  0  0  0  0  0  0  0  0  0
    1.1496   -5.2979    0.0000 C   0  0  0  0  0  0  0  0  0  0  0  0
    4.6251   -1.9814    0.0000 C   0  0  0  0  0  0  0  0  0  0  0  0
  1  2  1  0  0  0  0
  1  3  2  0  0  0  0
  1  7  1  0  0  0  0
  2  4  2  0  0  0  0
  2  8  1  0  0  0  0
  3  5  1  0  0  0  0
  4  6  1  0  0  0  0
  5  6  2  0  0  0  0
  5  9  1  0  0  0  0
  7 10  1  0  0  0  0
M  END
> <ID>
12255

> <Formula>
C8H10O2

> <FW>
138.1638

> <DSSTox_CID>
27105

> <DSSTox_RID>
82115

> <DSSTox_GSID>
47105

> <DSSTox_FileID_Sort>
6796

> <TS_ChemName>
2-Methoxy-4-methylphenol

> <TS_ChemName_Synonyms>


> <TS_CASRN>
93-51-6

> <CASRN_ChemName_Relationship>
primary

> <TS_Description>
single chemical compound

> <ChemNote>


> <STRUCTURE_Shown>
tested chemical

> <STRUCTURE_Formula>
C8H10O2

> <STRUCTURE_MW>
138.1638

> <STRUCTURE_ChemType>
defined organic

> <STRUCTURE_DefinedOrganicForm>
parent

> <STRUCTURE_IUPAC>
2-methoxy-4-methylphenol

> <STRUCTURE_SMILES>
Oc1ccc(C)cc1OC

> <STRUCTURE_SMILES_Desalt>
Oc1ccc(C)cc1OC

> <Substance_modify_yyyymmdd>
20100429

$$$$
