93-58-3
ChemmineR-0915142007XD

 10 10  0  0  0  0  0  0  0  0  1 V2000
    3.9889   -2.3040    0.0000 C   0  0  0  0  0  0  0  0  0  0  0  0
    4.6545   -3.4536    0.0000 O   0  0  0  0  0  0  0  0  0  0  0  0
    4.6545   -1.1497    0.0000 O   0  0  0  0  0  0  0  0  0  0  0  0
    3.9889    0.0000    0.0000 C   0  0  0  0  0  0  0  0  0  0  0  0
    2.6577   -2.3040    0.0000 C   0  0  0  0  0  0  0  0  0  0  0  0
    1.9968   -3.4536    0.0000 C   0  0  0  0  0  0  0  0  0  0  0  0
    0.6656   -3.4536    0.0000 C   0  0  0  0  0  0  0  0  0  0  0  0
    0.0000   -2.3040    0.0000 C   0  0  0  0  0  0  0  0  0  0  0  0
    0.6656   -1.1497    0.0000 C   0  0  0  0  0  0  0  0  0  0  0  0
    1.9968   -1.1497    0.0000 C   0  0  0  0  0  0  0  0  0  0  0  0
  1  2  2  0  0  0  0
  1  3  1  0  0  0  0
  1  5  1  0  0  0  0
  3  4  1  0  0  0  0
  5  6  2  0  0  0  0
  5 10  1  0  0  0  0
  6  7  1  0  0  0  0
  7  8  2  0  0  0  0
  8  9  1  0  0  0  0
  9 10  2  0  0  0  0
M  END
> <ID>
4274

> <Formula>
C8H8O2

> <FW>
136.1479

> <DSSTox_CID>
5572

> <DSSTox_RID>
77836

> <DSSTox_GSID>
25572

> <DSSTox_FileID_Sort>
2519

> <TS_ChemName>
Methyl benzoate

> <TS_ChemName_Synonyms>


> <TS_CASRN>
93-58-3

> <CASRN_ChemName_Relationship>
primary

> <TS_Description>
single chemical compound

> <ChemNote>


> <STRUCTURE_Shown>
tested chemical

> <STRUCTURE_Formula>
C8H8O2

> <STRUCTURE_MW>
136.1479

> <STRUCTURE_ChemType>
defined organic

> <STRUCTURE_DefinedOrganicForm>
parent

> <STRUCTURE_IUPAC>
methyl benzoate

> <STRUCTURE_SMILES>
COC(=O)c1ccccc1

> <STRUCTURE_SMILES_Desalt>
COC(=O)c1ccccc1

> <Substance_modify_yyyymmdd>
20080429

$$$$
