93-56-1
ChemmineR-0915142007XD

 10 10  0  0  0  0  0  0  0  0  1 V2000
    2.2634   -2.0403    0.0000 C   0  0  0  0  0  0  0  0  0  0  0  0
    2.2634   -0.6690    0.0000 C   0  0  0  0  0  0  0  0  0  0  0  0
    3.4069   -2.7046    0.0000 C   0  0  0  0  0  0  0  0  0  0  0  0
    1.1483   -2.7046    0.0000 C   0  0  0  0  0  0  0  0  0  0  0  0
    1.1483    0.0000    0.0000 C   0  0  0  0  0  0  0  0  0  0  0  0
    3.4069    0.0000    0.0000 O   0  0  0  0  0  0  0  0  0  0  0  0
    3.4069   -4.0617    0.0000 C   0  0  0  0  0  0  0  0  0  0  0  0
    1.1483   -4.0617    0.0000 C   0  0  0  0  0  0  0  0  0  0  0  0
    0.0000   -0.6690    0.0000 O   0  0  0  0  0  0  0  0  0  0  0  0
    2.2634   -4.7450    0.0000 C   0  0  0  0  0  0  0  0  0  0  0  0
  1  2  1  0  0  0  0
  1  3  1  0  0  0  0
  1  4  2  0  0  0  0
  2  5  1  0  0  0  0
  2  6  1  0  0  0  0
  3  7  2  0  0  0  0
  4  8  1  0  0  0  0
  5  9  1  0  0  0  0
  7 10  1  0  0  0  0
  8 10  2  0  0  0  0
M  END
> <ID>
9335

> <Formula>
C8H10O2

> <FW>
138.1638

> <DSSTox_CID>
22422

> <DSSTox_RID>
80019

> <DSSTox_GSID>
42422

> <DSSTox_FileID_Sort>
4701

> <TS_ChemName>
Styrene glycol

> <TS_ChemName_Synonyms>
1-Phenyl-1,2-ethanediol

> <TS_CASRN>
93-56-1

> <CASRN_ChemName_Relationship>
primary

> <TS_Description>
single chemical compound

> <ChemNote>


> <STRUCTURE_Shown>
tested chemical

> <STRUCTURE_Formula>
C8H10O2

> <STRUCTURE_MW>
138.1638

> <STRUCTURE_ChemType>
defined organic

> <STRUCTURE_DefinedOrganicForm>
parent

> <STRUCTURE_IUPAC>
1-phenylethane-1,2-diol

> <STRUCTURE_SMILES>
OC(CO)c1ccccc1

> <STRUCTURE_SMILES_Desalt>
OC(CO)c1ccccc1

> <Substance_modify_yyyymmdd>
20131013

$$$$
