93-55-0
ChemmineR-0915142007XD

 10 10  0  0  0  0  0  0  0  0  1 V2000
    2.2991   -1.3426    0.0000 C   0  0  0  0  0  0  0  0  0  0  0  0
    1.1467   -1.9994    0.0000 C   0  0  0  0  0  0  0  0  0  0  0  0
    0.0000   -1.3426    0.0000 C   0  0  0  0  0  0  0  0  0  0  0  0
    2.2991    0.0000    0.0000 O   0  0  0  0  0  0  0  0  0  0  0  0
    4.5981   -3.9931    0.0000 C   0  0  0  0  0  0  0  0  0  0  0  0
    5.7621   -3.3247    0.0000 C   0  0  0  0  0  0  0  0  0  0  0  0
    5.7621   -1.9994    0.0000 C   0  0  0  0  0  0  0  0  0  0  0  0
    4.5981   -1.3426    0.0000 C   0  0  0  0  0  0  0  0  0  0  0  0
    3.4457   -1.9994    0.0000 C   0  0  0  0  0  0  0  0  0  0  0  0
    3.4457   -3.3247    0.0000 C   0  0  0  0  0  0  0  0  0  0  0  0
  1  2  1  0  0  0  0
  1  4  2  0  0  0  0
  1  9  1  0  0  0  0
  2  3  1  0  0  0  0
  5 10  2  0  0  0  0
  5  6  1  0  0  0  0
  6  7  2  0  0  0  0
  7  8  1  0  0  0  0
  8  9  2  0  0  0  0
  9 10  1  0  0  0  0
M  END
> <ID>
10127

> <Formula>
C9H10O

> <FW>
134.1751

> <DSSTox_CID>
24470

> <DSSTox_RID>
80252

> <DSSTox_GSID>
44470

> <DSSTox_FileID_Sort>
4934

> <TS_ChemName>
1-Phenylpropan-1-one

> <TS_ChemName_Synonyms>
1-Phenylpropan-1-one (1-Propanone, 1-phenyl-)

> <TS_CASRN>
93-55-0

> <CASRN_ChemName_Relationship>
primary

> <TS_Description>
single chemical compound

> <ChemNote>


> <STRUCTURE_Shown>
tested chemical

> <STRUCTURE_Formula>
C9H10O

> <STRUCTURE_MW>
134.1751

> <STRUCTURE_ChemType>
defined organic

> <STRUCTURE_DefinedOrganicForm>
parent

> <STRUCTURE_IUPAC>
1-phenylpropan-1-one

> <STRUCTURE_SMILES>
O=C(CC)c1ccccc1

> <STRUCTURE_SMILES_Desalt>
O=C(CC)c1ccccc1

> <Substance_modify_yyyymmdd>
20091116

$$$$
