93-69-6
ChemmineR-0915142007XD

 14 14  0  0  0  0  0  0  0  0  1 V2000
    1.1606   -3.9904    0.0000 N   0  0  0  0  0  0  0  0  0  0  0  0
    2.2973   -4.6664    0.0000 C   0  0  0  0  0  0  0  0  0  0  0  0
    1.1606   -2.6563    0.0000 C   0  0  0  0  0  0  0  0  0  0  0  0
    3.4579   -3.9904    0.0000 N   0  0  0  0  0  0  0  0  0  0  0  0
    2.2973   -5.9826    0.0000 N   0  0  0  0  0  0  0  0  0  0  0  0
    2.2973   -1.9922    0.0000 C   0  0  0  0  0  0  0  0  0  0  0  0
    0.0000   -1.9922    0.0000 C   0  0  0  0  0  0  0  0  0  0  0  0
    4.6186   -4.6664    0.0000 C   0  0  0  0  0  0  0  0  0  0  0  0
    3.4579   -2.6563    0.0000 C   0  0  0  0  0  0  0  0  0  0  0  0
    2.2973   -0.6581    0.0000 C   0  0  0  0  0  0  0  0  0  0  0  0
    0.0000   -0.6581    0.0000 C   0  0  0  0  0  0  0  0  0  0  0  0
    4.6186   -5.9826    0.0000 N   0  0  0  0  0  0  0  0  0  0  0  0
    5.7732   -3.9904    0.0000 N   0  0  0  0  0  0  0  0  0  0  0  0
    1.1606    0.0000    0.0000 C   0  0  0  0  0  0  0  0  0  0  0  0
  1  2  1  0  0  0  0
  1  3  1  0  0  0  0
  2  4  1  0  0  0  0
  2  5  2  0  0  0  0
  3  6  2  0  0  0  0
  3  7  1  0  0  0  0
  4  8  1  0  0  0  0
  6  9  1  0  0  0  0
  6 10  1  0  0  0  0
  7 11  2  0  0  0  0
  8 12  2  0  0  0  0
  8 13  1  0  0  0  0
 10 14  2  0  0  0  0
 11 14  1  0  0  0  0
M  END
> <ID>
8983

> <Formula>
C9H13N5

> <FW>
191.233

> <DSSTox_CID>
22051

> <DSSTox_RID>
79906

> <DSSTox_GSID>
42051

> <DSSTox_FileID_Sort>
4588

> <TS_ChemName>
1-(o-Tolyl)biguanide

> <TS_ChemName_Synonyms>
N-(2-Methylphenyl)imidodicarbonimidic diamide

> <TS_CASRN>
93-69-6

> <CASRN_ChemName_Relationship>
primary

> <TS_Description>
single chemical compound

> <ChemNote>
tautomers

> <STRUCTURE_Shown>
tested chemical

> <STRUCTURE_Formula>
C9H13N5

> <STRUCTURE_MW>
191.233

> <STRUCTURE_ChemType>
defined organic

> <STRUCTURE_DefinedOrganicForm>
parent

> <STRUCTURE_IUPAC>
N-(2-methylphenyl)imidodicarbonimidic diamide

> <STRUCTURE_SMILES>
N=C(N)NC(=N)Nc1ccccc1C

> <STRUCTURE_SMILES_Desalt>
N=C(N)NC(=N)Nc1ccccc1C

> <Substance_modify_yyyymmdd>
20130713

$$$$
