93-68-5
ChemmineR-0915142007XD

 14 14  0  0  0  0  0  0  0  0  1 V2000
    4.6124   -1.9906    0.0000 C   0  0  0  0  0  0  0  0  0  0  0  0
    5.7776   -2.6703    0.0000 C   0  0  0  0  0  0  0  0  0  0  0  0
    6.9429   -1.9906    0.0000 C   0  0  0  0  0  0  0  0  0  0  0  0
    8.0919   -2.6703    0.0000 C   0  0  0  0  0  0  0  0  0  0  0  0
    4.6124   -0.6797    0.0000 O   0  0  0  0  0  0  0  0  0  0  0  0
    3.4795   -2.6703    0.0000 N   0  0  0  0  0  0  0  0  0  0  0  0
    2.3143   -1.9906    0.0000 C   0  0  0  0  0  0  0  0  0  0  0  0
    2.3143   -0.6797    0.0000 C   0  0  0  0  0  0  0  0  0  0  0  0
    1.1491   -2.6703    0.0000 C   0  0  0  0  0  0  0  0  0  0  0  0
    1.1491   -0.0324    0.0000 C   0  0  0  0  0  0  0  0  0  0  0  0
    0.0000   -2.0230    0.0000 C   0  0  0  0  0  0  0  0  0  0  0  0
    0.0000   -0.6797    0.0000 C   0  0  0  0  0  0  0  0  0  0  0  0
    3.4472    0.0000    0.0000 C   0  0  0  0  0  0  0  0  0  0  0  0
    6.9429   -0.6797    0.0000 O   0  0  0  0  0  0  0  0  0  0  0  0
  1  2  1  0  0  0  0
  1  6  1  0  0  0  0
  1  5  2  0  0  0  0
  2  3  1  0  0  0  0
  3  4  1  0  0  0  0
  3 14  2  0  0  0  0
  6  7  1  0  0  0  0
  7  8  2  0  0  0  0
  7  9  1  0  0  0  0
  8 10  1  0  0  0  0
  8 13  1  0  0  0  0
  9 11  2  0  0  0  0
 10 12  2  0  0  0  0
 11 12  1  0  0  0  0
M  END
> <ID>
4725

> <Formula>
C11H13NO2

> <FW>
191.2264

> <DSSTox_CID>
6562

> <DSSTox_RID>
78151

> <DSSTox_GSID>
26562

> <DSSTox_FileID_Sort>
2834

> <TS_ChemName>
N-(2-Methylphenyl)-3-oxobutanamide

> <TS_ChemName_Synonyms>
Butanamide, N-(2-methylphenyl)-3-oxo-

> <TS_CASRN>
93-68-5

> <CASRN_ChemName_Relationship>
primary

> <TS_Description>
single chemical compound

> <ChemNote>
tautomers

> <STRUCTURE_Shown>
tested chemical

> <STRUCTURE_Formula>
C11H13NO2

> <STRUCTURE_MW>
191.2264

> <STRUCTURE_ChemType>
defined organic

> <STRUCTURE_DefinedOrganicForm>
parent

> <STRUCTURE_IUPAC>
N-(2-methylphenyl)-3-oxobutanamide

> <STRUCTURE_SMILES>
O=C(Nc1ccccc1C)CC(C)=O

> <STRUCTURE_SMILES_Desalt>
O=C(Nc1ccccc1C)CC(C)=O

> <Substance_modify_yyyymmdd>
20080429

$$$$
