93-60-7
ChemmineR-0915142007XD

 10 10  0  0  0  0  0  0  0  0  1 V2000
    3.4571   -2.6406    0.0000 C   0  0  0  0  0  0  0  0  0  0  0  0
    2.3048   -1.9805    0.0000 C   0  0  0  0  0  0  0  0  0  0  0  0
    3.4571   -3.9667    0.0000 O   0  0  0  0  0  0  0  0  0  0  0  0
    1.1524    0.0000    0.0000 N   0  0  0  0  0  0  0  0  0  0  0  0
    4.6095   -1.9689    0.0000 O   0  0  0  0  0  0  0  0  0  0  0  0
    2.3048   -0.6544    0.0000 C   0  0  0  0  0  0  0  0  0  0  0  0
    1.1524   -2.6406    0.0000 C   0  0  0  0  0  0  0  0  0  0  0  0
    0.0000   -0.6544    0.0000 C   0  0  0  0  0  0  0  0  0  0  0  0
    5.7909   -2.6406    0.0000 C   0  0  0  0  0  0  0  0  0  0  0  0
    0.0000   -1.9689    0.0000 C   0  0  0  0  0  0  0  0  0  0  0  0
  1  2  1  0  0  0  0
  1  3  2  0  0  0  0
  1  5  1  0  0  0  0
  2  6  2  0  0  0  0
  2  7  1  0  0  0  0
  4  6  1  0  0  0  0
  4  8  2  0  0  0  0
  5  9  1  0  0  0  0
  7 10  2  0  0  0  0
  8 10  1  0  0  0  0
M  END
> <ID>
10128

> <Formula>
C7H7NO2

> <FW>
137.136

> <DSSTox_CID>
24471

> <DSSTox_RID>
80253

> <DSSTox_GSID>
44471

> <DSSTox_FileID_Sort>
4935

> <TS_ChemName>
Methyl nicotinate

> <TS_ChemName_Synonyms>
Methyl nicotinate (3-Pyridinecarboxylic acid, methyl ester)

> <TS_CASRN>
93-60-7

> <CASRN_ChemName_Relationship>
primary

> <TS_Description>
single chemical compound

> <ChemNote>


> <STRUCTURE_Shown>
tested chemical

> <STRUCTURE_Formula>
C7H7NO2

> <STRUCTURE_MW>
137.136

> <STRUCTURE_ChemType>
defined organic

> <STRUCTURE_DefinedOrganicForm>
parent

> <STRUCTURE_IUPAC>
methyl pyridine-3-carboxylate

> <STRUCTURE_SMILES>
COC(=O)c1cccnc1

> <STRUCTURE_SMILES_Desalt>
COC(=O)c1cccnc1

> <Substance_modify_yyyymmdd>
20091116

$$$$
