93-65-2
ChemmineR-0915142007XD

 14 14  0  0  0  0  0  0  0  0  1 V2000
    4.6109   -1.3324    0.0000 O    0  0  0  0  0  0  0  0  0  0  0  0
    6.9123   -1.3324    0.0000 C    0  0  0  0  0  0  0  0  0  0  0  0
    3.4642   -2.0026    0.0000 C    0  0  0  0  0  0  0  0  0  0  0  0
    3.4642   -3.3270    0.0000 C    0  0  0  0  0  0  0  0  0  0  0  0
    5.7737   -2.0026    0.0000 C    0  0  0  0  0  0  0  0  0  0  0  0
    2.3014   -3.9891    0.0000 C    0  0  0  0  0  0  0  0  0  0  0  0
    8.0752   -2.0026    0.0000 O    0  0  0  0  0  0  0  0  0  0  0  0
    2.3014   -1.3324    0.0000 C    0  0  0  0  0  0  0  0  0  0  0  0
    1.1628   -3.3270    0.0000 C    0  0  0  0  0  0  0  0  0  0  0  0
    6.9123    0.0000    0.0000 O    0  0  0  0  0  0  0  0  0  0  0  0
    1.1628   -2.0026    0.0000 C    0  0  0  0  0  0  0  0  0  0  0  0
    0.0000   -3.9891    0.0000 Cl   0  0  0  0  0  0  0  0  0  0  0  0
    4.6109   -3.9891    0.0000 C    0  0  0  0  0  0  0  0  0  0  0  0
    5.7737   -3.3270    0.0000 C    0  0  0  0  0  0  0  0  0  0  0  0
  1  3  1  0  0  0  0
  1  5  1  0  0  0  0
  2  5  1  0  0  0  0
  2  7  2  0  0  0  0
  2 10  1  0  0  0  0
  3  4  2  0  0  0  0
  3  8  1  0  0  0  0
  4  6  1  0  0  0  0
  4 13  1  0  0  0  0
  5 14  1  0  0  0  0
  6  9  2  0  0  0  0
  8 11  2  0  0  0  0
  9 11  1  0  0  0  0
  9 12  1  0  0  0  0
M  END
> <ID>
3554

> <Formula>
C10H11ClO3

> <FW>
214.6455

> <DSSTox_CID>
4194

> <DSSTox_RID>
77323

> <DSSTox_GSID>
24194

> <DSSTox_FileID_Sort>
2006

> <TS_ChemName>
Mecoprop

> <TS_ChemName_Synonyms>
2-(2-Methyl-4-chlorophenoxy)propionic acid; MCPP; MCPP acid

> <TS_CASRN>
93-65-2

> <CASRN_ChemName_Relationship>
primary

> <TS_Description>
single chemical compound

> <ChemNote>
mixture of (R) [16484-77-8],(S)- isomers; structure shown without stereochem; retired CASRN [7085-19-0]

> <STRUCTURE_Shown>
tested chemical

> <STRUCTURE_Formula>
C10H11ClO3

> <STRUCTURE_MW>
214.6455

> <STRUCTURE_ChemType>
defined organic

> <STRUCTURE_DefinedOrganicForm>
parent

> <STRUCTURE_IUPAC>
2-(4-chloro-2-methylphenoxy)propanoic acid

> <STRUCTURE_SMILES>
Clc1cc(C)c(OC(C)C(=O)O)cc1

> <STRUCTURE_SMILES_Desalt>
Clc1cc(C)c(OC(C)C(=O)O)cc1

> <Substance_modify_yyyymmdd>
20080429

$$$$
