93-83-4
ChemmineR-0915142007XD

 26 25  0  0  0  0  0  0  0  0  1 V2000
    4.6536   -1.3661    0.0000 C   0  0  0  0  0  0  0  0  0  0  0  0
    5.7945   -2.0116    0.0000 C   0  0  0  0  0  0  0  0  0  0  0  0
    6.9054   -1.3661    0.0000 C   0  0  0  0  0  0  0  0  0  0  0  0
    8.1063   -2.0116    0.0000 C   0  0  0  0  0  0  0  0  0  0  0  0
    9.2622   -1.3661    0.0000 C   0  0  0  0  0  0  0  0  0  0  0  0
   10.4031   -2.0116    0.0000 C   0  0  0  0  0  0  0  0  0  0  0  0
   11.5590   -1.3661    0.0000 C   0  0  0  0  0  0  0  0  0  0  0  0
   12.7149   -2.0116    0.0000 C   0  0  0  0  0  0  0  0  0  0  0  0
   13.8708   -1.3661    0.0000 C   0  0  0  0  0  0  0  0  0  0  0  0
   15.0117   -2.0116    0.0000 C   0  0  0  0  0  0  0  0  0  0  0  0
   15.0117   -3.3476    0.0000 C   0  0  0  0  0  0  0  0  0  0  0  0
   13.8708   -4.0531    0.0000 C   0  0  0  0  0  0  0  0  0  0  0  0
   13.8708   -5.3592    0.0000 C   0  0  0  0  0  0  0  0  0  0  0  0
   12.7149   -6.0197    0.0000 C   0  0  0  0  0  0  0  0  0  0  0  0
   12.7149   -7.3707    0.0000 C   0  0  0  0  0  0  0  0  0  0  0  0
   11.5590   -8.0613    0.0000 C   0  0  0  0  0  0  0  0  0  0  0  0
   11.5590   -9.3523    0.0000 C   0  0  0  0  0  0  0  0  0  0  0  0
   10.4031  -10.0128    0.0000 C   0  0  0  0  0  0  0  0  0  0  0  0
    4.6536    0.0000    0.0000 O   0  0  0  0  0  0  0  0  0  0  0  0
    3.5127   -2.0116    0.0000 N   0  0  0  0  0  0  0  0  0  0  0  0
    2.2968   -1.3661    0.0000 C   0  0  0  0  0  0  0  0  0  0  0  0
    1.1409   -2.0566    0.0000 C   0  0  0  0  0  0  0  0  0  0  0  0
    0.0000   -1.3661    0.0000 O   0  0  0  0  0  0  0  0  0  0  0  0
    3.5127   -3.3476    0.0000 C   0  0  0  0  0  0  0  0  0  0  0  0
    4.6536   -4.0081    0.0000 C   0  0  0  0  0  0  0  0  0  0  0  0
    4.6536   -5.3592    0.0000 O   0  0  0  0  0  0  0  0  0  0  0  0
  1  2  1  0  0  0  0
  1 20  1  0  0  0  0
  1 19  2  0  0  0  0
  2  3  1  0  0  0  0
  3  4  1  0  0  0  0
  4  5  1  0  0  0  0
  5  6  1  0  0  0  0
  6  7  1  0  0  0  0
  7  8  1  0  0  0  0
  8  9  1  0  0  0  0
  9 10  2  0  0  0  0
 10 11  1  0  0  0  0
 11 12  1  0  0  0  0
 12 13  1  0  0  0  0
 13 14  1  0  0  0  0
 14 15  1  0  0  0  0
 15 16  1  0  0  0  0
 16 17  1  0  0  0  0
 17 18  1  0  0  0  0
 20 21  1  0  0  0  0
 20 24  1  0  0  0  0
 21 22  1  0  0  0  0
 22 23  1  0  0  0  0
 24 25  1  0  0  0  0
 25 26  1  0  0  0  0
M  END
> <ID>
4726

> <Formula>
C22H43NO3

> <FW>
369.5817

> <DSSTox_CID>
6563

> <DSSTox_RID>
78152

> <DSSTox_GSID>
26563

> <DSSTox_FileID_Sort>
2835

> <TS_ChemName>
(9Z)-N,N-Bis(2-hydroxyethyl)octadec-9-enamide

> <TS_ChemName_Synonyms>
Oleic acid diethanolamine condensate (1:1)

> <TS_CASRN>
93-83-4

> <CASRN_ChemName_Relationship>
primary

> <TS_Description>
single chemical compound

> <ChemNote>
stereochem

> <STRUCTURE_Shown>
tested chemical

> <STRUCTURE_Formula>
C22H43NO3

> <STRUCTURE_MW>
369.5817

> <STRUCTURE_ChemType>
defined organic

> <STRUCTURE_DefinedOrganicForm>
parent

> <STRUCTURE_IUPAC>
(9Z)-N,N-bis(2-hydroxyethyl)octadec-9-enamide

> <STRUCTURE_SMILES>
O=C(CCCCCCC/C=C\CCCCCCCC)N(CCO)CCO

> <STRUCTURE_SMILES_Desalt>
O=C(CCCCCCC/C=C\CCCCCCCC)N(CCO)CCO

> <Substance_modify_yyyymmdd>
20080429

$$$$
