93-89-0
ChemmineR-0915142007XD

 11 11  0  0  0  0  0  0  0  0  1 V2000
    3.4579   -1.3486    0.0000 C   0  0  0  0  0  0  0  0  0  0  0  0
    3.4579    0.0000    0.0000 O   0  0  0  0  0  0  0  0  0  0  0  0
    2.3030   -2.0056    0.0000 C   0  0  0  0  0  0  0  0  0  0  0  0
    4.6129   -2.0056    0.0000 O   0  0  0  0  0  0  0  0  0  0  0  0
    2.3030   -3.3334    0.0000 C   0  0  0  0  0  0  0  0  0  0  0  0
    1.1549   -1.3486    0.0000 C   0  0  0  0  0  0  0  0  0  0  0  0
    1.1549   -4.0043    0.0000 C   0  0  0  0  0  0  0  0  0  0  0  0
    0.0000   -2.0056    0.0000 C   0  0  0  0  0  0  0  0  0  0  0  0
    0.0000   -3.3334    0.0000 C   0  0  0  0  0  0  0  0  0  0  0  0
    5.7609   -1.3486    0.0000 C   0  0  0  0  0  0  0  0  0  0  0  0
    6.9158   -2.0056    0.0000 C   0  0  0  0  0  0  0  0  0  0  0  0
  1  2  2  0  0  0  0
  1  3  1  0  0  0  0
  1  4  1  0  0  0  0
  3  5  2  0  0  0  0
  3  6  1  0  0  0  0
  4 10  1  0  0  0  0
  5  7  1  0  0  0  0
  6  8  2  0  0  0  0
  7  9  2  0  0  0  0
  8  9  1  0  0  0  0
 10 11  1  0  0  0  0
M  END
> <ID>
7472

> <Formula>
C9H10O2

> <FW>
150.1745

> <DSSTox_CID>
18696

> <DSSTox_RID>
79386

> <DSSTox_GSID>
38696

> <DSSTox_FileID_Sort>
4068

> <TS_ChemName>
Ethyl benzoate

> <TS_ChemName_Synonyms>
Benzoic acid, ethyl ester

> <TS_CASRN>
93-89-0

> <CASRN_ChemName_Relationship>
primary

> <TS_Description>
single chemical compound

> <ChemNote>


> <STRUCTURE_Shown>
tested chemical

> <STRUCTURE_Formula>
C9H10O2

> <STRUCTURE_MW>
150.1745

> <STRUCTURE_ChemType>
defined organic

> <STRUCTURE_DefinedOrganicForm>
parent

> <STRUCTURE_IUPAC>
ethyl benzoate

> <STRUCTURE_SMILES>
O=C(OCC)c1ccccc1

> <STRUCTURE_SMILES_Desalt>
O=C(OCC)c1ccccc1

> <Substance_modify_yyyymmdd>
20080429

$$$$
