93-97-0
ChemmineR-0915142007XD

 17 18  0  0  0  0  0  0  0  0  1 V2000
    3.4788   -1.3288    0.0000 C   0  0  0  0  0  0  0  0  0  0  0  0
    3.4788    0.0000    0.0000 O   0  0  0  0  0  0  0  0  0  0  0  0
    2.2977   -2.0024    0.0000 C   0  0  0  0  0  0  0  0  0  0  0  0
    4.6138   -2.0024    0.0000 O   0  0  0  0  0  0  0  0  0  0  0  0
    1.1627   -1.3288    0.0000 C   0  0  0  0  0  0  0  0  0  0  0  0
    2.2977   -3.3219    0.0000 C   0  0  0  0  0  0  0  0  0  0  0  0
    0.0000   -2.0024    0.0000 C   0  0  0  0  0  0  0  0  0  0  0  0
    1.1627   -3.9678    0.0000 C   0  0  0  0  0  0  0  0  0  0  0  0
    0.0000   -3.3219    0.0000 C   0  0  0  0  0  0  0  0  0  0  0  0
    5.7764   -1.3288    0.0000 C   0  0  0  0  0  0  0  0  0  0  0  0
    5.7764    0.0000    0.0000 O   0  0  0  0  0  0  0  0  0  0  0  0
    6.9299   -2.0024    0.0000 C   0  0  0  0  0  0  0  0  0  0  0  0
    8.0925   -1.3288    0.0000 C   0  0  0  0  0  0  0  0  0  0  0  0
    6.9299   -3.3219    0.0000 C   0  0  0  0  0  0  0  0  0  0  0  0
    9.2275   -2.0024    0.0000 C   0  0  0  0  0  0  0  0  0  0  0  0
    8.0649   -3.9955    0.0000 C   0  0  0  0  0  0  0  0  0  0  0  0
    9.2275   -3.3588    0.0000 C   0  0  0  0  0  0  0  0  0  0  0  0
  1  2  2  0  0  0  0
  1  3  1  0  0  0  0
  1  4  1  0  0  0  0
  3  5  2  0  0  0  0
  3  6  1  0  0  0  0
  4 10  1  0  0  0  0
  5  7  1  0  0  0  0
  6  8  2  0  0  0  0
  7  9  2  0  0  0  0
  8  9  1  0  0  0  0
 10 11  2  0  0  0  0
 10 12  1  0  0  0  0
 12 13  2  0  0  0  0
 12 14  1  0  0  0  0
 13 15  1  0  0  0  0
 14 16  2  0  0  0  0
 15 17  2  0  0  0  0
 16 17  1  0  0  0  0
M  END
> <ID>
5801

> <Formula>
C14H10O3

> <FW>
226.2274

> <DSSTox_CID>
9122

> <DSSTox_RID>
78674

> <DSSTox_GSID>
29122

> <DSSTox_FileID_Sort>
3356

> <TS_ChemName>
Benzoic anhydride

> <TS_ChemName_Synonyms>


> <TS_CASRN>
93-97-0

> <CASRN_ChemName_Relationship>
primary

> <TS_Description>
single chemical compound

> <ChemNote>


> <STRUCTURE_Shown>
tested chemical

> <STRUCTURE_Formula>
C14H10O3

> <STRUCTURE_MW>
226.2274

> <STRUCTURE_ChemType>
defined organic

> <STRUCTURE_DefinedOrganicForm>
parent

> <STRUCTURE_IUPAC>
benzoic anhydride

> <STRUCTURE_SMILES>
O=C(OC(=O)c1ccccc1)c2ccccc2

> <STRUCTURE_SMILES_Desalt>
O=C(OC(=O)c1ccccc1)c2ccccc2

> <Substance_modify_yyyymmdd>
20080429

$$$$
