93-92-5
ChemmineR-0915142007XD

 12 12  0  0  0  0  0  0  0  0  1 V2000
    2.3093   -2.0051    0.0000 C   0  0  0  0  0  0  0  0  0  0  0  0
    1.1547   -2.6620    0.0000 C   0  0  0  0  0  0  0  0  0  0  0  0
    0.0000   -2.0051    0.0000 C   0  0  0  0  0  0  0  0  0  0  0  0
    0.0000   -0.6776    0.0000 C   0  0  0  0  0  0  0  0  0  0  0  0
    1.1547    0.0000    0.0000 C   0  0  0  0  0  0  0  0  0  0  0  0
    2.3093   -0.6776    0.0000 C   0  0  0  0  0  0  0  0  0  0  0  0
    3.4640   -2.6620    0.0000 C   0  0  0  0  0  0  0  0  0  0  0  0
    4.6187   -2.0051    0.0000 O   0  0  0  0  0  0  0  0  0  0  0  0
    3.4640   -3.9964    0.0000 C   0  0  0  0  0  0  0  0  0  0  0  0
    5.7733   -2.6620    0.0000 C   0  0  0  0  0  0  0  0  0  0  0  0
    6.9142   -2.0051    0.0000 O   0  0  0  0  0  0  0  0  0  0  0  0
    5.7733   -3.9964    0.0000 C   0  0  0  0  0  0  0  0  0  0  0  0
  1  2  2  0  0  0  0
  1  6  1  0  0  0  0
  1  7  1  0  0  0  0
  2  3  1  0  0  0  0
  3  4  2  0  0  0  0
  4  5  1  0  0  0  0
  5  6  2  0  0  0  0
  7  8  1  0  0  0  0
  7  9  1  0  0  0  0
  8 10  1  0  0  0  0
 10 11  2  0  0  0  0
 10 12  1  0  0  0  0
M  END
> <ID>
8596

> <Formula>
C10H12O2

> <FW>
164.2011

> <DSSTox_CID>
21636

> <DSSTox_RID>
79797

> <DSSTox_GSID>
41636

> <DSSTox_FileID_Sort>
4479

> <TS_ChemName>
Benzenemethanol, alpha-methyl-, acetate

> <TS_ChemName_Synonyms>
Benzenemethanol, alpha-methyl-, acetate (Styrallyl acetate)

> <TS_CASRN>
93-92-5

> <CASRN_ChemName_Relationship>
primary

> <TS_Description>
single chemical compound

> <ChemNote>


> <STRUCTURE_Shown>
tested chemical

> <STRUCTURE_Formula>
C10H12O2

> <STRUCTURE_MW>
164.2011

> <STRUCTURE_ChemType>
defined organic

> <STRUCTURE_DefinedOrganicForm>
parent

> <STRUCTURE_IUPAC>
1-phenylethyl acetate

> <STRUCTURE_SMILES>
CC(=O)OC(C)c1ccccc1

> <STRUCTURE_SMILES_Desalt>
CC(=O)OC(C)c1ccccc1

> <Substance_modify_yyyymmdd>
20080825

$$$$
