93-91-4
ChemmineR-0915142007XD

 12 12  0  0  0  0  0  0  0  0  1 V2000
    1.9955   -3.4588    0.0000 C   0  0  0  0  0  0  0  0  0  0  0  0
    0.6652   -3.4588    0.0000 C   0  0  0  0  0  0  0  0  0  0  0  0
    0.0000   -2.3081    0.0000 C   0  0  0  0  0  0  0  0  0  0  0  0
    0.6652   -1.1574    0.0000 C   0  0  0  0  0  0  0  0  0  0  0  0
    1.9955   -1.1574    0.0000 C   0  0  0  0  0  0  0  0  0  0  0  0
    2.6606   -2.3081    0.0000 C   0  0  0  0  0  0  0  0  0  0  0  0
    3.9909   -2.3081    0.0000 C   0  0  0  0  0  0  0  0  0  0  0  0
    4.6561   -3.4588    0.0000 O   0  0  0  0  0  0  0  0  0  0  0  0
    4.6561   -1.1574    0.0000 C   0  0  0  0  0  0  0  0  0  0  0  0
    5.9864   -1.1574    0.0000 C   0  0  0  0  0  0  0  0  0  0  0  0
    6.6515    0.0000    0.0000 O   0  0  0  0  0  0  0  0  0  0  0  0
    6.6515   -2.3081    0.0000 C   0  0  0  0  0  0  0  0  0  0  0  0
  1  2  2  0  0  0  0
  1  6  1  0  0  0  0
  2  3  1  0  0  0  0
  3  4  2  0  0  0  0
  4  5  1  0  0  0  0
  5  6  2  0  0  0  0
  6  7  1  0  0  0  0
  7  8  2  0  0  0  0
  7  9  1  0  0  0  0
  9 10  1  0  0  0  0
 10 11  2  0  0  0  0
 10 12  1  0  0  0  0
M  END
> <ID>
1701

> <Formula>
C10H10O2

> <FW>
162.1852

> <DSSTox_CID>
1803

> <DSSTox_RID>
76337

> <DSSTox_GSID>
21803

> <DSSTox_FileID_Sort>
1021

> <TS_ChemName>
1-Benzoylacetone

> <TS_ChemName_Synonyms>


> <TS_CASRN>
93-91-4

> <CASRN_ChemName_Relationship>
primary

> <TS_Description>
single chemical compound

> <ChemNote>


> <STRUCTURE_Shown>
tested chemical

> <STRUCTURE_Formula>
C10H10O2

> <STRUCTURE_MW>
162.1852

> <STRUCTURE_ChemType>
defined organic

> <STRUCTURE_DefinedOrganicForm>
parent

> <STRUCTURE_IUPAC>
1-phenylbutane-1,3-dione

> <STRUCTURE_SMILES>
O=C(CC(C)=O)c1ccccc1

> <STRUCTURE_SMILES_Desalt>
O=C(CC(C)=O)c1ccccc1

> <Substance_modify_yyyymmdd>
20080429

$$$$
