93-99-2
ChemmineR-0915142007XD

 15 16  0  0  0  0  0  0  0  0  1 V2000
    3.4594   -1.9837    0.0000 C   0  0  0  0  0  0  0  0  0  0  0  0
    3.4594   -0.6532    0.0000 O   0  0  0  0  0  0  0  0  0  0  0  0
    2.3063   -2.6530    0.0000 C   0  0  0  0  0  0  0  0  0  0  0  0
    4.6045   -2.6530    0.0000 O   0  0  0  0  0  0  0  0  0  0  0  0
    2.3063   -3.9836    0.0000 C   0  0  0  0  0  0  0  0  0  0  0  0
    1.1531   -1.9837    0.0000 C   0  0  0  0  0  0  0  0  0  0  0  0
    1.1531   -4.6367    0.0000 C   0  0  0  0  0  0  0  0  0  0  0  0
    0.0000   -2.6530    0.0000 C   0  0  0  0  0  0  0  0  0  0  0  0
    0.0000   -3.9836    0.0000 C   0  0  0  0  0  0  0  0  0  0  0  0
    6.9108    0.0000    0.0000 C   0  0  0  0  0  0  0  0  0  0  0  0
    8.0639   -0.6532    0.0000 C   0  0  0  0  0  0  0  0  0  0  0  0
    8.0639   -1.9837    0.0000 C   0  0  0  0  0  0  0  0  0  0  0  0
    6.9108   -2.6530    0.0000 C   0  0  0  0  0  0  0  0  0  0  0  0
    5.7576   -1.9837    0.0000 C   0  0  0  0  0  0  0  0  0  0  0  0
    5.7576   -0.6532    0.0000 C   0  0  0  0  0  0  0  0  0  0  0  0
  1  2  2  0  0  0  0
  1  3  1  0  0  0  0
  1  4  1  0  0  0  0
  3  5  2  0  0  0  0
  3  6  1  0  0  0  0
  4 14  1  0  0  0  0
  5  7  1  0  0  0  0
  6  8  2  0  0  0  0
  7  9  2  0  0  0  0
  8  9  1  0  0  0  0
 10 15  2  0  0  0  0
 10 11  1  0  0  0  0
 11 12  2  0  0  0  0
 12 13  1  0  0  0  0
 13 14  2  0  0  0  0
 14 15  1  0  0  0  0
M  END
> <ID>
13272

> <Formula>
C13H10O2

> <FW>
198.2173

> <DSSTox_CID>
28185

> <DSSTox_RID>
82744

> <DSSTox_GSID>
48210

> <DSSTox_FileID_Sort>
7421

> <TS_ChemName>
Phenyl benzoate

> <TS_ChemName_Synonyms>


> <TS_CASRN>
93-99-2

> <CASRN_ChemName_Relationship>
primary

> <TS_Description>
single chemical compound

> <ChemNote>


> <STRUCTURE_Shown>
tested chemical

> <STRUCTURE_Formula>
C13H10O2

> <STRUCTURE_MW>
198.2173

> <STRUCTURE_ChemType>
defined organic

> <STRUCTURE_DefinedOrganicForm>
parent

> <STRUCTURE_IUPAC>
phenyl benzoate

> <STRUCTURE_SMILES>
O=C(Oc1ccccc1)c2ccccc2

> <STRUCTURE_SMILES_Desalt>
O=C(Oc1ccccc1)c2ccccc2

> <Substance_modify_yyyymmdd>
20110715

$$$$
