930-68-7
ChemmineR-0915142007XD

  7  7  0  0  0  0  0  0  0  0  1 V2000
    0.0000   -1.1496    0.0000 O   0  0  0  0  0  0  0  0  0  0  0  0
    1.3292   -1.1496    0.0000 C   0  0  0  0  0  0  0  0  0  0  0  0
    1.9958    0.0000    0.0000 C   0  0  0  0  0  0  0  0  0  0  0  0
    3.3250    0.0000    0.0000 C   0  0  0  0  0  0  0  0  0  0  0  0
    3.9916   -1.1496    0.0000 C   0  0  0  0  0  0  0  0  0  0  0  0
    3.3250   -2.3032    0.0000 C   0  0  0  0  0  0  0  0  0  0  0  0
    1.9958   -2.3032    0.0000 C   0  0  0  0  0  0  0  0  0  0  0  0
  1  2  2  0  0  0  0
  2  3  1  0  0  0  0
  2  7  1  0  0  0  0
  3  4  1  0  0  0  0
  4  5  1  0  0  0  0
  5  6  1  0  0  0  0
  6  7  2  0  0  0  0
M  END
> <ID>
3895

> <Formula>
C6H8O

> <FW>
96.1271

> <DSSTox_CID>
4881

> <DSSTox_RID>
77564

> <DSSTox_GSID>
24881

> <DSSTox_FileID_Sort>
2247

> <TS_ChemName>
2-Cyclohexen-1-one

> <TS_ChemName_Synonyms>


> <TS_CASRN>
930-68-7

> <CASRN_ChemName_Relationship>
primary

> <TS_Description>
single chemical compound

> <ChemNote>


> <STRUCTURE_Shown>
tested chemical

> <STRUCTURE_Formula>
C6H8O

> <STRUCTURE_MW>
96.1271

> <STRUCTURE_ChemType>
defined organic

> <STRUCTURE_DefinedOrganicForm>
parent

> <STRUCTURE_IUPAC>
cyclohex-2-en-1-one

> <STRUCTURE_SMILES>
O=C1C=CCCC1

> <STRUCTURE_SMILES_Desalt>
O=C1C=CCCC1

> <Substance_modify_yyyymmdd>
20080429

$$$$
