930-22-3
ChemmineR-0915142007XD

  5  5  0  0  0  0  0  0  0  0  1 V2000
    1.1519   -1.8168    0.0000 C   0  0  0  0  0  0  0  0  0  0  0  0
    0.0000   -1.1519    0.0000 C   0  0  0  0  0  0  0  0  0  0  0  0
    2.3037   -1.1519    0.0000 C   0  0  0  0  0  0  0  0  0  0  0  0
    2.9687    0.0000    0.0000 C   0  0  0  0  0  0  0  0  0  0  0  0
    3.6336   -1.1519    0.0000 O   0  0  0  0  0  0  0  0  0  0  0  0
  1  2  2  0  0  0  0
  1  3  1  0  0  0  0
  3  4  1  0  0  0  0
  3  5  1  0  0  0  0
  4  5  1  0  0  0  0
M  END
> <ID>
4097

> <Formula>
C4H6O

> <FW>
70.0898

> <DSSTox_CID>
5240

> <DSSTox_RID>
77712

> <DSSTox_GSID>
25240

> <DSSTox_FileID_Sort>
2395

> <TS_ChemName>
1,2-Epoxy-3-butene

> <TS_ChemName_Synonyms>


> <TS_CASRN>
930-22-3

> <CASRN_ChemName_Relationship>
primary

> <TS_Description>
single chemical compound

> <ChemNote>


> <STRUCTURE_Shown>
tested chemical

> <STRUCTURE_Formula>
C4H6O

> <STRUCTURE_MW>
70.0898

> <STRUCTURE_ChemType>
defined organic

> <STRUCTURE_DefinedOrganicForm>
parent

> <STRUCTURE_IUPAC>
2-ethenyloxirane

> <STRUCTURE_SMILES>
C=CC1CO1

> <STRUCTURE_SMILES_Desalt>
C=CC1CO1

> <Substance_modify_yyyymmdd>
20080429

$$$$
