931-19-1
ChemmineR-0915142007XD

  8  8  0  0  0  0  0  0  0  0  2 V2000
    2.0028   -2.3060    0.0000 N   0  3  0  0  0  0  0  0  0  0  0  0
    0.6742   -2.3060    0.0000 C   0  0  0  0  0  0  0  0  0  0  0  0
    2.6611   -1.1530    0.0000 C   0  0  0  0  0  0  0  0  0  0  0  0
    2.0028    0.0000    0.0000 C   0  0  0  0  0  0  0  0  0  0  0  0
    0.0000   -1.1530    0.0000 C   0  0  0  0  0  0  0  0  0  0  0  0
    0.6742    0.0000    0.0000 C   0  0  0  0  0  0  0  0  0  0  0  0
    2.6611   -3.4590    0.0000 O   0  5  0  0  0  0  0  0  0  0  0  0
    3.9896   -1.1530    0.0000 C   0  0  0  0  0  0  0  0  0  0  0  0
  1  2  2  0  0  0  0
  1  3  1  0  0  0  0
  1  7  1  0  0  0  0
  2  5  1  0  0  0  0
  3  4  2  0  0  0  0
  3  8  1  0  0  0  0
  4  6  1  0  0  0  0
  5  6  2  0  0  0  0
M  END
> <ID>
5857

> <Formula>
C6H7NO

> <FW>
109.1259

> <DSSTox_CID>
9207

> <DSSTox_RID>
78709

> <DSSTox_GSID>
29207

> <DSSTox_FileID_Sort>
3391

> <TS_ChemName>
2-Methylpyridine 1-oxide

> <TS_ChemName_Synonyms>


> <TS_CASRN>
931-19-1

> <CASRN_ChemName_Relationship>
primary

> <TS_Description>
single chemical compound

> <ChemNote>


> <STRUCTURE_Shown>
tested chemical

> <STRUCTURE_Formula>
C6H7NO

> <STRUCTURE_MW>
109.1259

> <STRUCTURE_ChemType>
defined organic

> <STRUCTURE_DefinedOrganicForm>
parent

> <STRUCTURE_IUPAC>
2-methylpyridine 1-oxide

> <STRUCTURE_SMILES>
[O-][n+]1ccccc1C

> <STRUCTURE_SMILES_Desalt>
O[n+]1ccccc1C

> <Substance_modify_yyyymmdd>
20080429

$$$$
