931-97-5
ChemmineR-0915142007XD

  9  9  0  0  0  0  0  0  0  0  1 V2000
    1.3098   -1.4821    0.0000 C   0  0  0  0  0  0  0  0  0  0  0  0
    0.0000   -1.7135    0.0000 N   0  0  0  0  0  0  0  0  0  0  0  0
    2.6195   -1.2507    0.0000 C   0  0  0  0  0  0  0  0  0  0  0  0
    2.1665    0.0000    0.0000 O   0  0  0  0  0  0  0  0  0  0  0  0
    3.7717   -0.5859    0.0000 C   0  0  0  0  0  0  0  0  0  0  0  0
    4.9239   -1.2507    0.0000 C   0  0  0  0  0  0  0  0  0  0  0  0
    4.9239   -2.5801    0.0000 C   0  0  0  0  0  0  0  0  0  0  0  0
    3.7717   -3.2449    0.0000 C   0  0  0  0  0  0  0  0  0  0  0  0
    2.6195   -2.5801    0.0000 C   0  0  0  0  0  0  0  0  0  0  0  0
  1  2  3  0  0  0  0
  1  3  1  0  0  0  0
  3  4  1  0  0  0  0
  3  5  1  0  0  0  0
  3  9  1  0  0  0  0
  5  6  1  0  0  0  0
  6  7  1  0  0  0  0
  7  8  1  0  0  0  0
  8  9  1  0  0  0  0
M  END
> <ID>
3893

> <Formula>
C7H11NO

> <FW>
125.1683

> <DSSTox_CID>
4878

> <DSSTox_RID>
77562

> <DSSTox_GSID>
24878

> <DSSTox_FileID_Sort>
2245

> <TS_ChemName>
Cyclohexanone cyanohydrin

> <TS_ChemName_Synonyms>


> <TS_CASRN>
931-97-5

> <CASRN_ChemName_Relationship>
primary

> <TS_Description>
single chemical compound

> <ChemNote>


> <STRUCTURE_Shown>
tested chemical

> <STRUCTURE_Formula>
C7H11NO

> <STRUCTURE_MW>
125.1683

> <STRUCTURE_ChemType>
defined organic

> <STRUCTURE_DefinedOrganicForm>
parent

> <STRUCTURE_IUPAC>
1-hydroxycyclohexanecarbonitrile

> <STRUCTURE_SMILES>
N#CC1(O)CCCCC1

> <STRUCTURE_SMILES_Desalt>
N#CC1(O)CCCCC1

> <Substance_modify_yyyymmdd>
20080429

$$$$
