93107-08-5
ChemmineR-0915142007XD

 25 27  0  0  0  0  0  0  0  0  1 V2000
    7.9938   -4.4707    0.0000 C    0  0  0  0  0  0  0  0  0  0  0  0
    6.8400   -2.4826    0.0000 N    0  0  0  0  0  0  0  0  0  0  0  0
    5.7275   -4.4707    0.0000 C    0  0  0  0  0  0  0  0  0  0  0  0
    5.7275   -3.1522    0.0000 C    0  0  0  0  0  0  0  0  0  0  0  0
    6.8400   -5.1197    0.0000 C    0  0  0  0  0  0  0  0  0  0  0  0
    7.9938   -3.1522    0.0000 C    0  0  0  0  0  0  0  0  0  0  0  0
    4.5944   -2.4826    0.0000 C    0  0  0  0  0  0  0  0  0  0  0  0
    3.4509   -3.1522    0.0000 C    0  0  0  0  0  0  0  0  0  0  0  0
    6.8400   -1.1640    0.0000 C    0  0  0  0  0  0  0  0  0  0  0  0
    4.5944   -5.1197    0.0000 C    0  0  0  0  0  0  0  0  0  0  0  0
    9.1578   -5.1403    0.0000 C    0  0  0  0  0  0  0  0  0  0  0  0
    3.4509   -4.4707    0.0000 C    0  0  0  0  0  0  0  0  0  0  0  0
    2.3075   -2.4826    0.0000 N    0  0  0  0  0  0  0  0  0  0  0  0
    7.5817   -0.0206    0.0000 C    0  0  0  0  0  0  0  0  0  0  0  0
    6.1189    0.0000    0.0000 C    0  0  0  0  0  0  0  0  0  0  0  0
    6.8400   -6.4383    0.0000 O    0  0  0  0  0  0  0  0  0  0  0  0
    0.0000   -1.1640    0.0000 N    0  0  0  0  0  0  0  0  0  0  0  0
   10.3013   -4.4707    0.0000 O    0  0  0  0  0  0  0  0  0  0  0  0
    2.2766   -5.1403    0.0000 F    0  0  0  0  0  0  0  0  0  0  0  0
    9.1578   -6.4589    0.0000 O    0  0  0  0  0  0  0  0  0  0  0  0
    1.1640   -3.1522    0.0000 C    0  0  0  0  0  0  0  0  0  0  0  0
    2.3075   -1.1640    0.0000 C    0  0  0  0  0  0  0  0  0  0  0  0
    0.0000   -2.4826    0.0000 C    0  0  0  0  0  0  0  0  0  0  0  0
    1.1743   -0.5151    0.0000 C    0  0  0  0  0  0  0  0  0  0  0  0
    0.0000   -4.1205    0.0000 Cl   0  0  0  0  0  0  0  0  0  0  0  0
  1  5  1  0  0  0  0
  1  6  2  0  0  0  0
  1 11  1  0  0  0  0
  2  6  1  0  0  0  0
  2  4  1  0  0  0  0
  2  9  1  0  0  0  0
  3  5  1  0  0  0  0
  3 10  2  0  0  0  0
  3  4  1  0  0  0  0
  4  7  2  0  0  0  0
  5 16  2  0  0  0  0
  7  8  1  0  0  0  0
  8 13  1  0  0  0  0
  8 12  2  0  0  0  0
  9 14  1  0  0  0  0
  9 15  1  0  0  0  0
 10 12  1  0  0  0  0
 11 18  2  0  0  0  0
 11 20  1  0  0  0  0
 12 19  1  0  0  0  0
 13 21  1  0  0  0  0
 13 22  1  0  0  0  0
 14 15  1  0  0  0  0
 17 24  1  0  0  0  0
 17 23  1  0  0  0  0
 21 23  1  0  0  0  0
 22 24  1  0  0  0  0
M  END
> <ID>
12889

> <Formula>
C17H19ClFN3O3

> <FW>
367.8025 (331.3415+36.4609)

> <DSSTox_CID>
27768

> <DSSTox_RID>
82545

> <DSSTox_GSID>
47788

> <DSSTox_FileID_Sort>
7226

> <TS_ChemName>
Ciprofloxacin hydrochloride

> <TS_ChemName_Synonyms>


> <TS_CASRN>
93107-08-5

> <CASRN_ChemName_Relationship>
primary

> <TS_Description>
single chemical compound

> <ChemNote>
parent [85721-33-1]

> <STRUCTURE_Shown>
tested chemical

> <STRUCTURE_Formula>
C17H19ClFN3O3

> <STRUCTURE_MW>
367.8025

> <STRUCTURE_ChemType>
defined organic

> <STRUCTURE_DefinedOrganicForm>
complex

> <STRUCTURE_IUPAC>
1-cyclopropyl-6-fluoro-4-oxo-7-(piperazin-1-yl)-1,4-dihydroquinoline-3-carboxylic acid hydrochloride (1:1)

> <STRUCTURE_SMILES>
Cl.O=C(O)C2=CN(c1cc(c(F)cc1C2=O)N3CCNCC3)C4CC4

> <STRUCTURE_SMILES_Desalt>
O=C(O)C2=CN(c1cc(c(F)cc1C2=O)N3CCNCC3)C4CC4

> <Substance_modify_yyyymmdd>
20110723

$$$$
