93106-60-6
ChemmineR-0915142007XD

 26 29  0  0  0  0  0  0  0  0  1 V2000
   12.6648   -5.3192    0.0000 C   0  0  0  0  0  0  0  0  0  0  0  0
   11.5123   -5.9904    0.0000 C   0  0  0  0  0  0  0  0  0  0  0  0
   10.3598   -5.3192    0.0000 N   0  0  0  0  0  0  0  0  0  0  0  0
    9.2073   -5.9904    0.0000 C   0  0  0  0  0  0  0  0  0  0  0  0
    8.0548   -5.3192    0.0000 C   0  0  0  0  0  0  0  0  0  0  0  0
    8.0548   -3.9894    0.0000 N   0  0  0  0  0  0  0  0  0  0  0  0
    9.2073   -3.3308    0.0000 C   0  0  0  0  0  0  0  0  0  0  0  0
   10.3598   -3.9894    0.0000 C   0  0  0  0  0  0  0  0  0  0  0  0
    6.9023   -3.3308    0.0000 C   0  0  0  0  0  0  0  0  0  0  0  0
    5.7625   -3.9894    0.0000 C   0  0  0  0  0  0  0  0  0  0  0  0
    4.6100   -3.3308    0.0000 C   0  0  0  0  0  0  0  0  0  0  0  0
    4.6100   -2.0010    0.0000 C   0  0  0  0  0  0  0  0  0  0  0  0
    5.7625   -1.3298    0.0000 C   0  0  0  0  0  0  0  0  0  0  0  0
    6.9023   -2.0010    0.0000 C   0  0  0  0  0  0  0  0  0  0  0  0
    8.0548   -1.3298    0.0000 F   0  0  0  0  0  0  0  0  0  0  0  0
    3.4575   -1.3298    0.0000 C   0  0  0  0  0  0  0  0  0  0  0  0
    3.4575    0.0000    0.0000 O   0  0  0  0  0  0  0  0  0  0  0  0
    2.3050   -2.0010    0.0000 C   0  0  0  0  0  0  0  0  0  0  0  0
    2.3050   -3.3308    0.0000 C   0  0  0  0  0  0  0  0  0  0  0  0
    3.4575   -3.9894    0.0000 N   0  0  0  0  0  0  0  0  0  0  0  0
    3.4575   -5.3192    0.0000 C   0  0  0  0  0  0  0  0  0  0  0  0
    4.1161   -6.4717    0.0000 C   0  0  0  0  0  0  0  0  0  0  0  0
    2.7863   -6.4717    0.0000 C   0  0  0  0  0  0  0  0  0  0  0  0
    1.1525   -1.3298    0.0000 C   0  0  0  0  0  0  0  0  0  0  0  0
    0.0000   -2.0010    0.0000 O   0  0  0  0  0  0  0  0  0  0  0  0
    1.1525    0.0000    0.0000 O   0  0  0  0  0  0  0  0  0  0  0  0
  1  2  1  0  0  0  0
  2  3  1  0  0  0  0
  3  4  1  0  0  0  0
  3  8  1  0  0  0  0
  4  5  1  0  0  0  0
  5  6  1  0  0  0  0
  6  7  1  0  0  0  0
  6  9  1  0  0  0  0
  7  8  1  0  0  0  0
  9 10  2  0  0  0  0
  9 14  1  0  0  0  0
 10 11  1  0  0  0  0
 11 12  2  0  0  0  0
 11 20  1  0  0  0  0
 12 13  1  0  0  0  0
 12 16  1  0  0  0  0
 13 14  2  0  0  0  0
 14 15  1  0  0  0  0
 16 17  2  0  0  0  0
 16 18  1  0  0  0  0
 18 19  2  0  0  0  0
 18 24  1  0  0  0  0
 19 20  1  0  0  0  0
 20 21  1  0  0  0  0
 21 22  1  0  0  0  0
 21 23  1  0  0  0  0
 22 23  1  0  0  0  0
 24 25  1  0  0  0  0
 24 26  2  0  0  0  0
M  END
> <ID>
11075

> <Formula>
C19H22FN3O3

> <FW>
359.3947

> <DSSTox_CID>
25619

> <DSSTox_RID>
81007

> <DSSTox_GSID>
45619

> <DSSTox_FileID_Sort>
5688

> <TS_ChemName>
Enrofloxacin

> <TS_ChemName_Synonyms>


> <TS_CASRN>
93106-60-6

> <CASRN_ChemName_Relationship>
primary

> <TS_Description>
single chemical compound

> <ChemNote>


> <STRUCTURE_Shown>
tested chemical

> <STRUCTURE_Formula>
C19H22FN3O3

> <STRUCTURE_MW>
359.3947

> <STRUCTURE_ChemType>
defined organic

> <STRUCTURE_DefinedOrganicForm>
parent

> <STRUCTURE_IUPAC>
1-cyclopropyl-7-(4-ethylpiperazin-1-yl)-6-fluoro-4-oxo-1,4-dihydroquinoline-3-carboxylic acid

> <STRUCTURE_SMILES>
CCN1CCN(CC1)c2cc3N(C=C(C(=O)O)C(=O)c3cc2F)C4CC4

> <STRUCTURE_SMILES_Desalt>
CCN1CCN(CC1)c2cc3N(C=C(C(=O)O)C(=O)c3cc2F)C4CC4

> <Substance_modify_yyyymmdd>
20100107

$$$$
