933-75-5
ChemmineR-0915142007XD

 10 10  0  0  0  0  0  0  0  0  1 V2000
    3.9887    0.0000    0.0000 O    0  0  0  0  0  0  0  0  0  0  0  0
    3.3239   -1.1541    0.0000 C    0  0  0  0  0  0  0  0  0  0  0  0
    3.9887   -2.3081    0.0000 C    0  0  0  0  0  0  0  0  0  0  0  0
    3.3239   -3.4568    0.0000 C    0  0  0  0  0  0  0  0  0  0  0  0
    1.9943   -3.4568    0.0000 C    0  0  0  0  0  0  0  0  0  0  0  0
    1.3296   -2.3081    0.0000 C    0  0  0  0  0  0  0  0  0  0  0  0
    0.0000   -2.3081    0.0000 Cl   0  0  0  0  0  0  0  0  0  0  0  0
    5.3182   -2.3081    0.0000 Cl   0  0  0  0  0  0  0  0  0  0  0  0
    1.9943   -1.1541    0.0000 C    0  0  0  0  0  0  0  0  0  0  0  0
    1.3296    0.0000    0.0000 Cl   0  0  0  0  0  0  0  0  0  0  0  0
  1  2  1  0  0  0  0
  2  3  2  0  0  0  0
  2  9  1  0  0  0  0
  3  4  1  0  0  0  0
  3  8  1  0  0  0  0
  4  5  2  0  0  0  0
  5  6  1  0  0  0  0
  6  7  1  0  0  0  0
  6  9  2  0  0  0  0
  9 10  1  0  0  0  0
M  END
> <ID>
4596

> <Formula>
C6H3Cl3O

> <FW>
197.4464

> <DSSTox_CID>
6209

> <DSSTox_RID>
78060

> <DSSTox_GSID>
26209

> <DSSTox_FileID_Sort>
2743

> <TS_ChemName>
2,3,6-Trichlorophenol

> <TS_ChemName_Synonyms>


> <TS_CASRN>
933-75-5

> <CASRN_ChemName_Relationship>
primary

> <TS_Description>
single chemical compound

> <ChemNote>


> <STRUCTURE_Shown>
tested chemical

> <STRUCTURE_Formula>
C6H3Cl3O

> <STRUCTURE_MW>
197.4464

> <STRUCTURE_ChemType>
defined organic

> <STRUCTURE_DefinedOrganicForm>
parent

> <STRUCTURE_IUPAC>
2,3,6-trichlorophenol

> <STRUCTURE_SMILES>
Oc1c(Cl)ccc(Cl)c1Cl

> <STRUCTURE_SMILES_Desalt>
Oc1c(Cl)ccc(Cl)c1Cl

> <Substance_modify_yyyymmdd>
20080429

$$$$
