933-52-8
ChemmineR-0915142007XD

 10 10  0  0  0  0  0  0  0  0  1 V2000
    2.6106   -1.2819    0.0000 C   0  0  0  0  0  0  0  0  0  0  0  0
    2.6106   -2.6262    0.0000 C   0  0  0  0  0  0  0  0  0  0  0  0
    1.2819   -2.6262    0.0000 C   0  0  0  0  0  0  0  0  0  0  0  0
    1.2819   -1.2819    0.0000 C   0  0  0  0  0  0  0  0  0  0  0  0
    3.5564   -0.3517    0.0000 O   0  0  0  0  0  0  0  0  0  0  0  0
    0.3361   -3.5564    0.0000 O   0  0  0  0  0  0  0  0  0  0  0  0
    2.9467   -3.9081    0.0000 C   0  0  0  0  0  0  0  0  0  0  0  0
    3.8925   -2.9623    0.0000 C   0  0  0  0  0  0  0  0  0  0  0  0
    0.9458    0.0000    0.0000 C   0  0  0  0  0  0  0  0  0  0  0  0
    0.0000   -0.9458    0.0000 C   0  0  0  0  0  0  0  0  0  0  0  0
  1  2  1  0  0  0  0
  1  4  1  0  0  0  0
  1  5  2  0  0  0  0
  2  3  1  0  0  0  0
  2  7  1  0  0  0  0
  2  8  1  0  0  0  0
  3  4  1  0  0  0  0
  3  6  2  0  0  0  0
  4  9  1  0  0  0  0
  4 10  1  0  0  0  0
M  END
> <ID>
10397

> <Formula>
C8H12O2

> <FW>
140.1797

> <DSSTox_CID>
24745

> <DSSTox_RID>
80439

> <DSSTox_GSID>
44745

> <DSSTox_FileID_Sort>
5121

> <TS_ChemName>
2,2,4,4-Tetramethylcyclobutane-1,3-dione

> <TS_ChemName_Synonyms>
2,2,4,4-Tetramethylcyclobutane-1,3-dione (1,3-Cyclobutanedione, 2,2,4,4-tetramethyl-)

> <TS_CASRN>
933-52-8

> <CASRN_ChemName_Relationship>
primary

> <TS_Description>
single chemical compound

> <ChemNote>


> <STRUCTURE_Shown>
tested chemical

> <STRUCTURE_Formula>
C8H12O2

> <STRUCTURE_MW>
140.1797

> <STRUCTURE_ChemType>
defined organic

> <STRUCTURE_DefinedOrganicForm>
parent

> <STRUCTURE_IUPAC>
2,2,4,4-tetramethylcyclobutane-1,3-dione

> <STRUCTURE_SMILES>
CC1(C)C(=O)C(C)(C)C1=O

> <STRUCTURE_SMILES_Desalt>
CC1(C)C(=O)C(C)(C)C1=O

> <Substance_modify_yyyymmdd>
20091116

$$$$
