933-78-8
ChemmineR-0915142007XD

 10 10  0  0  0  0  0  0  0  0  1 V2000
    3.9887   -4.6056    0.0000 O    0  0  0  0  0  0  0  0  0  0  0  0
    3.3239   -3.4568    0.0000 C    0  0  0  0  0  0  0  0  0  0  0  0
    1.9943   -3.4568    0.0000 C    0  0  0  0  0  0  0  0  0  0  0  0
    1.3296   -2.3028    0.0000 C    0  0  0  0  0  0  0  0  0  0  0  0
    0.0000   -2.3028    0.0000 Cl   0  0  0  0  0  0  0  0  0  0  0  0
    1.9943   -1.1487    0.0000 C    0  0  0  0  0  0  0  0  0  0  0  0
    3.3239   -1.1487    0.0000 C    0  0  0  0  0  0  0  0  0  0  0  0
    3.9887    0.0000    0.0000 Cl   0  0  0  0  0  0  0  0  0  0  0  0
    3.9887   -2.3028    0.0000 C    0  0  0  0  0  0  0  0  0  0  0  0
    5.3182   -2.3028    0.0000 Cl   0  0  0  0  0  0  0  0  0  0  0  0
  1  2  1  0  0  0  0
  2  3  2  0  0  0  0
  2  9  1  0  0  0  0
  3  4  1  0  0  0  0
  4  5  1  0  0  0  0
  4  6  2  0  0  0  0
  6  7  1  0  0  0  0
  7  8  1  0  0  0  0
  7  9  2  0  0  0  0
  9 10  1  0  0  0  0
M  END
> <ID>
4595

> <Formula>
C6H3Cl3O

> <FW>
197.4464

> <DSSTox_CID>
6208

> <DSSTox_RID>
78059

> <DSSTox_GSID>
26208

> <DSSTox_FileID_Sort>
2742

> <TS_ChemName>
2,3,5-Trichlorophenol

> <TS_ChemName_Synonyms>


> <TS_CASRN>
933-78-8

> <CASRN_ChemName_Relationship>
primary

> <TS_Description>
single chemical compound

> <ChemNote>


> <STRUCTURE_Shown>
tested chemical

> <STRUCTURE_Formula>
C6H3Cl3O

> <STRUCTURE_MW>
197.4464

> <STRUCTURE_ChemType>
defined organic

> <STRUCTURE_DefinedOrganicForm>
parent

> <STRUCTURE_IUPAC>
2,3,5-trichlorophenol

> <STRUCTURE_SMILES>
Oc1cc(Cl)cc(Cl)c1Cl

> <STRUCTURE_SMILES_Desalt>
Oc1cc(Cl)cc(Cl)c1Cl

> <Substance_modify_yyyymmdd>
20080429

$$$$
