93302-47-7
ChemmineR-0915142007XD

 26 29  0  0  1  0  0  0  0  0  1 V2000
    5.8112   -3.7890    0.0000 C   0  0  0  0  0  0  0  0  0  0  0  0
    6.8632   -4.4222    0.0000 C   0  0  0  0  0  0  0  0  0  0  0  0
    5.8112   -2.5226    0.0000 C   0  0  0  0  0  0  0  0  0  0  0  0
    4.7388   -4.4733    0.0000 C   0  0  0  0  0  0  0  0  0  0  0  0
    4.7388   -1.9405    0.0000 C   0  0  0  0  0  0  0  0  0  0  0  0
    3.9524   -3.1252    0.0000 O   0  0  0  0  0  0  0  0  0  0  0  0
    7.9866   -3.7890    0.0000 C   0  0  0  0  0  0  0  0  0  0  0  0
    6.8632   -1.9098    0.0000 C   0  0  0  0  0  0  0  0  0  0  0  0
    7.9866   -2.5226    0.0000 C   0  0  0  0  0  0  0  0  0  0  0  0
    5.8010   -5.3618    0.0000 C   0  0  0  0  0  0  0  0  0  0  0  0
    6.8632   -5.6887    0.0000 C   0  0  0  0  0  0  0  0  0  0  0  0
    4.7388   -5.7499    0.0000 C   0  0  0  0  0  0  0  0  0  0  0  0
    4.7388   -0.6332    0.0000 C   0  0  0  0  0  0  0  0  0  0  0  0
    6.8632   -0.6332    0.0000 C   0  0  0  0  0  0  0  0  0  0  0  0
    5.8112   -6.3627    0.0000 C   0  0  0  0  0  0  0  0  0  0  0  0
    6.8632   -3.2171    0.0000 O   0  0  0  0  0  0  0  0  0  0  0  0
    3.6358   -6.4138    0.0000 O   0  0  0  0  0  0  0  0  0  0  0  0
    5.8112   -0.0102    0.0000 C   0  0  0  0  0  0  0  0  0  0  0  0
    3.6052    0.0000    0.0000 O   0  0  0  0  0  0  0  0  0  0  0  0
   10.2130   -2.5226    0.0000 C   0  0  0  0  0  0  0  0  0  0  0  0
   10.2130   -3.8095    0.0000 C   0  0  0  0  0  0  0  0  0  0  0  0
    9.0896   -1.8894    0.0000 C   0  0  0  0  0  0  0  0  0  0  0  0
    9.0896   -4.4733    0.0000 N   0  0  0  0  0  0  0  0  0  0  0  0
    8.1908   -5.3618    0.0000 C   0  0  0  0  0  0  0  0  0  0  0  0
    1.2766   -2.4818    0.0000 I   0  0  0  0  0  0  0  0  0  0  0  0
    0.0000   -2.4818    0.0000 C   0  0  0  0  0  0  0  0  0  0  0  0
  1  2  1  0  0  0  0
  1  3  1  0  0  0  0
  1  4  1  0  0  0  0
  1 10  1  1  0  0  0
  2  7  1  0  0  0  0
  2 11  1  0  0  0  0
  2 16  1  1  0  0  0
  3  5  1  0  0  0  0
  3  8  2  0  0  0  0
  4  6  1  6  0  0  0
  4 12  1  0  0  0  0
  5 13  2  0  0  0  0
  5  6  1  0  0  0  0
  7 23  1  1  0  0  0
  7  9  1  0  0  0  0
  8  9  1  0  0  0  0
  8 14  1  0  0  0  0
 10 24  1  0  0  0  0
 11 15  1  0  0  0  0
 12 15  1  0  0  0  0
 12 17  2  0  0  0  0
 13 19  1  0  0  0  0
 13 18  1  0  0  0  0
 14 18  2  0  0  0  0
 20 21  1  0  0  0  0
 20 22  2  0  0  0  0
 21 23  1  0  0  0  0
 23 24  1  0  0  0  0
 25 26  1  0  0  0  0
M  END
> <ID>
11608

> <Formula>
C20H24INO4

> <FW>
469.3133 (327.3743+141.9390)

> <DSSTox_CID>
26325

> <DSSTox_RID>
81541

> <DSSTox_GSID>
46325

> <DSSTox_FileID_Sort>
6222

> <TS_ChemName>
Naloxone methyliodide

> <TS_ChemName_Synonyms>


> <TS_CASRN>
93302-47-7

> <CASRN_ChemName_Relationship>
primary

> <TS_Description>
single chemical compound

> <ChemNote>
stereochem; parent [465-65-6]

> <STRUCTURE_Shown>
tested chemical

> <STRUCTURE_Formula>
C20H24INO4

> <STRUCTURE_MW>
469.3133

> <STRUCTURE_ChemType>
defined organic

> <STRUCTURE_DefinedOrganicForm>
complex

> <STRUCTURE_IUPAC>
(5alpha)-3,14-dihydroxy-17-(prop-2-en-1-yl)-4,5-epoxymorphinan-6-one - iodomethane (1:1)

> <STRUCTURE_SMILES>
CI.O=C1CC[C@@]5(O)[C@H]2Cc4ccc(O)c3O[C@@H]1[C@]5(CCN2CC=C)c34

> <STRUCTURE_SMILES_Desalt>
O=C1CC[C@@]5(O)[C@H]2Cc4ccc(O)c3O[C@@H]1[C@]5(CCN2CC=C)c34

> <Substance_modify_yyyymmdd>
20110815

$$$$
