93390-81-9
ChemmineR-0915142007XD

 25 27  0  0  0  0  0  0  0  0  1 V2000
    3.0907   -2.6346    0.0000 C   0  0  0  0  0  0  0  0  0  0  0  0
    3.5376   -4.0217    0.0000 C   0  0  0  0  0  0  0  0  0  0  0  0
    4.2823   -1.7781    0.0000 N   0  0  0  0  0  0  0  0  0  0  0  0
    4.9991   -4.0217    0.0000 N   0  0  0  0  0  0  0  0  0  0  0  0
    2.6811   -5.1946    0.0000 O   0  0  0  0  0  0  0  0  0  0  0  0
    5.4460   -2.6346    0.0000 C   0  0  0  0  0  0  0  0  0  0  0  0
    5.8556   -5.1946    0.0000 C   0  0  0  0  0  0  0  0  0  0  0  0
    6.8424   -2.1784    0.0000 O   0  0  0  0  0  0  0  0  0  0  0  0
    7.3079   -5.1946    0.0000 O   0  0  0  0  0  0  0  0  0  0  0  0
    8.0526   -6.4514    0.0000 P   0  0  0  0  0  0  0  0  0  0  0  0
    8.7974   -7.7082    0.0000 O   0  0  0  0  0  0  0  0  0  0  0  0
    9.3094   -5.7067    0.0000 O   0  0  0  0  0  0  0  0  0  0  0  0
    6.7959   -7.1962    0.0000 O   0  0  0  0  0  0  0  0  0  0  0  0
    2.0667   -0.5865    0.0000 C   0  0  0  0  0  0  0  0  0  0  0  0
    2.0667   -1.7781    0.0000 C   0  0  0  0  0  0  0  0  0  0  0  0
    1.0240    0.0000    0.0000 C   0  0  0  0  0  0  0  0  0  0  0  0
    1.0240   -2.3739    0.0000 C   0  0  0  0  0  0  0  0  0  0  0  0
    0.0000   -0.5865    0.0000 C   0  0  0  0  0  0  0  0  0  0  0  0
    0.0000   -1.7781    0.0000 C   0  0  0  0  0  0  0  0  0  0  0  0
    2.0667   -3.4631    0.0000 C   0  0  0  0  0  0  0  0  0  0  0  0
    2.0667   -4.6547    0.0000 C   0  0  0  0  0  0  0  0  0  0  0  0
    1.0240   -2.8766    0.0000 C   0  0  0  0  0  0  0  0  0  0  0  0
    1.0240   -5.2598    0.0000 C   0  0  0  0  0  0  0  0  0  0  0  0
    0.0000   -3.4631    0.0000 C   0  0  0  0  0  0  0  0  0  0  0  0
    0.0000   -4.6547    0.0000 C   0  0  0  0  0  0  0  0  0  0  0  0
  1  2  1  0  0  0  0
  1  3  1  0  0  0  0
  1 15  1  0  0  0  0
  1 20  1  0  0  0  0
  2  4  1  0  0  0  0
  2  5  2  0  0  0  0
  3  6  1  0  0  0  0
  4  7  1  0  0  0  0
  4  6  1  0  0  0  0
  6  8  2  0  0  0  0
  7  9  1  0  0  0  0
  9 10  1  0  0  0  0
 10 11  1  0  0  0  0
 10 12  1  0  0  0  0
 10 13  2  0  0  0  0
 14 15  1  0  0  0  0
 14 16  2  0  0  0  0
 15 17  2  0  0  0  0
 16 18  1  0  0  0  0
 17 19  1  0  0  0  0
 18 19  2  0  0  0  0
 20 21  1  0  0  0  0
 20 22  2  0  0  0  0
 21 23  2  0  0  0  0
 22 24  1  0  0  0  0
 23 25  1  0  0  0  0
 24 25  2  0  0  0  0
M  END
> <ID>
9969

> <Formula>
C16H15N2O6P

> <FW>
362.2739

> <DSSTox_CID>
24299

> <DSSTox_RID>
97565

> <DSSTox_GSID>
44299

> <DSSTox_FileID_Sort>
8340

> <TS_ChemName>
Fosphenytoin

> <TS_ChemName_Synonyms>


> <TS_CASRN>
93390-81-9

> <CASRN_ChemName_Relationship>
primary

> <TS_Description>
single chemical compound

> <ChemNote>


> <STRUCTURE_Shown>
tested chemical

> <STRUCTURE_Formula>
C16H15N2O6P

> <STRUCTURE_MW>
362.2739

> <STRUCTURE_ChemType>
defined organic

> <STRUCTURE_DefinedOrganicForm>
parent

> <STRUCTURE_IUPAC>
(2,5-dioxo-4,4-diphenylimidazolidin-1-yl)methyl dihydrogen phosphate

> <STRUCTURE_SMILES>
OP(=O)(O)OCN1C(=O)C(NC1=O)(c2ccccc2)c3ccccc3

> <STRUCTURE_SMILES_Desalt>
OP(=O)(O)OCN1C(=O)C(NC1=O)(c2ccccc2)c3ccccc3

> <Substance_modify_yyyymmdd>
20090302

$$$$
