934-32-7
ChemmineR-0915142007XD

 10 11  0  0  0  0  0  0  0  0  1 V2000
    0.0000   -1.3294    0.0000 N   0  0  0  0  0  0  0  0  0  0  0  0
    1.3294   -1.3294    0.0000 C   0  0  0  0  0  0  0  0  0  0  0  0
    2.1134   -0.2500    0.0000 N   0  0  0  0  0  0  0  0  0  0  0  0
    3.3747   -0.6647    0.0000 C   0  0  0  0  0  0  0  0  0  0  0  0
    4.5280    0.0000    0.0000 C   0  0  0  0  0  0  0  0  0  0  0  0
    5.6812   -0.6647    0.0000 C   0  0  0  0  0  0  0  0  0  0  0  0
    5.6812   -1.9941    0.0000 C   0  0  0  0  0  0  0  0  0  0  0  0
    4.5280   -2.6588    0.0000 C   0  0  0  0  0  0  0  0  0  0  0  0
    3.3747   -1.9941    0.0000 C   0  0  0  0  0  0  0  0  0  0  0  0
    2.1134   -2.4032    0.0000 N   0  0  0  0  0  0  0  0  0  0  0  0
  1  2  1  0  0  0  0
  2  3  1  0  0  0  0
  2 10  2  0  0  0  0
  3  4  1  0  0  0  0
  4  5  2  0  0  0  0
  4  9  1  0  0  0  0
  5  6  1  0  0  0  0
  6  7  2  0  0  0  0
  7  8  1  0  0  0  0
  8  9  2  0  0  0  0
  9 10  1  0  0  0  0
M  END
> <ID>
3691

> <Formula>
C7H7N3

> <FW>
133.1506

> <DSSTox_CID>
4465

> <DSSTox_RID>
77410

> <DSSTox_GSID>
24465

> <DSSTox_FileID_Sort>
2093

> <TS_ChemName>
2-Aminobenzimidazole

> <TS_ChemName_Synonyms>
1H-1,3-benzodiazol-2-amine

> <TS_CASRN>
934-32-7

> <CASRN_ChemName_Relationship>
primary

> <TS_Description>
single chemical compound

> <ChemNote>


> <STRUCTURE_Shown>
tested chemical

> <STRUCTURE_Formula>
C7H7N3

> <STRUCTURE_MW>
133.1506

> <STRUCTURE_ChemType>
defined organic

> <STRUCTURE_DefinedOrganicForm>
parent

> <STRUCTURE_IUPAC>
1H-benzimidazol-2-amine

> <STRUCTURE_SMILES>
Nc1nc2ccccc2n1

> <STRUCTURE_SMILES_Desalt>
Nc1nc2ccccc2n1

> <Substance_modify_yyyymmdd>
20080429

$$$$
