93457-69-3
ChemmineR-0915142007XD

 11 10  0  0  0  0  0  0  0  0  2 V2000
    4.4778   -6.3245    0.0000 C    0  0  0  0  0  0  0  0  0  0  0  0
    2.6690   -1.8784    0.0000 C    0  0  0  0  0  0  0  0  0  0  0  0
    3.6935   -5.2494    0.0000 C    0  0  0  0  0  0  0  0  0  0  0  0
    4.2311   -4.0351    0.0000 C    0  0  0  0  0  0  0  0  0  0  0  0
    6.0399   -1.0752    0.0000 C    0  0  0  0  0  0  0  0  0  0  0  0
    5.2620    0.0000    0.0000 C    0  0  0  0  0  0  0  0  0  0  0  0
    3.4532   -2.9599    0.0000 C    0  0  0  0  0  0  0  0  0  0  0  0
    5.2620   -2.1503    0.0000 C    0  0  0  0  0  0  0  0  0  0  0  0
    3.9971   -0.4111    0.0000 C    0  0  0  0  0  0  0  0  0  0  0  0
    3.9971   -1.7392    0.0000 N    0  3  0  0  0  0  0  0  0  0  0  0
    0.0000   -1.0752    0.0000 Br   0  5  0  0  0  0  0  0  0  0  0  0
  1  3  1  0  0  0  0
  2 10  1  0  0  0  0
  3  4  1  0  0  0  0
  4  7  1  0  0  0  0
  5  6  1  0  0  0  0
  5  8  1  0  0  0  0
  6  9  1  0  0  0  0
  7 10  1  0  0  0  0
  8 10  1  0  0  0  0
  9 10  1  0  0  0  0
M  END
> <ID>
14239

> <Formula>
C9H20BrN

> <FW>
222.1658 (142.2613+79.9045)

> <DSSTox_CID>
29334

> <DSSTox_RID>
83450

> <DSSTox_GSID>
49375

> <DSSTox_FileID_Sort>
8125

> <TS_ChemName>
1-Butyl-1-methylpyrrolidinium bromide

> <TS_ChemName_Synonyms>


> <TS_CASRN>
93457-69-3

> <CASRN_ChemName_Relationship>
primary

> <TS_Description>
single chemical compound

> <ChemNote>


> <STRUCTURE_Shown>
tested chemical

> <STRUCTURE_Formula>
C9H20BrN

> <STRUCTURE_MW>
222.1658

> <STRUCTURE_ChemType>
defined organic

> <STRUCTURE_DefinedOrganicForm>
salt

> <STRUCTURE_IUPAC>
1-butyl-1-methylpyrrolidinium bromide

> <STRUCTURE_SMILES>
[Br-].CCCC[N+]1(C)CCCC1

> <STRUCTURE_SMILES_Desalt>
CCCC[N+]1(C)CCCC1

> <Substance_modify_yyyymmdd>
20111204

$$$$
