93479-97-1
ChemmineR-0915142007XD

 34 36  0  0  1  0  0  0  0  0  1 V2000
   17.2477   -0.9225    0.0000 C   0  0  0  0  0  0  0  0  0  0  0  0
   17.2477   -2.1452    0.0000 N   0  0  0  0  0  0  0  0  0  0  0  0
   18.2989   -2.7459    0.0000 C   0  0  0  0  0  0  0  0  0  0  0  0
   19.3501   -2.1452    0.0000 C   0  0  0  0  0  0  0  0  0  0  0  0
   19.3501   -0.9225    0.0000 C   0  0  0  0  0  0  0  0  0  0  0  0
    1.1584   -4.8482    0.0000 C   0  0  0  0  0  0  0  0  0  0  0  0
    1.1584   -6.1568    0.0000 C   0  0  0  0  0  0  0  0  0  0  0  0
    2.3169   -6.8219    0.0000 C   0  0  0  0  0  0  0  0  0  0  0  0
    3.4538   -6.1568    0.0000 C   0  0  0  0  0  0  0  0  0  0  0  0
    3.4538   -4.8482    0.0000 C   0  0  0  0  0  0  0  0  0  0  0  0
    2.3169   -4.1618    0.0000 C   0  0  0  0  0  0  0  0  0  0  0  0
    0.0000   -6.8433    0.0000 C   0  0  0  0  0  0  0  0  0  0  0  0
    4.6123   -4.1618    0.0000 N   0  0  0  0  0  0  0  0  0  0  0  0
    5.7492   -4.8268    0.0000 C   0  0  0  0  0  0  0  0  0  0  0  0
    6.9077   -4.1618    0.0000 N   0  0  0  0  0  0  0  0  0  0  0  0
    8.0661   -4.8268    0.0000 S   0  0  0  0  0  0  0  0  0  0  0  0
    9.2031   -4.1618    0.0000 C   0  0  0  0  0  0  0  0  0  0  0  0
   10.3615   -4.8268    0.0000 C   0  0  0  0  0  0  0  0  0  0  0  0
   11.4985   -4.1618    0.0000 C   0  0  0  0  0  0  0  0  0  0  0  0
   11.4985   -2.8317    0.0000 C   0  0  0  0  0  0  0  0  0  0  0  0
   10.3401   -2.1667    0.0000 C   0  0  0  0  0  0  0  0  0  0  0  0
    9.2031   -2.8317    0.0000 C   0  0  0  0  0  0  0  0  0  0  0  0
   12.6569   -2.1667    0.0000 C   0  0  0  0  0  0  0  0  0  0  0  0
   13.7939   -2.8317    0.0000 C   0  0  0  0  0  0  0  0  0  0  0  0
   14.9523   -2.1452    0.0000 N   0  0  0  0  0  0  0  0  0  0  0  0
   16.1107   -2.8103    0.0000 C   0  0  0  0  0  0  0  0  0  0  0  0
   18.2989   -3.9687    0.0000 O   0  0  0  0  0  0  0  0  0  0  0  0
   16.1107   -4.1403    0.0000 O   0  0  0  0  0  0  0  0  0  0  0  0
   20.2940    0.0000    0.0000 C   0  0  0  0  0  0  0  0  0  0  0  0
   20.4012   -2.7459    0.0000 C   0  0  0  0  0  0  0  0  0  0  0  0
   21.4524   -2.1452    0.0000 C   0  0  0  0  0  0  0  0  0  0  0  0
    5.7492   -6.1568    0.0000 O   0  0  0  0  0  0  0  0  0  0  0  0
    7.2509   -5.8994    0.0000 O   0  0  0  0  0  0  0  0  0  0  0  0
    8.9027   -5.9209    0.0000 O   0  0  0  0  0  0  0  0  0  0  0  0
  1  5  1  0  0  0  0
  1  2  1  0  0  0  0
  2 26  1  0  0  0  0
  2  3  1  0  0  0  0
  3 27  2  0  0  0  0
  3  4  1  0  0  0  0
  4 30  1  0  0  0  0
  4  5  2  0  0  0  0
  5 29  1  0  0  0  0
  6 11  1  0  0  0  0
  6  7  1  0  0  0  0
  7  8  1  0  0  0  0
  7 12  1  6  0  0  0
  8  9  1  0  0  0  0
  9 10  1  0  0  0  0
 10 11  1  0  0  0  0
 10 13  1  1  0  0  0
 13 14  1  0  0  0  0
 14 15  1  0  0  0  0
 14 32  2  0  0  0  0
 15 16  1  0  0  0  0
 16 17  1  0  0  0  0
 16 33  2  0  0  0  0
 16 34  2  0  0  0  0
 17 18  2  0  0  0  0
 17 22  1  0  0  0  0
 18 19  1  0  0  0  0
 19 20  2  0  0  0  0
 20 21  1  0  0  0  0
 20 23  1  0  0  0  0
 21 22  2  0  0  0  0
 23 24  1  0  0  0  0
 24 25  1  0  0  0  0
 25 26  1  0  0  0  0
 26 28  2  0  0  0  0
 30 31  1  0  0  0  0
M  END
> <ID>
7874

> <Formula>
C24H34N4O5S

> <FW>
490.6156

> <DSSTox_CID>
20675

> <DSSTox_RID>
79534

> <DSSTox_GSID>
40675

> <DSSTox_FileID_Sort>
4216

> <TS_ChemName>
Glimepiride

> <TS_ChemName_Synonyms>


> <TS_CASRN>
93479-97-1

> <CASRN_ChemName_Relationship>
primary

> <TS_Description>
single chemical compound

> <ChemNote>
stereochem

> <STRUCTURE_Shown>
tested chemical

> <STRUCTURE_Formula>
C24H34N4O5S

> <STRUCTURE_MW>
490.6156

> <STRUCTURE_ChemType>
defined organic

> <STRUCTURE_DefinedOrganicForm>
parent

> <STRUCTURE_IUPAC>
3-ethyl-4-methyl-N-[2-(4-{[(trans-4-methylcyclohexyl)carbamoyl]sulfamoyl}phenyl)ethyl]-2-oxo-2,5-dihydro-1H-pyrrole-1-carboxamide

> <STRUCTURE_SMILES>
CC=3CN(C(=O)NCCc1ccc(cc1)S(=O)(=O)NC(=O)N[C@@H]2CC[C@@H](C)CC2)C(=O)C=3CC

> <STRUCTURE_SMILES_Desalt>
CC=3CN(C(=O)NCCc1ccc(cc1)S(=O)(=O)NC(=O)N[C@@H]2CC[C@@H](C)CC2)C(=O)C=3CC

> <Substance_modify_yyyymmdd>
20080429

$$$$
