935-69-3
ChemmineR-0915142007XD

 11 12  0  0  0  0  0  0  0  0  1 V2000
    3.9808   -3.6719    0.0000 C   0  0  0  0  0  0  0  0  0  0  0  0
    0.0000   -0.6656    0.0000 C   0  0  0  0  0  0  0  0  0  0  0  0
    4.3506   -1.3313    0.0000 C   0  0  0  0  0  0  0  0  0  0  0  0
    2.3058   -1.9926    0.0000 C   0  0  0  0  0  0  0  0  0  0  0  0
    1.1529   -2.6582    0.0000 C   0  0  0  0  0  0  0  0  0  0  0  0
    2.3058   -0.6656    0.0000 C   0  0  0  0  0  0  0  0  0  0  0  0
    1.1529   -3.9895    0.0000 N   0  0  0  0  0  0  0  0  0  0  0  0
    0.0000   -1.9926    0.0000 N   0  0  0  0  0  0  0  0  0  0  0  0
    1.1529    0.0000    0.0000 N   0  0  0  0  0  0  0  0  0  0  0  0
    3.5675   -0.2523    0.0000 N   0  0  0  0  0  0  0  0  0  0  0  0
    3.5675   -2.4059    0.0000 N   0  0  0  0  0  0  0  0  0  0  0  0
  1 11  1  0  0  0  0
  2  8  2  0  0  0  0
  2  9  1  0  0  0  0
  3 10  2  0  0  0  0
  3 11  1  0  0  0  0
  4  5  2  0  0  0  0
  4  6  1  0  0  0  0
  4 11  1  0  0  0  0
  5  7  1  0  0  0  0
  5  8  1  0  0  0  0
  6  9  2  0  0  0  0
  6 10  1  0  0  0  0
M  END
> <ID>
14240

> <Formula>
C6H7N5

> <FW>
149.1533

> <DSSTox_CID>
29335

> <DSSTox_RID>
83451

> <DSSTox_GSID>
49376

> <DSSTox_FileID_Sort>
8126

> <TS_ChemName>
7-Methyladenine

> <TS_ChemName_Synonyms>


> <TS_CASRN>
935-69-3

> <CASRN_ChemName_Relationship>
primary

> <TS_Description>
single chemical compound

> <ChemNote>


> <STRUCTURE_Shown>
tested chemical

> <STRUCTURE_Formula>
C6H7N5

> <STRUCTURE_MW>
149.1533

> <STRUCTURE_ChemType>
defined organic

> <STRUCTURE_DefinedOrganicForm>
parent

> <STRUCTURE_IUPAC>
7-methyl-7H-purin-6-amine

> <STRUCTURE_SMILES>
Nc1ncnc2ncn(C)c12

> <STRUCTURE_SMILES_Desalt>
Nc1ncnc2ncn(C)c12

> <Substance_modify_yyyymmdd>
20111204

$$$$
