93793-83-0
ChemmineR-0915142007XD

 26 26  0  0  0  0  0  0  0  0  1 V2000
   11.5194   -3.9875    0.0000 N    0  0  0  0  0  0  0  0  0  0  0  0
    1.1393   -1.9874    0.0000 C    0  0  0  0  0  0  0  0  0  0  0  0
    1.1393   -4.6458    0.0000 C    0  0  0  0  0  0  0  0  0  0  0  0
    1.1393   -0.6583    0.0000 O    0  0  0  0  0  0  0  0  0  0  0  0
    2.3039   -3.9875    0.0000 O    0  0  0  0  0  0  0  0  0  0  0  0
   11.5194   -2.6583    0.0000 C    0  0  0  0  0  0  0  0  0  0  0  0
    0.0000   -3.9875    0.0000 O    0  0  0  0  0  0  0  0  0  0  0  0
   10.3548   -1.9874    0.0000 C    0  0  0  0  0  0  0  0  0  0  0  0
    2.3039   -2.6583    0.0000 N    0  0  0  0  0  0  0  0  0  0  0  0
    0.0000   -2.6583    0.0000 C    0  0  0  0  0  0  0  0  0  0  0  0
    9.2156   -2.6583    0.0000 C    0  0  0  0  0  0  0  0  0  0  0  0
    8.0636   -1.9874    0.0000 C    0  0  0  0  0  0  0  0  0  0  0  0
    4.5951   -2.6583    0.0000 C    0  0  0  0  0  0  0  0  0  0  0  0
    6.9117   -2.6583    0.0000 O    0  0  0  0  0  0  0  0  0  0  0  0
   10.3548   -4.6458    0.0000 C    0  0  0  0  0  0  0  0  0  0  0  0
   12.6587   -4.6458    0.0000 C    0  0  0  0  0  0  0  0  0  0  0  0
    9.2156    0.0000    0.0000 C    0  0  0  0  0  0  0  0  0  0  0  0
    3.4432   -1.9874    0.0000 C    0  0  0  0  0  0  0  0  0  0  0  0
    1.1393   -5.9749    0.0000 C    0  0  0  0  0  0  0  0  0  0  0  0
   10.3548   -0.6583    0.0000 C    0  0  0  0  0  0  0  0  0  0  0  0
    5.7471   -1.9874    0.0000 C    0  0  0  0  0  0  0  0  0  0  0  0
    8.0636   -0.6583    0.0000 C    0  0  0  0  0  0  0  0  0  0  0  0
   10.3548   -5.9749    0.0000 C    0  0  0  0  0  0  0  0  0  0  0  0
   12.6587   -5.9749    0.0000 C    0  0  0  0  0  0  0  0  0  0  0  0
   11.5194   -6.6458    0.0000 C    0  0  0  0  0  0  0  0  0  0  0  0
    6.2661   -5.1901    0.0000 Cl   0  0  0  0  0  0  0  0  0  0  0  0
  1  6  1  0  0  0  0
  1 15  1  0  0  0  0
  1 16  1  0  0  0  0
  2  9  1  0  0  0  0
  2  4  2  0  0  0  0
  2 10  1  0  0  0  0
  3  7  1  0  0  0  0
  3  5  2  0  0  0  0
  3 19  1  0  0  0  0
  6  8  1  0  0  0  0
  7 10  1  0  0  0  0
  8 11  1  0  0  0  0
  8 20  2  0  0  0  0
  9 18  1  0  0  0  0
 11 12  2  0  0  0  0
 12 14  1  0  0  0  0
 12 22  1  0  0  0  0
 13 21  1  0  0  0  0
 13 18  1  0  0  0  0
 14 21  1  0  0  0  0
 15 23  1  0  0  0  0
 16 24  1  0  0  0  0
 17 20  1  0  0  0  0
 17 22  2  0  0  0  0
 23 25  1  0  0  0  0
 24 25  1  0  0  0  0
M  END
> <ID>
11874

> <Formula>
C19H29ClN2O4

> <FW>
384.8976 (348.4366+36.4609)

> <DSSTox_CID>
26670

> <DSSTox_RID>
81809

> <DSSTox_GSID>
46670

> <DSSTox_FileID_Sort>
6490

> <TS_ChemName>
Roxatidine acetate hydrochloride

> <TS_ChemName_Synonyms>


> <TS_CASRN>
93793-83-0

> <CASRN_ChemName_Relationship>
primary

> <TS_Description>
single chemical compound

> <ChemNote>
parent [78628-28-1]

> <STRUCTURE_Shown>
tested chemical

> <STRUCTURE_Formula>
C19H29ClN2O4

> <STRUCTURE_MW>
384.8976

> <STRUCTURE_ChemType>
defined organic

> <STRUCTURE_DefinedOrganicForm>
complex

> <STRUCTURE_IUPAC>
2-oxo-2-({3-[3-(piperidin-1-ylmethyl)phenoxy]propyl}amino)ethyl acetate hydrochloride (1:1)

> <STRUCTURE_SMILES>
Cl.CC(=O)OCC(=O)NCCCOc2cc(CN1CCCCC1)ccc2

> <STRUCTURE_SMILES_Desalt>
CC(=O)OCC(=O)NCCCOc2cc(CN1CCCCC1)ccc2

> <Substance_modify_yyyymmdd>
20110808

$$$$
