938-16-9
ChemmineR-0915142007XD

 12 12  0  0  0  0  0  0  0  0  1 V2000
    2.3062   -1.3343    0.0000 C   0  0  0  0  0  0  0  0  0  0  0  0
    2.3062    0.0000    0.0000 O   0  0  0  0  0  0  0  0  0  0  0  0
    1.1560   -2.0071    0.0000 C   0  0  0  0  0  0  0  0  0  0  0  0
    0.4831   -0.8512    0.0000 C   0  0  0  0  0  0  0  0  0  0  0  0
    1.8116   -3.1574    0.0000 C   0  0  0  0  0  0  0  0  0  0  0  0
    0.0000   -2.6628    0.0000 C   0  0  0  0  0  0  0  0  0  0  0  0
    5.7511   -2.0071    0.0000 C   0  0  0  0  0  0  0  0  0  0  0  0
    5.7511   -3.3356    0.0000 C   0  0  0  0  0  0  0  0  0  0  0  0
    4.5951   -3.9913    0.0000 C   0  0  0  0  0  0  0  0  0  0  0  0
    3.4449   -3.3356    0.0000 C   0  0  0  0  0  0  0  0  0  0  0  0
    3.4449   -2.0071    0.0000 C   0  0  0  0  0  0  0  0  0  0  0  0
    4.5951   -1.3343    0.0000 C   0  0  0  0  0  0  0  0  0  0  0  0
  1  3  1  0  0  0  0
  1  2  2  0  0  0  0
  1 11  1  0  0  0  0
  3  4  1  0  0  0  0
  3  5  1  0  0  0  0
  3  6  1  0  0  0  0
  7 12  2  0  0  0  0
  7  8  1  0  0  0  0
  8  9  2  0  0  0  0
  9 10  1  0  0  0  0
 10 11  2  0  0  0  0
 11 12  1  0  0  0  0
M  END
> <ID>
13271

> <Formula>
C11H14O

> <FW>
162.2283

> <DSSTox_CID>
28184

> <DSSTox_RID>
82743

> <DSSTox_GSID>
48209

> <DSSTox_FileID_Sort>
7420

> <TS_ChemName>
tert-Butyl phenyl ketone

> <TS_ChemName_Synonyms>


> <TS_CASRN>
938-16-9

> <CASRN_ChemName_Relationship>
primary

> <TS_Description>
single chemical compound

> <ChemNote>


> <STRUCTURE_Shown>
tested chemical

> <STRUCTURE_Formula>
C11H14O

> <STRUCTURE_MW>
162.2283

> <STRUCTURE_ChemType>
defined organic

> <STRUCTURE_DefinedOrganicForm>
parent

> <STRUCTURE_IUPAC>
2,2-dimethyl-1-phenylpropan-1-one

> <STRUCTURE_SMILES>
O=C(c1ccccc1)C(C)(C)C

> <STRUCTURE_SMILES_Desalt>
O=C(c1ccccc1)C(C)(C)C

> <Substance_modify_yyyymmdd>
20110902

$$$$
