938-85-2
ChemmineR-0915142007XD

 12 13  0  0  0  0  0  0  0  0  1 V2000
    0.0000   -2.6580    0.0000 C   0  0  0  0  0  0  0  0  0  0  0  0
    5.5032   -1.3318    0.0000 C   0  0  0  0  0  0  0  0  0  0  0  0
    3.4560   -1.9921    0.0000 C   0  0  0  0  0  0  0  0  0  0  0  0
    3.4560   -0.6659    0.0000 C   0  0  0  0  0  0  0  0  0  0  0  0
    2.3058   -2.6580    0.0000 C   0  0  0  0  0  0  0  0  0  0  0  0
    1.1502   -0.6659    0.0000 C   0  0  0  0  0  0  0  0  0  0  0  0
    0.0000    0.0000    0.0000 N   0  0  0  0  0  0  0  0  0  0  0  0
    4.7217   -2.4049    0.0000 N   0  0  0  0  0  0  0  0  0  0  0  0
    4.7217   -0.2531    0.0000 N   0  0  0  0  0  0  0  0  0  0  0  0
    2.3058    0.0000    0.0000 N   0  0  0  0  0  0  0  0  0  0  0  0
    1.1502   -1.9921    0.0000 N   0  0  0  0  0  0  0  0  0  0  0  0
    2.3058   -3.9898    0.0000 O   0  0  0  0  0  0  0  0  0  0  0  0
  1 11  1  0  0  0  0
  2  8  2  0  0  0  0
  2  9  1  0  0  0  0
  3  4  2  0  0  0  0
  3  5  1  0  0  0  0
  3  8  1  0  0  0  0
  4  9  1  0  0  0  0
  4 10  1  0  0  0  0
  5 11  1  0  0  0  0
  5 12  2  0  0  0  0
  6  7  2  0  0  0  0
  6 10  1  0  0  0  0
  6 11  1  0  0  0  0
M  END
> <ID>
14241

> <Formula>
C6H7N5O

> <FW>
165.1527

> <DSSTox_CID>
29336

> <DSSTox_RID>
83452

> <DSSTox_GSID>
49377

> <DSSTox_FileID_Sort>
8127

> <TS_ChemName>
1-Methylguanine

> <TS_ChemName_Synonyms>


> <TS_CASRN>
938-85-2

> <CASRN_ChemName_Relationship>
primary

> <TS_Description>
single chemical compound

> <ChemNote>


> <STRUCTURE_Shown>
tested chemical

> <STRUCTURE_Formula>
C6H7N5O

> <STRUCTURE_MW>
165.1527

> <STRUCTURE_ChemType>
defined organic

> <STRUCTURE_DefinedOrganicForm>
parent

> <STRUCTURE_IUPAC>
2-imino-1-methyl-1,2,3,9-tetrahydro-6H-purin-6-one

> <STRUCTURE_SMILES>
N=C2Nc1ncnc1C(=O)N2C

> <STRUCTURE_SMILES_Desalt>
N=C2Nc1ncnc1C(=O)N2C

> <Substance_modify_yyyymmdd>
20111204

$$$$
