938-73-8
ChemmineR-0915142007XD

 12 12  0  0  0  0  0  0  0  0  1 V2000
    0.0000   -5.7579    0.0000 N   0  0  0  0  0  0  0  0  0  0  0  0
    0.6622   -4.6063    0.0000 C   0  0  0  0  0  0  0  0  0  0  0  0
    0.0000   -3.4547    0.0000 O   0  0  0  0  0  0  0  0  0  0  0  0
    1.9922   -4.6063    0.0000 C   0  0  0  0  0  0  0  0  0  0  0  0
    2.6601   -3.4547    0.0000 C   0  0  0  0  0  0  0  0  0  0  0  0
    3.9902   -3.4547    0.0000 C   0  0  0  0  0  0  0  0  0  0  0  0
    4.6524   -4.6063    0.0000 C   0  0  0  0  0  0  0  0  0  0  0  0
    3.9902   -5.7579    0.0000 C   0  0  0  0  0  0  0  0  0  0  0  0
    2.6601   -5.7579    0.0000 C   0  0  0  0  0  0  0  0  0  0  0  0
    1.9922   -2.3032    0.0000 O   0  0  0  0  0  0  0  0  0  0  0  0
    2.6601   -1.1516    0.0000 C   0  0  0  0  0  0  0  0  0  0  0  0
    1.9922    0.0000    0.0000 C   0  0  0  0  0  0  0  0  0  0  0  0
  1  2  1  0  0  0  0
  2  3  2  0  0  0  0
  2  4  1  0  0  0  0
  4  5  2  0  0  0  0
  4  9  1  0  0  0  0
  5  6  1  0  0  0  0
  5 10  1  0  0  0  0
  6  7  2  0  0  0  0
  7  8  1  0  0  0  0
  8  9  2  0  0  0  0
 10 11  1  0  0  0  0
 11 12  1  0  0  0  0
M  END
> <ID>
556

> <Formula>
C9H11NO2

> <FW>
165.1891

> <DSSTox_CID>
581

> <DSSTox_RID>
75671

> <DSSTox_GSID>
20581

> <DSSTox_FileID_Sort>
355

> <TS_ChemName>
2-Ethoxybenzamide

> <TS_ChemName_Synonyms>
2-Ethoxybenzamide (Ethenzamide) (o-Ethoxybenzamide)

> <TS_CASRN>
938-73-8

> <CASRN_ChemName_Relationship>
primary

> <TS_Description>
single chemical compound

> <ChemNote>


> <STRUCTURE_Shown>
tested chemical

> <STRUCTURE_Formula>
C9H11NO2

> <STRUCTURE_MW>
165.1891

> <STRUCTURE_ChemType>
defined organic

> <STRUCTURE_DefinedOrganicForm>
parent

> <STRUCTURE_IUPAC>
2-ethoxybenzamide

> <STRUCTURE_SMILES>
CCOc1ccccc1C(N)=O

> <STRUCTURE_SMILES_Desalt>
CCOc1ccccc1C(N)=O

> <Substance_modify_yyyymmdd>
20080429

$$$$
