939-48-0
ChemmineR-0915142007XD

 12 12  0  0  0  0  0  0  0  0  1 V2000
    3.4531   -1.3329    0.0000 C   0  0  0  0  0  0  0  0  0  0  0  0
    3.4531    0.0000    0.0000 O   0  0  0  0  0  0  0  0  0  0  0  0
    2.2998   -1.9890    0.0000 C   0  0  0  0  0  0  0  0  0  0  0  0
    4.6064   -1.9890    0.0000 O   0  0  0  0  0  0  0  0  0  0  0  0
    1.1740   -1.3329    0.0000 C   0  0  0  0  0  0  0  0  0  0  0  0
    2.2998   -3.3219    0.0000 C   0  0  0  0  0  0  0  0  0  0  0  0
    0.0000   -1.9890    0.0000 C   0  0  0  0  0  0  0  0  0  0  0  0
    1.1740   -3.9987    0.0000 C   0  0  0  0  0  0  0  0  0  0  0  0
    0.0000   -3.3219    0.0000 C   0  0  0  0  0  0  0  0  0  0  0  0
    5.7528   -1.3329    0.0000 C   0  0  0  0  0  0  0  0  0  0  0  0
    5.7528    0.0000    0.0000 C   0  0  0  0  0  0  0  0  0  0  0  0
    6.9062   -2.0097    0.0000 C   0  0  0  0  0  0  0  0  0  0  0  0
  1  2  2  0  0  0  0
  1  3  1  0  0  0  0
  1  4  1  0  0  0  0
  3  5  2  0  0  0  0
  3  6  1  0  0  0  0
  4 10  1  0  0  0  0
  5  7  1  0  0  0  0
  6  8  2  0  0  0  0
  7  9  2  0  0  0  0
  8  9  1  0  0  0  0
 10 11  1  0  0  0  0
 10 12  1  0  0  0  0
M  END
> <ID>
10398

> <Formula>
C10H12O2

> <FW>
164.2011

> <DSSTox_CID>
24746

> <DSSTox_RID>
80440

> <DSSTox_GSID>
44746

> <DSSTox_FileID_Sort>
5122

> <TS_ChemName>
Propan-2-yl benzoate

> <TS_ChemName_Synonyms>
Propan-2-yl benzoate (Benzoic acid, 1-methylethyl ester)

> <TS_CASRN>
939-48-0

> <CASRN_ChemName_Relationship>
primary

> <TS_Description>
single chemical compound

> <ChemNote>


> <STRUCTURE_Shown>
tested chemical

> <STRUCTURE_Formula>
C10H12O2

> <STRUCTURE_MW>
164.2011

> <STRUCTURE_ChemType>
defined organic

> <STRUCTURE_DefinedOrganicForm>
parent

> <STRUCTURE_IUPAC>
propan-2-yl benzoate

> <STRUCTURE_SMILES>
CC(C)OC(=O)c1ccccc1

> <STRUCTURE_SMILES_Desalt>
CC(C)OC(=O)c1ccccc1

> <Substance_modify_yyyymmdd>
20091116

$$$$
