939-97-9
ChemmineR-0915142007XD

 12 12  0  0  0  0  0  0  0  0  1 V2000
    6.6431   -1.3242    0.0000 C   0  0  0  0  0  0  0  0  0  0  0  0
    7.3162   -2.4802    0.0000 O   0  0  0  0  0  0  0  0  0  0  0  0
    5.3116   -1.3242    0.0000 C   0  0  0  0  0  0  0  0  0  0  0  0
    4.6604   -2.4802    0.0000 C   0  0  0  0  0  0  0  0  0  0  0  0
    4.6604   -0.1756    0.0000 C   0  0  0  0  0  0  0  0  0  0  0  0
    3.3289   -2.4802    0.0000 C   0  0  0  0  0  0  0  0  0  0  0  0
    3.3289   -0.1756    0.0000 C   0  0  0  0  0  0  0  0  0  0  0  0
    2.6558   -1.3242    0.0000 C   0  0  0  0  0  0  0  0  0  0  0  0
    1.3316   -1.3242    0.0000 C   0  0  0  0  0  0  0  0  0  0  0  0
    1.3316   -2.6558    0.0000 C   0  0  0  0  0  0  0  0  0  0  0  0
    1.3316    0.0000    0.0000 C   0  0  0  0  0  0  0  0  0  0  0  0
    0.0000   -1.3242    0.0000 C   0  0  0  0  0  0  0  0  0  0  0  0
  1  2  2  0  0  0  0
  1  3  1  0  0  0  0
  3  4  2  0  0  0  0
  3  5  1  0  0  0  0
  4  6  1  0  0  0  0
  5  7  2  0  0  0  0
  6  8  2  0  0  0  0
  7  8  1  0  0  0  0
  8  9  1  0  0  0  0
  9 10  1  0  0  0  0
  9 11  1  0  0  0  0
  9 12  1  0  0  0  0
M  END
> <ID>
5092

> <Formula>
C11H14O

> <FW>
162.2283

> <DSSTox_CID>
7343

> <DSSTox_RID>
78416

> <DSSTox_GSID>
27343

> <DSSTox_FileID_Sort>
3099

> <TS_ChemName>
4-tert-Butylbenzaldehyde

> <TS_ChemName_Synonyms>
Benzaldehyde, 4-(1,1-dimethylethyl)-

> <TS_CASRN>
939-97-9

> <CASRN_ChemName_Relationship>
primary

> <TS_Description>
single chemical compound

> <ChemNote>


> <STRUCTURE_Shown>
tested chemical

> <STRUCTURE_Formula>
C11H14O

> <STRUCTURE_MW>
162.2283

> <STRUCTURE_ChemType>
defined organic

> <STRUCTURE_DefinedOrganicForm>
parent

> <STRUCTURE_IUPAC>
4-tert-butylbenzaldehyde

> <STRUCTURE_SMILES>
CC(C)(C)c1ccc(C=O)cc1

> <STRUCTURE_SMILES_Desalt>
CC(C)(C)c1ccc(C=O)cc1

> <Substance_modify_yyyymmdd>
20080429

$$$$
