93957-55-2
ChemmineR-0915142007XD

 31 32  0  0  1  0  0  0  0  0  2 V2000
    0.6924    0.0000    0.0000 Na   0  3  0  0  0  0  0  0  0  0  0  0
    0.0000   -1.4983    0.0000 O    0  0  0  0  0  0  0  0  0  0  0  0
    1.3281   -1.4983    0.0000 C    0  0  0  0  0  0  0  0  0  0  0  0
    1.9864   -2.6334    0.0000 C    0  0  0  0  0  0  0  0  0  0  0  0
    3.3258   -2.6334    0.0000 C    0  0  0  0  0  0  0  0  0  0  0  0
    3.9842   -3.7912    0.0000 C    0  0  0  0  0  0  0  0  0  0  0  0
    5.3122   -3.7912    0.0000 C    0  0  0  0  0  0  0  0  0  0  0  0
    5.9933   -4.9490    0.0000 C    0  0  0  0  0  0  0  0  0  0  0  0
    5.3122   -6.0954    0.0000 C    0  0  0  0  0  0  0  0  0  0  0  0
    5.9933   -7.2532    0.0000 C    0  0  0  0  0  0  0  0  0  0  0  0
    5.4371   -8.4564    0.0000 C    0  0  0  0  0  0  0  0  0  0  0  0
    6.4359   -9.3645    0.0000 C    0  0  0  0  0  0  0  0  0  0  0  0
    7.5937   -8.6834    0.0000 C    0  0  0  0  0  0  0  0  0  0  0  0
    7.3100   -7.3894    0.0000 N    0  0  0  0  0  0  0  0  0  0  0  0
    8.2067   -6.4019    0.0000 C    0  0  0  0  0  0  0  0  0  0  0  0
    9.5007   -6.6743    0.0000 C    0  0  0  0  0  0  0  0  0  0  0  0
    7.7867   -5.1419    0.0000 C    0  0  0  0  0  0  0  0  0  0  0  0
    8.7288   -9.3645    0.0000 C    0  0  0  0  0  0  0  0  0  0  0  0
    8.7288  -10.6925    0.0000 C    0  0  0  0  0  0  0  0  0  0  0  0
    7.5937  -11.3509    0.0000 C    0  0  0  0  0  0  0  0  0  0  0  0
    6.4359  -10.6925    0.0000 C    0  0  0  0  0  0  0  0  0  0  0  0
    4.1431   -8.7288    0.0000 C    0  0  0  0  0  0  0  0  0  0  0  0
    3.7458  -10.0001    0.0000 C    0  0  0  0  0  0  0  0  0  0  0  0
    2.4404  -10.2725    0.0000 C    0  0  0  0  0  0  0  0  0  0  0  0
    1.5437   -9.2964    0.0000 C    0  0  0  0  0  0  0  0  0  0  0  0
    1.9410   -8.0251    0.0000 C    0  0  0  0  0  0  0  0  0  0  0  0
    3.2463   -7.7526    0.0000 C    0  0  0  0  0  0  0  0  0  0  0  0
    0.2384   -9.5688    0.0000 F    0  0  0  0  0  0  0  0  0  0  0  0
    5.9933   -2.6334    0.0000 O    0  0  0  0  0  0  0  0  0  0  0  0
    3.9842   -1.4983    0.0000 O    0  0  0  0  0  0  0  0  0  0  0  0
    1.9864   -0.3405    0.0000 O    0  5  0  0  0  0  0  0  0  0  0  0
  2  3  2  0  0  0  0
  3  4  1  0  0  0  0
  3 31  1  0  0  0  0
  4  5  1  0  0  0  0
  5  6  1  0  0  0  0
  5 30  1  6  0  0  0
  6  7  1  0  0  0  0
  7  8  1  0  0  0  0
  7 29  1  6  0  0  0
  8  9  2  0  0  0  0
  9 10  1  0  0  0  0
 10 11  2  0  0  0  0
 10 14  1  0  0  0  0
 11 12  1  0  0  0  0
 11 22  1  0  0  0  0
 12 13  2  0  0  0  0
 12 21  1  0  0  0  0
 13 14  1  0  0  0  0
 13 18  1  0  0  0  0
 14 15  1  0  0  0  0
 15 16  1  0  0  0  0
 15 17  1  0  0  0  0
 18 19  2  0  0  0  0
 19 20  1  0  0  0  0
 20 21  2  0  0  0  0
 22 23  2  0  0  0  0
 22 27  1  0  0  0  0
 23 24  1  0  0  0  0
 24 25  2  0  0  0  0
 25 26  1  0  0  0  0
 25 28  1  0  0  0  0
 26 27  2  0  0  0  0
M  END
> <ID>
10409

> <Formula>
C24H25FNNaO4

> <FW>
433.4478 (22.9892+410.4586)

> <DSSTox_CID>
24758

> <DSSTox_RID>
80451

> <DSSTox_GSID>
44758

> <DSSTox_FileID_Sort>
5133

> <TS_ChemName>
Fluvastatin sodium

> <TS_ChemName_Synonyms>


> <TS_CASRN>
93957-55-2

> <CASRN_ChemName_Relationship>
primary

> <TS_Description>
single chemical compound

> <ChemNote>
stereochem

> <STRUCTURE_Shown>
tested chemical

> <STRUCTURE_Formula>
C24H25FNNaO4

> <STRUCTURE_MW>
433.4478

> <STRUCTURE_ChemType>
defined organic

> <STRUCTURE_DefinedOrganicForm>
salt

> <STRUCTURE_IUPAC>
sodium (3R,5S,6E)-7-[3-(4-fluorophenyl)-1-(propan-2-yl)-1H-indol-2-yl]-3,5-dihydroxyhept-6-enoate

> <STRUCTURE_SMILES>
[Na+].[O-]C(=O)C[C@H](O)C[C@H](O)/C=C/c2c(c1ccccc1n2C(C)C)c3ccc(F)cc3

> <STRUCTURE_SMILES_Desalt>
O=C(O)C[C@H](O)C[C@H](O)/C=C/c2c(c1ccccc1n2C(C)C)c3ccc(F)cc3

> <Substance_modify_yyyymmdd>
20091116

$$$$
