94-08-6
ChemmineR-0915142007XD

 12 12  0  0  0  0  0  0  0  0  1 V2000
    4.6162   -1.2993    0.0000 C   0  0  0  0  0  0  0  0  0  0  0  0
    4.6162    0.0000    0.0000 O   0  0  0  0  0  0  0  0  0  0  0  0
    3.4541   -1.9772    0.0000 C   0  0  0  0  0  0  0  0  0  0  0  0
    5.7702   -1.9772    0.0000 O   0  0  0  0  0  0  0  0  0  0  0  0
    2.3000   -1.2993    0.0000 C   0  0  0  0  0  0  0  0  0  0  0  0
    3.4541   -3.3088    0.0000 C   0  0  0  0  0  0  0  0  0  0  0  0
    1.1379   -1.9772    0.0000 C   0  0  0  0  0  0  0  0  0  0  0  0
    2.3000   -3.9544    0.0000 C   0  0  0  0  0  0  0  0  0  0  0  0
    1.1379   -3.3088    0.0000 C   0  0  0  0  0  0  0  0  0  0  0  0
    0.0000   -3.9544    0.0000 C   0  0  0  0  0  0  0  0  0  0  0  0
    6.9162   -1.2993    0.0000 C   0  0  0  0  0  0  0  0  0  0  0  0
    8.0702   -1.9772    0.0000 C   0  0  0  0  0  0  0  0  0  0  0  0
  1  2  2  0  0  0  0
  1  3  1  0  0  0  0
  1  4  1  0  0  0  0
  3  5  2  0  0  0  0
  3  6  1  0  0  0  0
  4 11  1  0  0  0  0
  5  7  1  0  0  0  0
  6  8  2  0  0  0  0
  7  9  2  0  0  0  0
  8  9  1  0  0  0  0
  9 10  1  0  0  0  0
 11 12  1  0  0  0  0
M  END
> <ID>
13273

> <Formula>
C10H12O2

> <FW>
164.2011

> <DSSTox_CID>
28186

> <DSSTox_RID>
82745

> <DSSTox_GSID>
48211

> <DSSTox_FileID_Sort>
7422

> <TS_ChemName>
Ethyl 4-methylbenzoate

> <TS_ChemName_Synonyms>


> <TS_CASRN>
94-08-6

> <CASRN_ChemName_Relationship>
primary

> <TS_Description>
single chemical compound

> <ChemNote>


> <STRUCTURE_Shown>
tested chemical

> <STRUCTURE_Formula>
C10H12O2

> <STRUCTURE_MW>
164.2011

> <STRUCTURE_ChemType>
defined organic

> <STRUCTURE_DefinedOrganicForm>
parent

> <STRUCTURE_IUPAC>
ethyl 4-methylbenzoate

> <STRUCTURE_SMILES>
O=C(OCC)c1ccc(C)cc1

> <STRUCTURE_SMILES_Desalt>
O=C(OCC)c1ccc(C)cc1

> <Substance_modify_yyyymmdd>
20110715

$$$$
