94-07-5
ChemmineR-0915142007XD

 12 12  0  0  0  0  0  0  0  0  1 V2000
    1.1557   -1.3310    0.0000 C   0  0  0  0  0  0  0  0  0  0  0  0
    1.1557    0.0000    0.0000 O   0  0  0  0  0  0  0  0  0  0  0  0
    2.3034   -1.9846    0.0000 C   0  0  0  0  0  0  0  0  0  0  0  0
    0.0000   -1.9846    0.0000 C   0  0  0  0  0  0  0  0  0  0  0  0
    0.0000   -3.3156    0.0000 C   0  0  0  0  0  0  0  0  0  0  0  0
    2.3034   -3.3156    0.0000 C   0  0  0  0  0  0  0  0  0  0  0  0
    1.1557   -3.9851    0.0000 C   0  0  0  0  0  0  0  0  0  0  0  0
    1.1557   -5.3162    0.0000 C   0  0  0  0  0  0  0  0  0  0  0  0
    2.3034   -5.9857    0.0000 C   0  0  0  0  0  0  0  0  0  0  0  0
    0.0000   -5.9857    0.0000 O   0  0  0  0  0  0  0  0  0  0  0  0
    2.3034   -7.3167    0.0000 N   0  0  0  0  0  0  0  0  0  0  0  0
    3.4591   -7.9703    0.0000 C   0  0  0  0  0  0  0  0  0  0  0  0
  1  2  1  0  0  0  0
  1  3  2  0  0  0  0
  1  4  1  0  0  0  0
  3  6  1  0  0  0  0
  4  5  2  0  0  0  0
  5  7  1  0  0  0  0
  6  7  2  0  0  0  0
  7  8  1  0  0  0  0
  8  9  1  0  0  0  0
  8 10  1  0  0  0  0
  9 11  1  0  0  0  0
 11 12  1  0  0  0  0
M  END
> <ID>
6276

> <Formula>
C9H13NO2

> <FW>
167.205

> <DSSTox_CID>
10588

> <DSSTox_RID>
78850

> <DSSTox_GSID>
30588

> <DSSTox_FileID_Sort>
3532

> <TS_ChemName>
p-Synephrine

> <TS_ChemName_Synonyms>


> <TS_CASRN>
94-07-5

> <CASRN_ChemName_Relationship>
primary

> <TS_Description>
single chemical compound

> <ChemNote>


> <STRUCTURE_Shown>
tested chemical

> <STRUCTURE_Formula>
C9H13NO2

> <STRUCTURE_MW>
167.205

> <STRUCTURE_ChemType>
defined organic

> <STRUCTURE_DefinedOrganicForm>
parent

> <STRUCTURE_IUPAC>
4-[1-hydroxy-2-(methylamino)ethyl]phenol

> <STRUCTURE_SMILES>
OC(CNC)c1ccc(O)cc1

> <STRUCTURE_SMILES_Desalt>
OC(CNC)c1ccc(O)cc1

> <Substance_modify_yyyymmdd>
20080429

$$$$
