94-02-0
ChemmineR-0915142007XD

 14 14  0  0  0  0  0  0  0  0  1 V2000
    2.3004   -1.9968    0.0000 C   0  0  0  0  0  0  0  0  0  0  0  0
    3.4598   -1.3250    0.0000 C   0  0  0  0  0  0  0  0  0  0  0  0
    4.6100   -1.9968    0.0000 C   0  0  0  0  0  0  0  0  0  0  0  0
    5.7602   -1.3250    0.0000 C   0  0  0  0  0  0  0  0  0  0  0  0
    6.9104   -1.9968    0.0000 O   0  0  0  0  0  0  0  0  0  0  0  0
    8.0514   -1.3250    0.0000 C   0  0  0  0  0  0  0  0  0  0  0  0
    9.2016   -1.9968    0.0000 C   0  0  0  0  0  0  0  0  0  0  0  0
    5.7602    0.0000    0.0000 O   0  0  0  0  0  0  0  0  0  0  0  0
    3.4598    0.0000    0.0000 O   0  0  0  0  0  0  0  0  0  0  0  0
    1.1502   -1.3250    0.0000 C   0  0  0  0  0  0  0  0  0  0  0  0
    0.0000   -1.9968    0.0000 C   0  0  0  0  0  0  0  0  0  0  0  0
    0.0000   -3.3310    0.0000 C   0  0  0  0  0  0  0  0  0  0  0  0
    1.1502   -3.9843    0.0000 C   0  0  0  0  0  0  0  0  0  0  0  0
    2.3004   -3.3310    0.0000 C   0  0  0  0  0  0  0  0  0  0  0  0
  1  2  1  0  0  0  0
  1 10  1  0  0  0  0
  1 14  2  0  0  0  0
  2  3  1  0  0  0  0
  2  9  2  0  0  0  0
  3  4  1  0  0  0  0
  4  5  1  0  0  0  0
  4  8  2  0  0  0  0
  5  6  1  0  0  0  0
  6  7  1  0  0  0  0
 10 11  2  0  0  0  0
 11 12  1  0  0  0  0
 12 13  2  0  0  0  0
 13 14  1  0  0  0  0
M  END
> <ID>
12245

> <Formula>
C11H12O3

> <FW>
192.2112

> <DSSTox_CID>
27094

> <DSSTox_RID>
82106

> <DSSTox_GSID>
47094

> <DSSTox_FileID_Sort>
6787

> <TS_ChemName>
Ethyl benzoylacetate

> <TS_ChemName_Synonyms>


> <TS_CASRN>
94-02-0

> <CASRN_ChemName_Relationship>
primary

> <TS_Description>
single chemical compound

> <ChemNote>


> <STRUCTURE_Shown>
tested chemical

> <STRUCTURE_Formula>
C11H12O3

> <STRUCTURE_MW>
192.2112

> <STRUCTURE_ChemType>
defined organic

> <STRUCTURE_DefinedOrganicForm>
parent

> <STRUCTURE_IUPAC>
ethyl 3-oxo-3-phenylpropanoate

> <STRUCTURE_SMILES>
O=C(CC(=O)OCC)c1ccccc1

> <STRUCTURE_SMILES_Desalt>
O=C(CC(=O)OCC)c1ccccc1

> <Substance_modify_yyyymmdd>
20100429

$$$$
