94-12-2
ChemmineR-0915142007XD

 13 13  0  0  0  0  0  0  0  0  1 V2000
    9.2120   -1.3265    0.0000 C   0  0  0  0  0  0  0  0  0  0  0  0
    8.0605   -1.9898    0.0000 C   0  0  0  0  0  0  0  0  0  0  0  0
    6.9090   -1.3265    0.0000 C   0  0  0  0  0  0  0  0  0  0  0  0
    5.7483   -1.9898    0.0000 O   0  0  0  0  0  0  0  0  0  0  0  0
    4.5968   -1.3265    0.0000 C   0  0  0  0  0  0  0  0  0  0  0  0
    4.5968    0.0000    0.0000 O   0  0  0  0  0  0  0  0  0  0  0  0
    3.4637   -1.9898    0.0000 C   0  0  0  0  0  0  0  0  0  0  0  0
    2.3030   -1.3265    0.0000 C   0  0  0  0  0  0  0  0  0  0  0  0
    1.1515   -1.9898    0.0000 C   0  0  0  0  0  0  0  0  0  0  0  0
    1.1515   -3.3163    0.0000 C   0  0  0  0  0  0  0  0  0  0  0  0
    0.0000   -3.9888    0.0000 N   0  0  0  0  0  0  0  0  0  0  0  0
    2.3030   -3.9888    0.0000 C   0  0  0  0  0  0  0  0  0  0  0  0
    3.4637   -3.3163    0.0000 C   0  0  0  0  0  0  0  0  0  0  0  0
  1  2  1  0  0  0  0
  2  3  1  0  0  0  0
  3  4  1  0  0  0  0
  4  5  1  0  0  0  0
  5  6  2  0  0  0  0
  5  7  1  0  0  0  0
  7  8  2  0  0  0  0
  7 13  1  0  0  0  0
  8  9  1  0  0  0  0
  9 10  2  0  0  0  0
 10 11  1  0  0  0  0
 10 12  1  0  0  0  0
 12 13  2  0  0  0  0
M  END
> <ID>
11591

> <Formula>
C10H13NO2

> <FW>
179.2157

> <DSSTox_CID>
26299

> <DSSTox_RID>
81524

> <DSSTox_GSID>
46299

> <DSSTox_FileID_Sort>
6205

> <TS_ChemName>
Risocaine

> <TS_ChemName_Synonyms>


> <TS_CASRN>
94-12-2

> <CASRN_ChemName_Relationship>
primary

> <TS_Description>
single chemical compound

> <ChemNote>


> <STRUCTURE_Shown>
tested chemical

> <STRUCTURE_Formula>
C10H13NO2

> <STRUCTURE_MW>
179.2157

> <STRUCTURE_ChemType>
defined organic

> <STRUCTURE_DefinedOrganicForm>
parent

> <STRUCTURE_IUPAC>
propyl 4-aminobenzoate

> <STRUCTURE_SMILES>
Nc1ccc(cc1)C(=O)OCCC

> <STRUCTURE_SMILES_Desalt>
Nc1ccc(cc1)C(=O)OCCC

> <Substance_modify_yyyymmdd>
20110815

$$$$
