94-18-8
ChemmineR-0915142007XD

 17 18  0  0  0  0  0  0  0  0  1 V2000
    4.6004   -2.6628    0.0000 C   0  0  0  0  0  0  0  0  0  0  0  0
    5.7608   -1.9997    0.0000 O   0  0  0  0  0  0  0  0  0  0  0  0
    6.9109   -2.6628    0.0000 C   0  0  0  0  0  0  0  0  0  0  0  0
    8.0610   -1.9997    0.0000 C   0  0  0  0  0  0  0  0  0  0  0  0
    8.0610   -0.6631    0.0000 C   0  0  0  0  0  0  0  0  0  0  0  0
    9.2111    0.0000    0.0000 C   0  0  0  0  0  0  0  0  0  0  0  0
   10.3612   -0.6631    0.0000 C   0  0  0  0  0  0  0  0  0  0  0  0
   10.3612   -1.9997    0.0000 C   0  0  0  0  0  0  0  0  0  0  0  0
    9.2111   -2.6628    0.0000 C   0  0  0  0  0  0  0  0  0  0  0  0
    3.4503   -1.9997    0.0000 C   0  0  0  0  0  0  0  0  0  0  0  0
    2.3002   -2.6628    0.0000 C   0  0  0  0  0  0  0  0  0  0  0  0
    1.1501   -1.9997    0.0000 C   0  0  0  0  0  0  0  0  0  0  0  0
    1.1501   -0.6631    0.0000 C   0  0  0  0  0  0  0  0  0  0  0  0
    0.0000    0.0000    0.0000 O   0  0  0  0  0  0  0  0  0  0  0  0
    2.3002    0.0000    0.0000 C   0  0  0  0  0  0  0  0  0  0  0  0
    3.4503   -0.6631    0.0000 C   0  0  0  0  0  0  0  0  0  0  0  0
    4.6004   -3.9891    0.0000 O   0  0  0  0  0  0  0  0  0  0  0  0
  1  2  1  0  0  0  0
  1 10  1  0  0  0  0
  1 17  2  0  0  0  0
  2  3  1  0  0  0  0
  3  4  1  0  0  0  0
  4  5  2  0  0  0  0
  4  9  1  0  0  0  0
  5  6  1  0  0  0  0
  6  7  2  0  0  0  0
  7  8  1  0  0  0  0
  8  9  2  0  0  0  0
 10 11  1  0  0  0  0
 10 16  2  0  0  0  0
 11 12  2  0  0  0  0
 12 13  1  0  0  0  0
 13 14  1  0  0  0  0
 13 15  2  0  0  0  0
 15 16  1  0  0  0  0
M  END
> <ID>
2293

> <Formula>
C14H12O3

> <FW>
228.2433

> <DSSTox_CID>
2526

> <DSSTox_RID>
76613

> <DSSTox_GSID>
22526

> <DSSTox_FileID_Sort>
1297

> <TS_ChemName>
Benzylparaben

> <TS_ChemName_Synonyms>
Benzyl 4-hydroxybenzoate

> <TS_CASRN>
94-18-8

> <CASRN_ChemName_Relationship>
primary

> <TS_Description>
single chemical compound

> <ChemNote>


> <STRUCTURE_Shown>
tested chemical

> <STRUCTURE_Formula>
C14H12O3

> <STRUCTURE_MW>
228.2433

> <STRUCTURE_ChemType>
defined organic

> <STRUCTURE_DefinedOrganicForm>
parent

> <STRUCTURE_IUPAC>
benzyl 4-hydroxybenzoate

> <STRUCTURE_SMILES>
Oc1ccc(cc1)C(=O)OCc2ccccc2

> <STRUCTURE_SMILES_Desalt>
Oc1ccc(cc1)C(=O)OCc2ccccc2

> <Substance_modify_yyyymmdd>
20080429

$$$$
