94-10-0
ChemmineR-0915142007XD

 19 20  0  0  0  0  0  0  0  0  1 V2000
    5.3084   -1.1564    0.0000 N   0  0  0  0  0  0  0  0  0  0  0  0
    3.9709   -1.1564    0.0000 C   0  0  0  0  0  0  0  0  0  0  0  0
    6.6181   -1.1564    0.0000 N   0  0  0  0  0  0  0  0  0  0  0  0
    3.2882   -2.2850    0.0000 C   0  0  0  0  0  0  0  0  0  0  0  0
    1.9785   -2.2850    0.0000 C   0  0  0  0  0  0  0  0  0  0  0  0
    3.3160    0.0000    0.0000 C   0  0  0  0  0  0  0  0  0  0  0  0
    1.3097   -1.1564    0.0000 C   0  0  0  0  0  0  0  0  0  0  0  0
    7.9139   -1.1564    0.0000 C   0  0  0  0  0  0  0  0  0  0  0  0
    3.9709   -3.4414    0.0000 N   0  0  0  0  0  0  0  0  0  0  0  0
   10.6308   -1.1843    0.0000 C   0  0  0  0  0  0  0  0  0  0  0  0
    0.0000   -1.1564    0.0000 N   0  0  0  0  0  0  0  0  0  0  0  0
    2.0063    0.0000    0.0000 C   0  0  0  0  0  0  0  0  0  0  0  0
    8.5826   -2.3407    0.0000 C   0  0  0  0  0  0  0  0  0  0  0  0
    8.5966    0.0000    0.0000 C   0  0  0  0  0  0  0  0  0  0  0  0
    9.9341   -2.3407    0.0000 C   0  0  0  0  0  0  0  0  0  0  0  0
    9.9620    0.0000    0.0000 C   0  0  0  0  0  0  0  0  0  0  0  0
   11.9405   -1.1843    0.0000 O   0  0  0  0  0  0  0  0  0  0  0  0
   12.6092   -2.3129    0.0000 C   0  0  0  0  0  0  0  0  0  0  0  0
   13.9329   -2.3129    0.0000 C   0  0  0  0  0  0  0  0  0  0  0  0
  1  2  1  0  0  0  0
  1  3  2  0  0  0  0
  2  4  2  0  0  0  0
  2  6  1  0  0  0  0
  3  8  1  0  0  0  0
  4  5  1  0  0  0  0
  4  9  1  0  0  0  0
  5  7  2  0  0  0  0
  6 12  2  0  0  0  0
  7 12  1  0  0  0  0
  7 11  1  0  0  0  0
  8 13  1  0  0  0  0
  8 14  2  0  0  0  0
 10 16  2  0  0  0  0
 10 17  1  0  0  0  0
 10 15  1  0  0  0  0
 13 15  2  0  0  0  0
 14 16  1  0  0  0  0
 17 18  1  0  0  0  0
 18 19  1  0  0  0  0
M  END
> <ID>
11517

> <Formula>
C14H16N4O

> <FW>
256.303

> <DSSTox_CID>
26223

> <DSSTox_RID>
81450

> <DSSTox_GSID>
46223

> <DSSTox_FileID_Sort>
6131

> <TS_ChemName>
Ethoxazene

> <TS_ChemName_Synonyms>


> <TS_CASRN>
94-10-0

> <CASRN_ChemName_Relationship>
primary

> <TS_Description>
single chemical compound

> <ChemNote>


> <STRUCTURE_Shown>
tested chemical

> <STRUCTURE_Formula>
C14H16N4O

> <STRUCTURE_MW>
256.303

> <STRUCTURE_ChemType>
defined organic

> <STRUCTURE_DefinedOrganicForm>
parent

> <STRUCTURE_IUPAC>
4-[(4-ethoxyphenyl)diazenyl]benzene-1,3-diamine

> <STRUCTURE_SMILES>
CCOc1ccc(cc1)/N=N/c2ccc(N)cc2N

> <STRUCTURE_SMILES_Desalt>
CCOc1ccc(cc1)/N=N/c2ccc(N)cc2N

> <Substance_modify_yyyymmdd>
20110817

$$$$
