94-19-9
ChemmineR-0915142007XD

 18 19  0  0  0  0  0  0  0  0  1 V2000
    0.0000   -3.1959    0.0000 C   0  0  0  0  0  0  0  0  0  0  0  0
    1.2149   -3.7432    0.0000 C   0  0  0  0  0  0  0  0  0  0  0  0
    2.2875   -2.9661    0.0000 C   0  0  0  0  0  0  0  0  0  0  0  0
    2.2875   -1.6308    0.0000 N   0  0  0  0  0  0  0  0  0  0  0  0
    3.5571   -1.2368    0.0000 N   0  0  0  0  0  0  0  0  0  0  0  0
    4.3342   -2.3094    0.0000 C   0  0  0  0  0  0  0  0  0  0  0  0
    5.6695   -2.3094    0.0000 N   0  0  0  0  0  0  0  0  0  0  0  0
    6.3371   -1.1492    0.0000 S   0  0  0  0  0  0  0  0  0  0  0  0
    5.1879   -0.4816    0.0000 O   0  0  0  0  0  0  0  0  0  0  0  0
    6.9938    0.0000    0.0000 O   0  0  0  0  0  0  0  0  0  0  0  0
    7.4863   -1.8278    0.0000 C   0  0  0  0  0  0  0  0  0  0  0  0
    8.6246   -1.1492    0.0000 C   0  0  0  0  0  0  0  0  0  0  0  0
    9.7957   -1.8278    0.0000 C   0  0  0  0  0  0  0  0  0  0  0  0
    9.7957   -3.1412    0.0000 C   0  0  0  0  0  0  0  0  0  0  0  0
   10.9449   -3.8088    0.0000 N   0  0  0  0  0  0  0  0  0  0  0  0
    8.6246   -3.8088    0.0000 C   0  0  0  0  0  0  0  0  0  0  0  0
    7.4863   -3.1412    0.0000 C   0  0  0  0  0  0  0  0  0  0  0  0
    3.5571   -3.3820    0.0000 S   0  0  0  0  0  0  0  0  0  0  0  0
  1  2  1  0  0  0  0
  2  3  1  0  0  0  0
  3  4  2  0  0  0  0
  3 18  1  0  0  0  0
  4  5  1  0  0  0  0
  5  6  2  0  0  0  0
  6  7  1  0  0  0  0
  6 18  1  0  0  0  0
  7  8  1  0  0  0  0
  8  9  2  0  0  0  0
  8 10  2  0  0  0  0
  8 11  1  0  0  0  0
 11 12  2  0  0  0  0
 11 17  1  0  0  0  0
 12 13  1  0  0  0  0
 13 14  2  0  0  0  0
 14 15  1  0  0  0  0
 14 16  1  0  0  0  0
 16 17  2  0  0  0  0
M  END
> <ID>
11579

> <Formula>
C10H12N4O2S2

> <FW>
284.3579

> <DSSTox_CID>
26286

> <DSSTox_RID>
81512

> <DSSTox_GSID>
46286

> <DSSTox_FileID_Sort>
6193

> <TS_ChemName>
Sulfaethidole

> <TS_ChemName_Synonyms>


> <TS_CASRN>
94-19-9

> <CASRN_ChemName_Relationship>
primary

> <TS_Description>
single chemical compound

> <ChemNote>


> <STRUCTURE_Shown>
tested chemical

> <STRUCTURE_Formula>
C10H12N4O2S2

> <STRUCTURE_MW>
284.3579

> <STRUCTURE_ChemType>
defined organic

> <STRUCTURE_DefinedOrganicForm>
parent

> <STRUCTURE_IUPAC>
4-amino-N-(5-ethyl-1,3,4-thiadiazol-2-yl)benzenesulfonamide

> <STRUCTURE_SMILES>
O=S(=O)(Nc1nnc(CC)s1)c2ccc(N)cc2

> <STRUCTURE_SMILES_Desalt>
O=S(=O)(Nc1nnc(CC)s1)c2ccc(N)cc2

> <Substance_modify_yyyymmdd>
20110815

$$$$
