94-28-0
ChemmineR-0915142007XD

 28 27  0  0  0  0  0  0  0  0  1 V2000
    5.7658   -2.6527    0.0000 C   0  0  0  0  0  0  0  0  0  0  0  0
    6.9277   -1.9950    0.0000 C   0  0  0  0  0  0  0  0  0  0  0  0
    4.6039   -1.9950    0.0000 O   0  0  0  0  0  0  0  0  0  0  0  0
    8.0678   -2.6527    0.0000 O   0  0  0  0  0  0  0  0  0  0  0  0
    9.2297   -1.9950    0.0000 C   0  0  0  0  0  0  0  0  0  0  0  0
   10.3697   -2.6527    0.0000 C   0  0  0  0  0  0  0  0  0  0  0  0
   11.5316   -1.9950    0.0000 O   0  0  0  0  0  0  0  0  0  0  0  0
   12.6936   -2.6527    0.0000 C   0  0  0  0  0  0  0  0  0  0  0  0
   13.8555   -1.9950    0.0000 C   0  0  0  0  0  0  0  0  0  0  0  0
   14.9955   -2.6527    0.0000 O   0  0  0  0  0  0  0  0  0  0  0  0
    3.4639   -2.6527    0.0000 C   0  0  0  0  0  0  0  0  0  0  0  0
    2.3019   -1.9950    0.0000 C   0  0  0  0  0  0  0  0  0  0  0  0
    1.1400   -2.6527    0.0000 C   0  0  0  0  0  0  0  0  0  0  0  0
    1.1400   -3.9900    0.0000 C   0  0  0  0  0  0  0  0  0  0  0  0
    0.0000   -4.6477    0.0000 C   0  0  0  0  0  0  0  0  0  0  0  0
    0.0000   -5.9850    0.0000 C   0  0  0  0  0  0  0  0  0  0  0  0
    3.4639   -3.9900    0.0000 O   0  0  0  0  0  0  0  0  0  0  0  0
    2.3019   -0.6577    0.0000 C   0  0  0  0  0  0  0  0  0  0  0  0
    1.1400    0.0000    0.0000 C   0  0  0  0  0  0  0  0  0  0  0  0
   16.1574   -1.9950    0.0000 C   0  0  0  0  0  0  0  0  0  0  0  0
   17.3194   -2.6527    0.0000 C   0  0  0  0  0  0  0  0  0  0  0  0
   18.4594   -1.9950    0.0000 C   0  0  0  0  0  0  0  0  0  0  0  0
   19.6213   -2.6527    0.0000 C   0  0  0  0  0  0  0  0  0  0  0  0
   20.7613   -1.9950    0.0000 C   0  0  0  0  0  0  0  0  0  0  0  0
   21.9233   -2.6527    0.0000 C   0  0  0  0  0  0  0  0  0  0  0  0
   16.1574   -0.6577    0.0000 O   0  0  0  0  0  0  0  0  0  0  0  0
   17.3194   -3.9900    0.0000 C   0  0  0  0  0  0  0  0  0  0  0  0
   18.4594   -4.6477    0.0000 C   0  0  0  0  0  0  0  0  0  0  0  0
  1  2  1  0  0  0  0
  1  3  1  0  0  0  0
  2  4  1  0  0  0  0
  3 11  1  0  0  0  0
  4  5  1  0  0  0  0
  5  6  1  0  0  0  0
  6  7  1  0  0  0  0
  7  8  1  0  0  0  0
  8  9  1  0  0  0  0
  9 10  1  0  0  0  0
 10 20  1  0  0  0  0
 11 12  1  0  0  0  0
 11 17  2  0  0  0  0
 12 13  1  0  0  0  0
 12 18  1  0  0  0  0
 13 14  1  0  0  0  0
 14 15  1  0  0  0  0
 15 16  1  0  0  0  0
 18 19  1  0  0  0  0
 20 21  1  0  0  0  0
 20 26  2  0  0  0  0
 21 22  1  0  0  0  0
 21 27  1  0  0  0  0
 22 23  1  0  0  0  0
 23 24  1  0  0  0  0
 24 25  1  0  0  0  0
 27 28  1  0  0  0  0
M  END
> <ID>
4727

> <Formula>
C22H42O6

> <FW>
402.5653

> <DSSTox_CID>
6564

> <DSSTox_RID>
78153

> <DSSTox_GSID>
26564

> <DSSTox_FileID_Sort>
2836

> <TS_ChemName>
Triethylene glycol bis(2-ethylhexanoate)

> <TS_ChemName_Synonyms>
Triethylene glycol bis(2-ethylhexanoate) (Hexanoic acid, 2-ethyl-, 1,2-ethanediylbis(oxy-2,1-ethanediyl) ester)

> <TS_CASRN>
94-28-0

> <CASRN_ChemName_Relationship>
primary

> <TS_Description>
single chemical compound

> <ChemNote>


> <STRUCTURE_Shown>
tested chemical

> <STRUCTURE_Formula>
C22H42O6

> <STRUCTURE_MW>
402.5653

> <STRUCTURE_ChemType>
defined organic

> <STRUCTURE_DefinedOrganicForm>
parent

> <STRUCTURE_IUPAC>
ethane-1,2-diylbis(oxyethane-2,1-diyl) bis(2-ethylhexanoate)

> <STRUCTURE_SMILES>
O=C(OCCOCCOCCOC(=O)C(CC)CCCC)C(CC)CCCC

> <STRUCTURE_SMILES_Desalt>
O=C(OCCOCCOCCOC(=O)C(CC)CCCC)C(CC)CCCC

> <Substance_modify_yyyymmdd>
20080429

$$$$
