94-25-7
ChemmineR-0915142007XD

 14 14  0  0  0  0  0  0  0  0  1 V2000
    4.6595   -1.1574    0.0000 C   0  0  0  0  0  0  0  0  0  0  0  0
    5.9865   -1.1574    0.0000 C   0  0  0  0  0  0  0  0  0  0  0  0
    6.6549    0.0000    0.0000 C   0  0  0  0  0  0  0  0  0  0  0  0
    7.9819    0.0000    0.0000 C   0  0  0  0  0  0  0  0  0  0  0  0
    8.6504   -1.1574    0.0000 C   0  0  0  0  0  0  0  0  0  0  0  0
    7.9819   -2.3048    0.0000 C   0  0  0  0  0  0  0  0  0  0  0  0
    6.6549   -2.3048    0.0000 C   0  0  0  0  0  0  0  0  0  0  0  0
    9.9774   -1.1574    0.0000 N   0  0  0  0  0  0  0  0  0  0  0  0
    3.9910    0.0000    0.0000 O   0  0  0  0  0  0  0  0  0  0  0  0
    3.9910   -2.3048    0.0000 O   0  0  0  0  0  0  0  0  0  0  0  0
    2.6640   -2.3048    0.0000 C   0  0  0  0  0  0  0  0  0  0  0  0
    1.9955   -1.1574    0.0000 C   0  0  0  0  0  0  0  0  0  0  0  0
    0.6685   -1.1574    0.0000 C   0  0  0  0  0  0  0  0  0  0  0  0
    0.0000    0.0000    0.0000 C   0  0  0  0  0  0  0  0  0  0  0  0
  1  2  1  0  0  0  0
  1  9  2  0  0  0  0
  1 10  1  0  0  0  0
  2  3  1  0  0  0  0
  2  7  2  0  0  0  0
  3  4  2  0  0  0  0
  4  5  1  0  0  0  0
  5  6  2  0  0  0  0
  5  8  1  0  0  0  0
  6  7  1  0  0  0  0
 10 11  1  0  0  0  0
 11 12  1  0  0  0  0
 12 13  1  0  0  0  0
 13 14  1  0  0  0  0
M  END
> <ID>
2215

> <Formula>
C11H15NO2

> <FW>
193.2423

> <DSSTox_CID>
2417

> <DSSTox_RID>
76583

> <DSSTox_GSID>
22417

> <DSSTox_FileID_Sort>
1267

> <TS_ChemName>
Butyl 4-aminobenzoate

> <TS_ChemName_Synonyms>
Butyl 4-aminobenzoate (n-Butyl-p-aminobenzoate) (Butamben)

> <TS_CASRN>
94-25-7

> <CASRN_ChemName_Relationship>
primary

> <TS_Description>
single chemical compound

> <ChemNote>


> <STRUCTURE_Shown>
tested chemical

> <STRUCTURE_Formula>
C11H15NO2

> <STRUCTURE_MW>
193.2423

> <STRUCTURE_ChemType>
defined organic

> <STRUCTURE_DefinedOrganicForm>
parent

> <STRUCTURE_IUPAC>
butyl 4-aminobenzoate

> <STRUCTURE_SMILES>
Nc1ccc(cc1)C(=O)OCCCC

> <STRUCTURE_SMILES_Desalt>
Nc1ccc(cc1)C(=O)OCCCC

> <Substance_modify_yyyymmdd>
20080429

$$$$
