94-23-5
ChemmineR-0915142007XD

 19 19  0  0  0  0  0  0  0  0  1 V2000
   12.6637   -4.6476    0.0000 C   0  0  0  0  0  0  0  0  0  0  0  0
   11.5113   -3.9891    0.0000 C   0  0  0  0  0  0  0  0  0  0  0  0
   10.3589   -4.6476    0.0000 O   0  0  0  0  0  0  0  0  0  0  0  0
    9.2065   -3.9891    0.0000 C   0  0  0  0  0  0  0  0  0  0  0  0
    8.0541   -4.6476    0.0000 C   0  0  0  0  0  0  0  0  0  0  0  0
    6.9017   -3.9891    0.0000 C   0  0  0  0  0  0  0  0  0  0  0  0
    6.9017   -2.6594    0.0000 C   0  0  0  0  0  0  0  0  0  0  0  0
    8.0541   -1.9882    0.0000 C   0  0  0  0  0  0  0  0  0  0  0  0
    9.2065   -2.6594    0.0000 C   0  0  0  0  0  0  0  0  0  0  0  0
    5.7620   -1.9882    0.0000 C   0  0  0  0  0  0  0  0  0  0  0  0
    5.7620   -0.6585    0.0000 O   0  0  0  0  0  0  0  0  0  0  0  0
    4.6096   -2.6594    0.0000 O   0  0  0  0  0  0  0  0  0  0  0  0
    3.4572   -1.9882    0.0000 C   0  0  0  0  0  0  0  0  0  0  0  0
    2.3048   -2.6594    0.0000 C   0  0  0  0  0  0  0  0  0  0  0  0
    1.1524   -1.9882    0.0000 N   0  0  0  0  0  0  0  0  0  0  0  0
    0.0000   -2.6594    0.0000 C   0  0  0  0  0  0  0  0  0  0  0  0
    0.0000   -3.9891    0.0000 C   0  0  0  0  0  0  0  0  0  0  0  0
    1.1524   -0.6585    0.0000 C   0  0  0  0  0  0  0  0  0  0  0  0
    0.0000    0.0000    0.0000 C   0  0  0  0  0  0  0  0  0  0  0  0
  1  2  1  0  0  0  0
  2  3  1  0  0  0  0
  3  4  1  0  0  0  0
  4  5  2  0  0  0  0
  4  9  1  0  0  0  0
  5  6  1  0  0  0  0
  6  7  2  0  0  0  0
  7  8  1  0  0  0  0
  7 10  1  0  0  0  0
  8  9  2  0  0  0  0
 10 11  2  0  0  0  0
 10 12  1  0  0  0  0
 12 13  1  0  0  0  0
 13 14  1  0  0  0  0
 14 15  1  0  0  0  0
 15 16  1  0  0  0  0
 15 18  1  0  0  0  0
 16 17  1  0  0  0  0
 18 19  1  0  0  0  0
M  END
> <ID>
11379

> <Formula>
C15H23NO3

> <FW>
265.348

> <DSSTox_CID>
26060

> <DSSTox_RID>
81311

> <DSSTox_GSID>
46060

> <DSSTox_FileID_Sort>
5992

> <TS_ChemName>
Parethoxycaine

> <TS_ChemName_Synonyms>


> <TS_CASRN>
94-23-5

> <CASRN_ChemName_Relationship>
primary

> <TS_Description>
single chemical compound

> <ChemNote>


> <STRUCTURE_Shown>
tested chemical

> <STRUCTURE_Formula>
C15H23NO3

> <STRUCTURE_MW>
265.348

> <STRUCTURE_ChemType>
defined organic

> <STRUCTURE_DefinedOrganicForm>
parent

> <STRUCTURE_IUPAC>
2-(diethylamino)ethyl 4-ethoxybenzoate

> <STRUCTURE_SMILES>
CCOc1ccc(cc1)C(=O)OCCN(CC)CC

> <STRUCTURE_SMILES_Desalt>
CCOc1ccc(cc1)C(=O)OCCN(CC)CC

> <Substance_modify_yyyymmdd>
20110822

$$$$
