94-20-2
ChemmineR-0915142007XD

 17 17  0  0  0  0  0  0  0  0  1 V2000
    7.5733    0.0000    0.0000 O    0  0  0  0  0  0  0  0  0  0  0  0
    6.9058   -1.1510    0.0000 S    0  0  0  0  0  0  0  0  0  0  0  0
    6.2382   -2.3019    0.0000 O    0  0  0  0  0  0  0  0  0  0  0  0
    8.0568   -1.8185    0.0000 C    0  0  0  0  0  0  0  0  0  0  0  0
    9.2077   -1.1510    0.0000 C    0  0  0  0  0  0  0  0  0  0  0  0
   10.3587   -1.8185    0.0000 C    0  0  0  0  0  0  0  0  0  0  0  0
   10.3587   -3.1421    0.0000 C    0  0  0  0  0  0  0  0  0  0  0  0
    9.2077   -3.8097    0.0000 C    0  0  0  0  0  0  0  0  0  0  0  0
    8.0568   -3.1421    0.0000 C    0  0  0  0  0  0  0  0  0  0  0  0
   11.5096   -3.8097    0.0000 Cl   0  0  0  0  0  0  0  0  0  0  0  0
    5.7548   -0.4834    0.0000 N    0  0  0  0  0  0  0  0  0  0  0  0
    4.6039   -1.1510    0.0000 C    0  0  0  0  0  0  0  0  0  0  0  0
    4.6039   -2.4861    0.0000 O    0  0  0  0  0  0  0  0  0  0  0  0
    3.4529   -0.4834    0.0000 N    0  0  0  0  0  0  0  0  0  0  0  0
    2.3019   -1.1510    0.0000 C    0  0  0  0  0  0  0  0  0  0  0  0
    1.1510   -0.4834    0.0000 C    0  0  0  0  0  0  0  0  0  0  0  0
    0.0000   -1.1510    0.0000 C    0  0  0  0  0  0  0  0  0  0  0  0
  1  2  2  0  0  0  0
  2  3  2  0  0  0  0
  2  4  1  0  0  0  0
  2 11  1  0  0  0  0
  4  5  2  0  0  0  0
  4  9  1  0  0  0  0
  5  6  1  0  0  0  0
  6  7  2  0  0  0  0
  7  8  1  0  0  0  0
  7 10  1  0  0  0  0
  8  9  2  0  0  0  0
 11 12  1  0  0  0  0
 12 13  2  0  0  0  0
 12 14  1  0  0  0  0
 14 15  1  0  0  0  0
 15 16  1  0  0  0  0
 16 17  1  0  0  0  0
M  END
> <ID>
313

> <Formula>
C10H13ClN2O3S

> <FW>
276.7398

> <DSSTox_CID>
322

> <DSSTox_RID>
75512

> <DSSTox_GSID>
20322

> <DSSTox_FileID_Sort>
196

> <TS_ChemName>
Chlorpropamide

> <TS_ChemName_Synonyms>


> <TS_CASRN>
94-20-2

> <CASRN_ChemName_Relationship>
primary

> <TS_Description>
single chemical compound

> <ChemNote>


> <STRUCTURE_Shown>
tested chemical

> <STRUCTURE_Formula>
C10H13ClN2O3S

> <STRUCTURE_MW>
276.7398

> <STRUCTURE_ChemType>
defined organic

> <STRUCTURE_DefinedOrganicForm>
parent

> <STRUCTURE_IUPAC>
4-chloro-N-(propylcarbamoyl)benzenesulfonamide

> <STRUCTURE_SMILES>
O=S(=O)(NC(=O)NCCC)c1ccc(Cl)cc1

> <STRUCTURE_SMILES_Desalt>
O=S(=O)(NC(=O)NCCC)c1ccc(Cl)cc1

> <Substance_modify_yyyymmdd>
20080429

$$$$
