94-37-1
ChemmineR-0915142007XD

 18 19  0  0  0  0  0  0  0  0  1 V2000
    3.4554   -2.0131    0.0000 C   0  0  0  0  0  0  0  0  0  0  0  0
    4.5969   -2.6668    0.0000 S   0  0  0  0  0  0  0  0  0  0  0  0
    3.4554   -0.6952    0.0000 S   0  0  0  0  0  0  0  0  0  0  0  0
    2.2829   -2.6668    0.0000 N   0  0  0  0  0  0  0  0  0  0  0  0
    5.7487   -2.0131    0.0000 S   0  0  0  0  0  0  0  0  0  0  0  0
    2.2829   -4.0158    0.0000 C   0  0  0  0  0  0  0  0  0  0  0  0
    1.1414   -2.0131    0.0000 C   0  0  0  0  0  0  0  0  0  0  0  0
    6.9212   -2.6668    0.0000 C   0  0  0  0  0  0  0  0  0  0  0  0
    1.1414   -4.6799    0.0000 C   0  0  0  0  0  0  0  0  0  0  0  0
    0.0000   -2.6668    0.0000 C   0  0  0  0  0  0  0  0  0  0  0  0
    6.9212   -4.0158    0.0000 S   0  0  0  0  0  0  0  0  0  0  0  0
    8.0627   -2.0131    0.0000 N   0  0  0  0  0  0  0  0  0  0  0  0
    0.0000   -4.0158    0.0000 C   0  0  0  0  0  0  0  0  0  0  0  0
    8.0627   -0.6952    0.0000 C   0  0  0  0  0  0  0  0  0  0  0  0
    9.2041   -2.6668    0.0000 C   0  0  0  0  0  0  0  0  0  0  0  0
    9.2041    0.0000    0.0000 C   0  0  0  0  0  0  0  0  0  0  0  0
   10.3767   -2.0131    0.0000 C   0  0  0  0  0  0  0  0  0  0  0  0
   10.3767   -0.6952    0.0000 C   0  0  0  0  0  0  0  0  0  0  0  0
  1  2  1  0  0  0  0
  1  3  2  0  0  0  0
  1  4  1  0  0  0  0
  2  5  1  0  0  0  0
  4  6  1  0  0  0  0
  4  7  1  0  0  0  0
  5  8  1  0  0  0  0
  6  9  1  0  0  0  0
  7 10  1  0  0  0  0
  8 11  2  0  0  0  0
  8 12  1  0  0  0  0
  9 13  1  0  0  0  0
 10 13  1  0  0  0  0
 12 14  1  0  0  0  0
 12 15  1  0  0  0  0
 14 16  1  0  0  0  0
 15 17  1  0  0  0  0
 16 18  1  0  0  0  0
 17 18  1  0  0  0  0
M  END
> <ID>
13719

> <Formula>
C12H20N2S4

> <FW>
320.5606

> <DSSTox_CID>
28653

> <DSSTox_RID>
82923

> <DSSTox_GSID>
48727

> <DSSTox_FileID_Sort>
7600

> <TS_ChemName>
Dicyclopentamethylenethiuram disulfide

> <TS_ChemName_Synonyms>


> <TS_CASRN>
94-37-1

> <CASRN_ChemName_Relationship>
primary

> <TS_Description>
single chemical compound

> <ChemNote>


> <STRUCTURE_Shown>
tested chemical

> <STRUCTURE_Formula>
C12H20N2S4

> <STRUCTURE_MW>
320.5606

> <STRUCTURE_ChemType>
defined organic

> <STRUCTURE_DefinedOrganicForm>
parent

> <STRUCTURE_IUPAC>
dipiperidin-1-yldithioperoxyanhydride

> <STRUCTURE_SMILES>
S=C(SSC(=S)N1CCCCC1)N2CCCCC2

> <STRUCTURE_SMILES_Desalt>
S=C(SSC(=S)N1CCCCC1)N2CCCCC2

> <Substance_modify_yyyymmdd>
20111204

$$$$
