94-36-0
ChemmineR-0915142007XD

 18 19  0  0  0  0  0  0  0  0  1 V2000
    6.6460   -1.1494    0.0000 O   0  0  0  0  0  0  0  0  0  0  0  0
    5.9805   -2.2989    0.0000 C   0  0  0  0  0  0  0  0  0  0  0  0
    6.6460   -3.4570    0.0000 C   0  0  0  0  0  0  0  0  0  0  0  0
    7.9769   -3.4570    0.0000 C   0  0  0  0  0  0  0  0  0  0  0  0
    8.6424   -4.6064    0.0000 C   0  0  0  0  0  0  0  0  0  0  0  0
    7.9769   -5.7558    0.0000 C   0  0  0  0  0  0  0  0  0  0  0  0
    6.6460   -5.7558    0.0000 C   0  0  0  0  0  0  0  0  0  0  0  0
    5.9805   -4.6064    0.0000 C   0  0  0  0  0  0  0  0  0  0  0  0
    4.6496   -2.2989    0.0000 O   0  0  0  0  0  0  0  0  0  0  0  0
    3.9928   -1.1494    0.0000 O   0  0  0  0  0  0  0  0  0  0  0  0
    2.6619   -1.1494    0.0000 C   0  0  0  0  0  0  0  0  0  0  0  0
    1.9964    0.0000    0.0000 O   0  0  0  0  0  0  0  0  0  0  0  0
    1.9964   -2.2989    0.0000 C   0  0  0  0  0  0  0  0  0  0  0  0
    2.6619   -3.4570    0.0000 C   0  0  0  0  0  0  0  0  0  0  0  0
    1.9964   -4.6064    0.0000 C   0  0  0  0  0  0  0  0  0  0  0  0
    0.6655   -4.6064    0.0000 C   0  0  0  0  0  0  0  0  0  0  0  0
    0.0000   -3.4570    0.0000 C   0  0  0  0  0  0  0  0  0  0  0  0
    0.6655   -2.2989    0.0000 C   0  0  0  0  0  0  0  0  0  0  0  0
  1  2  2  0  0  0  0
  2  3  1  0  0  0  0
  2  9  1  0  0  0  0
  3  4  2  0  0  0  0
  3  8  1  0  0  0  0
  4  5  1  0  0  0  0
  5  6  2  0  0  0  0
  6  7  1  0  0  0  0
  7  8  2  0  0  0  0
  9 10  1  0  0  0  0
 10 11  1  0  0  0  0
 11 12  2  0  0  0  0
 11 13  1  0  0  0  0
 13 14  2  0  0  0  0
 13 18  1  0  0  0  0
 14 15  1  0  0  0  0
 15 16  2  0  0  0  0
 16 17  1  0  0  0  0
 17 18  2  0  0  0  0
M  END
> <ID>
1035

> <Formula>
C14H10O4

> <FW>
242.2268

> <DSSTox_CID>
1072

> <DSSTox_RID>
77460

> <DSSTox_GSID>
24591

> <DSSTox_FileID_Sort>
2143

> <TS_ChemName>
Benzoyl peroxide

> <TS_ChemName_Synonyms>


> <TS_CASRN>
94-36-0

> <CASRN_ChemName_Relationship>
primary

> <TS_Description>
single chemical compound

> <ChemNote>


> <STRUCTURE_Shown>
tested chemical

> <STRUCTURE_Formula>
C14H10O4

> <STRUCTURE_MW>
242.2268

> <STRUCTURE_ChemType>
defined organic

> <STRUCTURE_DefinedOrganicForm>
parent

> <STRUCTURE_IUPAC>
diphenylperoxyanhydride

> <STRUCTURE_SMILES>
O=C(OOC(=O)c1ccccc1)c2ccccc2

> <STRUCTURE_SMILES_Desalt>
O=C(OOC(=O)c1ccccc1)c2ccccc2

> <Substance_modify_yyyymmdd>
20120530

$$$$
