94-44-0
ChemmineR-0915142007XD

 16 17  0  0  0  0  0  0  0  0  1 V2000
    3.4536   -3.9877    0.0000 O   0  0  0  0  0  0  0  0  0  0  0  0
    3.4536   -2.6616    0.0000 C   0  0  0  0  0  0  0  0  0  0  0  0
    4.6048   -1.9893    0.0000 O   0  0  0  0  0  0  0  0  0  0  0  0
    5.7560   -2.6616    0.0000 C   0  0  0  0  0  0  0  0  0  0  0  0
    6.9072   -1.9893    0.0000 C   0  0  0  0  0  0  0  0  0  0  0  0
    6.9072   -0.6631    0.0000 C   0  0  0  0  0  0  0  0  0  0  0  0
    8.0584    0.0000    0.0000 C   0  0  0  0  0  0  0  0  0  0  0  0
    9.2096   -0.6631    0.0000 C   0  0  0  0  0  0  0  0  0  0  0  0
    9.2096   -1.9893    0.0000 C   0  0  0  0  0  0  0  0  0  0  0  0
    8.0584   -2.6616    0.0000 C   0  0  0  0  0  0  0  0  0  0  0  0
    2.3024   -1.9893    0.0000 C   0  0  0  0  0  0  0  0  0  0  0  0
    1.1512   -2.6616    0.0000 C   0  0  0  0  0  0  0  0  0  0  0  0
    0.0000   -1.9893    0.0000 N   0  0  0  0  0  0  0  0  0  0  0  0
    0.0000   -0.6631    0.0000 C   0  0  0  0  0  0  0  0  0  0  0  0
    1.1512    0.0000    0.0000 C   0  0  0  0  0  0  0  0  0  0  0  0
    2.3024   -0.6631    0.0000 C   0  0  0  0  0  0  0  0  0  0  0  0
  1  2  2  0  0  0  0
  2  3  1  0  0  0  0
  2 11  1  0  0  0  0
  3  4  1  0  0  0  0
  4  5  1  0  0  0  0
  5  6  2  0  0  0  0
  5 10  1  0  0  0  0
  6  7  1  0  0  0  0
  7  8  2  0  0  0  0
  8  9  1  0  0  0  0
  9 10  2  0  0  0  0
 11 12  2  0  0  0  0
 11 16  1  0  0  0  0
 12 13  1  0  0  0  0
 13 14  2  0  0  0  0
 14 15  1  0  0  0  0
 15 16  2  0  0  0  0
M  END
> <ID>
11772

> <Formula>
C13H11NO2

> <FW>
213.2319

> <DSSTox_CID>
26542

> <DSSTox_RID>
81706

> <DSSTox_GSID>
46542

> <DSSTox_FileID_Sort>
6387

> <TS_ChemName>
Benzyl nicotinate

> <TS_ChemName_Synonyms>


> <TS_CASRN>
94-44-0

> <CASRN_ChemName_Relationship>
primary

> <TS_Description>
single chemical compound

> <ChemNote>


> <STRUCTURE_Shown>
tested chemical

> <STRUCTURE_Formula>
C13H11NO2

> <STRUCTURE_MW>
213.2319

> <STRUCTURE_ChemType>
defined organic

> <STRUCTURE_DefinedOrganicForm>
parent

> <STRUCTURE_IUPAC>
benzyl pyridine-3-carboxylate

> <STRUCTURE_SMILES>
O=C(OCc1ccccc1)c2cccnc2

> <STRUCTURE_SMILES_Desalt>
O=C(OCc1ccccc1)c2cccnc2

> <Substance_modify_yyyymmdd>
20110811

$$$$
