94-47-3
ChemmineR-0915142007XD

 17 18  0  0  0  0  0  0  0  0  1 V2000
    3.4558   -1.9865    0.0000 C   0  0  0  0  0  0  0  0  0  0  0  0
    3.4558   -0.6622    0.0000 O   0  0  0  0  0  0  0  0  0  0  0  0
    2.3073   -2.6591    0.0000 C   0  0  0  0  0  0  0  0  0  0  0  0
    4.6146   -2.6591    0.0000 O   0  0  0  0  0  0  0  0  0  0  0  0
    2.3073   -3.9938    0.0000 C   0  0  0  0  0  0  0  0  0  0  0  0
    1.1485   -1.9865    0.0000 C   0  0  0  0  0  0  0  0  0  0  0  0
    1.1485   -4.6456    0.0000 C   0  0  0  0  0  0  0  0  0  0  0  0
    0.0000   -2.6591    0.0000 C   0  0  0  0  0  0  0  0  0  0  0  0
    0.0000   -3.9938    0.0000 C   0  0  0  0  0  0  0  0  0  0  0  0
    5.7527   -1.9865    0.0000 C   0  0  0  0  0  0  0  0  0  0  0  0
    6.8908   -2.6591    0.0000 C   0  0  0  0  0  0  0  0  0  0  0  0
    9.1981    0.0000    0.0000 C   0  0  0  0  0  0  0  0  0  0  0  0
   10.3466   -0.6622    0.0000 C   0  0  0  0  0  0  0  0  0  0  0  0
   10.3466   -1.9865    0.0000 C   0  0  0  0  0  0  0  0  0  0  0  0
    9.1981   -2.6591    0.0000 C   0  0  0  0  0  0  0  0  0  0  0  0
    8.0393   -1.9865    0.0000 C   0  0  0  0  0  0  0  0  0  0  0  0
    8.0393   -0.6622    0.0000 C   0  0  0  0  0  0  0  0  0  0  0  0
  1  2  2  0  0  0  0
  1  3  1  0  0  0  0
  1  4  1  0  0  0  0
  3  5  2  0  0  0  0
  3  6  1  0  0  0  0
  4 10  1  0  0  0  0
  5  7  1  0  0  0  0
  6  8  2  0  0  0  0
  7  9  2  0  0  0  0
  8  9  1  0  0  0  0
 10 11  1  0  0  0  0
 11 16  1  0  0  0  0
 12 17  2  0  0  0  0
 12 13  1  0  0  0  0
 13 14  2  0  0  0  0
 14 15  1  0  0  0  0
 15 16  2  0  0  0  0
 16 17  1  0  0  0  0
M  END
> <ID>
12712

> <Formula>
C15H14O2

> <FW>
226.2705

> <DSSTox_CID>
27590

> <DSSTox_RID>
82437

> <DSSTox_GSID>
47590

> <DSSTox_FileID_Sort>
7118

> <TS_ChemName>
2-Phenylethyl benzoate

> <TS_ChemName_Synonyms>


> <TS_CASRN>
94-47-3

> <CASRN_ChemName_Relationship>
primary

> <TS_Description>
single chemical compound

> <ChemNote>


> <STRUCTURE_Shown>
tested chemical

> <STRUCTURE_Formula>
C15H14O2

> <STRUCTURE_MW>
226.2705

> <STRUCTURE_ChemType>
defined organic

> <STRUCTURE_DefinedOrganicForm>
parent

> <STRUCTURE_IUPAC>
2-phenylethyl benzoate

> <STRUCTURE_SMILES>
O=C(OCCc1ccccc1)c2ccccc2

> <STRUCTURE_SMILES_Desalt>
O=C(OCCc1ccccc1)c2ccccc2

> <Substance_modify_yyyymmdd>
20100930

$$$$
