94-45-1
ChemmineR-0915142007XD

 13 14  0  0  0  0  0  0  0  0  1 V2000
    0.0000   -2.6592    0.0000 C   0  0  0  0  0  0  0  0  0  0  0  0
    1.1514   -1.9921    0.0000 C   0  0  0  0  0  0  0  0  0  0  0  0
    2.3028   -2.6592    0.0000 O   0  0  0  0  0  0  0  0  0  0  0  0
    3.4543   -1.9921    0.0000 C   0  0  0  0  0  0  0  0  0  0  0  0
    3.4543   -0.6671    0.0000 C   0  0  0  0  0  0  0  0  0  0  0  0
    4.6057    0.0000    0.0000 C   0  0  0  0  0  0  0  0  0  0  0  0
    5.7571   -0.6671    0.0000 C   0  0  0  0  0  0  0  0  0  0  0  0
    7.0273   -0.2559    0.0000 N   0  0  0  0  0  0  0  0  0  0  0  0
    7.8041   -1.3250    0.0000 C   0  0  0  0  0  0  0  0  0  0  0  0
    9.1383   -1.3250    0.0000 N   0  0  0  0  0  0  0  0  0  0  0  0
    7.0273   -2.4034    0.0000 S   0  0  0  0  0  0  0  0  0  0  0  0
    5.7571   -1.9921    0.0000 C   0  0  0  0  0  0  0  0  0  0  0  0
    4.6057   -2.6592    0.0000 C   0  0  0  0  0  0  0  0  0  0  0  0
  1  2  1  0  0  0  0
  2  3  1  0  0  0  0
  3  4  1  0  0  0  0
  4  5  2  0  0  0  0
  4 13  1  0  0  0  0
  5  6  1  0  0  0  0
  6  7  2  0  0  0  0
  7  8  1  0  0  0  0
  7 12  1  0  0  0  0
  8  9  2  0  0  0  0
  9 10  1  0  0  0  0
  9 11  1  0  0  0  0
 11 12  1  0  0  0  0
 12 13  2  0  0  0  0
M  END
> <ID>
3703

> <Formula>
C9H10N2OS

> <FW>
194.2535

> <DSSTox_CID>
4481

> <DSSTox_RID>
77419

> <DSSTox_GSID>
24481

> <DSSTox_FileID_Sort>
2102

> <TS_ChemName>
2-Amino-6-ethoxybenzothiazole

> <TS_ChemName_Synonyms>


> <TS_CASRN>
94-45-1

> <CASRN_ChemName_Relationship>
primary

> <TS_Description>
single chemical compound

> <ChemNote>


> <STRUCTURE_Shown>
tested chemical

> <STRUCTURE_Formula>
C9H10N2OS

> <STRUCTURE_MW>
194.2535

> <STRUCTURE_ChemType>
defined organic

> <STRUCTURE_DefinedOrganicForm>
parent

> <STRUCTURE_IUPAC>
6-ethoxy-1,3-benzothiazol-2-amine

> <STRUCTURE_SMILES>
CCOc1ccc2nc(N)sc2c1

> <STRUCTURE_SMILES_Desalt>
CCOc1ccc2nc(N)sc2c1

> <Substance_modify_yyyymmdd>
20080429

$$$$
