94-74-6
ChemmineR-0915142007XD

 13 13  0  0  0  0  0  0  0  0  1 V2000
    2.3223   -2.6378    0.0000 C    0  0  0  0  0  0  0  0  0  0  0  0
    6.9344   -2.6378    0.0000 C    0  0  0  0  0  0  0  0  0  0  0  0
    3.4470   -1.9905    0.0000 C    0  0  0  0  0  0  0  0  0  0  0  0
    4.6202   -2.6621    0.0000 O    0  0  0  0  0  0  0  0  0  0  0  0
    1.1652   -1.9905    0.0000 C    0  0  0  0  0  0  0  0  0  0  0  0
    8.0915   -1.9905    0.0000 O    0  0  0  0  0  0  0  0  0  0  0  0
    3.4470   -0.6554    0.0000 C    0  0  0  0  0  0  0  0  0  0  0  0
    5.7692   -1.9905    0.0000 C    0  0  0  0  0  0  0  0  0  0  0  0
    1.1652   -0.6554    0.0000 C    0  0  0  0  0  0  0  0  0  0  0  0
    6.9344   -3.9810    0.0000 O    0  0  0  0  0  0  0  0  0  0  0  0
    2.3223    0.0000    0.0000 C    0  0  0  0  0  0  0  0  0  0  0  0
    0.0000    0.0000    0.0000 Cl   0  0  0  0  0  0  0  0  0  0  0  0
    2.3223   -3.9810    0.0000 C    0  0  0  0  0  0  0  0  0  0  0  0
  1  3  2  0  0  0  0
  1  5  1  0  0  0  0
  1 13  1  0  0  0  0
  2  8  1  0  0  0  0
  2  6  2  0  0  0  0
  2 10  1  0  0  0  0
  3  4  1  0  0  0  0
  3  7  1  0  0  0  0
  4  8  1  0  0  0  0
  5  9  2  0  0  0  0
  7 11  2  0  0  0  0
  9 11  1  0  0  0  0
  9 12  1  0  0  0  0
M  END
> <ID>
3555

> <Formula>
C9H9ClO3

> <FW>
200.619

> <DSSTox_CID>
4195

> <DSSTox_RID>
77324

> <DSSTox_GSID>
24195

> <DSSTox_FileID_Sort>
2007

> <TS_ChemName>
2-Methyl-4-chlorophenoxyacetic acid

> <TS_ChemName_Synonyms>
2-Methyl-4-chlorophenoxyacetic acid (MCPA)

> <TS_CASRN>
94-74-6

> <CASRN_ChemName_Relationship>
primary

> <TS_Description>
single chemical compound

> <ChemNote>


> <STRUCTURE_Shown>
tested chemical

> <STRUCTURE_Formula>
C9H9ClO3

> <STRUCTURE_MW>
200.619

> <STRUCTURE_ChemType>
defined organic

> <STRUCTURE_DefinedOrganicForm>
parent

> <STRUCTURE_IUPAC>
(4-chloro-2-methylphenoxy)acetic acid

> <STRUCTURE_SMILES>
Clc1cc(C)c(OCC(=O)O)cc1

> <STRUCTURE_SMILES_Desalt>
Clc1cc(C)c(OCC(=O)O)cc1

> <Substance_modify_yyyymmdd>
20080429

$$$$
