94-70-2
ChemmineR-0915142007XD

 10 10  0  0  0  0  0  0  0  0  1 V2000
    0.0000   -3.4546    0.0000 C   0  0  0  0  0  0  0  0  0  0  0  0
    1.3292   -3.4546    0.0000 C   0  0  0  0  0  0  0  0  0  0  0  0
    1.9937   -2.3051    0.0000 O   0  0  0  0  0  0  0  0  0  0  0  0
    3.3289   -2.3051    0.0000 C   0  0  0  0  0  0  0  0  0  0  0  0
    3.9935   -1.1495    0.0000 C   0  0  0  0  0  0  0  0  0  0  0  0
    3.3289    0.0000    0.0000 N   0  0  0  0  0  0  0  0  0  0  0  0
    5.3226   -1.1495    0.0000 C   0  0  0  0  0  0  0  0  0  0  0  0
    5.9872   -2.3051    0.0000 C   0  0  0  0  0  0  0  0  0  0  0  0
    5.3226   -3.4546    0.0000 C   0  0  0  0  0  0  0  0  0  0  0  0
    3.9935   -3.4546    0.0000 C   0  0  0  0  0  0  0  0  0  0  0  0
  1  2  1  0  0  0  0
  2  3  1  0  0  0  0
  3  4  1  0  0  0  0
  4  5  2  0  0  0  0
  4 10  1  0  0  0  0
  5  6  1  0  0  0  0
  5  7  1  0  0  0  0
  7  8  2  0  0  0  0
  8  9  1  0  0  0  0
  9 10  2  0  0  0  0
M  END
> <ID>
4443

> <Formula>
C8H11NO

> <FW>
137.179

> <DSSTox_CID>
5863

> <DSSTox_RID>
77953

> <DSSTox_GSID>
25863

> <DSSTox_FileID_Sort>
2636

> <TS_ChemName>
2-Ethoxyaniline

> <TS_ChemName_Synonyms>
2-Ethoxyaniline (o-Phenetidine)

> <TS_CASRN>
94-70-2

> <CASRN_ChemName_Relationship>
primary

> <TS_Description>
single chemical compound

> <ChemNote>


> <STRUCTURE_Shown>
tested chemical

> <STRUCTURE_Formula>
C8H11NO

> <STRUCTURE_MW>
137.179

> <STRUCTURE_ChemType>
defined organic

> <STRUCTURE_DefinedOrganicForm>
parent

> <STRUCTURE_IUPAC>
2-ethoxyaniline

> <STRUCTURE_SMILES>
CCOc1ccccc1N

> <STRUCTURE_SMILES_Desalt>
CCOc1ccccc1N

> <Substance_modify_yyyymmdd>
20080429

$$$$
