94-80-4
ChemmineR-0915142007XD

 17 17  0  0  0  0  0  0  0  0  1 V2000
    6.9159   -1.3324    0.0000 C    0  0  0  0  0  0  0  0  0  0  0  0
    6.9159    0.0000    0.0000 O    0  0  0  0  0  0  0  0  0  0  0  0
    8.0834   -1.9923    0.0000 O    0  0  0  0  0  0  0  0  0  0  0  0
    5.7738   -1.9923    0.0000 C    0  0  0  0  0  0  0  0  0  0  0  0
    4.5937   -1.3324    0.0000 O    0  0  0  0  0  0  0  0  0  0  0  0
    3.4643   -1.9923    0.0000 C    0  0  0  0  0  0  0  0  0  0  0  0
    3.4643   -3.3247    0.0000 C    0  0  0  0  0  0  0  0  0  0  0  0
    2.3095   -1.3324    0.0000 C    0  0  0  0  0  0  0  0  0  0  0  0
    2.3095   -3.9973    0.0000 C    0  0  0  0  0  0  0  0  0  0  0  0
    1.1548   -1.9923    0.0000 C    0  0  0  0  0  0  0  0  0  0  0  0
    1.1548   -3.3247    0.0000 C    0  0  0  0  0  0  0  0  0  0  0  0
    4.5937   -3.9973    0.0000 Cl   0  0  0  0  0  0  0  0  0  0  0  0
    0.0000   -3.9973    0.0000 Cl   0  0  0  0  0  0  0  0  0  0  0  0
    9.2381   -1.3324    0.0000 C    0  0  0  0  0  0  0  0  0  0  0  0
   10.3802   -1.9923    0.0000 C    0  0  0  0  0  0  0  0  0  0  0  0
   11.5477   -1.3324    0.0000 C    0  0  0  0  0  0  0  0  0  0  0  0
   12.6897   -1.9923    0.0000 C    0  0  0  0  0  0  0  0  0  0  0  0
  1  2  2  0  0  0  0
  1  3  1  0  0  0  0
  1  4  1  0  0  0  0
  3 14  1  0  0  0  0
  4  5  1  0  0  0  0
  5  6  1  0  0  0  0
  6  7  2  0  0  0  0
  6  8  1  0  0  0  0
  7  9  1  0  0  0  0
  7 12  1  0  0  0  0
  8 10  2  0  0  0  0
  9 11  2  0  0  0  0
 10 11  1  0  0  0  0
 11 13  1  0  0  0  0
 14 15  1  0  0  0  0
 15 16  1  0  0  0  0
 16 17  1  0  0  0  0
M  END
> <ID>
427

> <Formula>
C12H14Cl2O3

> <FW>
277.1438

> <DSSTox_CID>
443

> <DSSTox_RID>
75592

> <DSSTox_GSID>
20443

> <DSSTox_FileID_Sort>
276

> <TS_ChemName>
Butyl (2,4-dichlorophenoxy)acetate

> <TS_ChemName_Synonyms>
Butyl (2,4-dichlorophenoxy)acetate (2,4-D, n-Butyl ester) (2,4-Dichlorophenoxyacetic acid, n-butyl ester)

> <TS_CASRN>
94-80-4

> <CASRN_ChemName_Relationship>
primary

> <TS_Description>
single chemical compound

> <ChemNote>


> <STRUCTURE_Shown>
tested chemical

> <STRUCTURE_Formula>
C12H14Cl2O3

> <STRUCTURE_MW>
277.1438

> <STRUCTURE_ChemType>
defined organic

> <STRUCTURE_DefinedOrganicForm>
parent

> <STRUCTURE_IUPAC>
butyl (2,4-dichlorophenoxy)acetate

> <STRUCTURE_SMILES>
Clc1cc(Cl)ccc1OCC(=O)OCCCC

> <STRUCTURE_SMILES_Desalt>
Clc1cc(Cl)ccc1OCC(=O)OCCCC

> <Substance_modify_yyyymmdd>
20080429

$$$$
