94-86-0_1
ChemmineR-0915142007XD

 13 13  0  0  0  0  0  0  0  0  1 V2000
    4.6042   -0.6531    0.0000 C   0  0  0  0  0  0  0  0  0  0  0  0
    5.7573    0.0000    0.0000 O   0  0  0  0  0  0  0  0  0  0  0  0
    4.6042   -1.9836    0.0000 C   0  0  0  0  0  0  0  0  0  0  0  0
    3.4431    0.0000    0.0000 C   0  0  0  0  0  0  0  0  0  0  0  0
    2.3061   -0.6531    0.0000 C   0  0  0  0  0  0  0  0  0  0  0  0
    3.4431   -2.6609    0.0000 C   0  0  0  0  0  0  0  0  0  0  0  0
    2.3061   -1.9836    0.0000 C   0  0  0  0  0  0  0  0  0  0  0  0
    5.7573   -2.6609    0.0000 O   0  0  0  0  0  0  0  0  0  0  0  0
    6.9104   -1.9836    0.0000 C   0  0  0  0  0  0  0  0  0  0  0  0
    8.0635   -2.6609    0.0000 C   0  0  0  0  0  0  0  0  0  0  0  0
    1.1531    0.0000    0.0000 C   0  0  0  0  0  0  0  0  0  0  0  0
    0.0000   -0.6531    0.0000 C   0  0  0  0  0  0  0  0  0  0  0  0
    0.0000   -1.9836    0.0000 C   0  0  0  0  0  0  0  0  0  0  0  0
  1  2  1  0  0  0  0
  1  3  2  0  0  0  0
  1  4  1  0  0  0  0
  3  6  1  0  0  0  0
  3  8  1  0  0  0  0
  4  5  2  0  0  0  0
  5  7  1  0  0  0  0
  5 11  1  0  0  0  0
  6  7  2  0  0  0  0
  8  9  1  0  0  0  0
  9 10  1  0  0  0  0
 11 12  2  0  0  0  0
 12 13  1  0  0  0  0
M  END
> <ID>
12836

> <Formula>
C11H14O2

> <FW>
178.2277

> <DSSTox_CID>
27715

> <DSSTox_RID>
82524

> <DSSTox_GSID>
47726

> <DSSTox_FileID_Sort>
7205

> <TS_ChemName>
trans-2-Ethoxy-5-(1-propenyl)phenol

> <TS_ChemName_Synonyms>


> <TS_CASRN>
94-86-0_1

> <CASRN_ChemName_Relationship>
CAS for non-stereo form

> <TS_Description>
single chemical compound

> <ChemNote>
CASRN non-stereo specific

> <STRUCTURE_Shown>
tested chemical

> <STRUCTURE_Formula>
C11H14O2

> <STRUCTURE_MW>
178.2277

> <STRUCTURE_ChemType>
defined organic

> <STRUCTURE_DefinedOrganicForm>
parent

> <STRUCTURE_IUPAC>
2-ethoxy-5-[(1Z)-prop-1-en-1-yl]phenol

> <STRUCTURE_SMILES>
CCOc1ccc(cc1O)/C=C\C

> <STRUCTURE_SMILES_Desalt>
CCOc1ccc(cc1O)/C=C\C

> <Substance_modify_yyyymmdd>
20130906

$$$$
