94-82-6
ChemmineR-0915142007XD

 15 15  0  0  0  0  0  0  0  0  1 V2000
    3.4539   -3.3605    0.0000 C    0  0  0  0  0  0  0  0  0  0  0  0
    2.2922   -4.0036    0.0000 C    0  0  0  0  0  0  0  0  0  0  0  0
    9.2206   -1.3380    0.0000 C    0  0  0  0  0  0  0  0  0  0  0  0
    3.4539   -2.0225    0.0000 C    0  0  0  0  0  0  0  0  0  0  0  0
   10.3719   -1.9914    0.0000 O    0  0  0  0  0  0  0  0  0  0  0  0
    2.2922   -1.3587    0.0000 C    0  0  0  0  0  0  0  0  0  0  0  0
    1.1513   -3.3501    0.0000 C    0  0  0  0  0  0  0  0  0  0  0  0
    4.6051   -4.0451    0.0000 Cl   0  0  0  0  0  0  0  0  0  0  0  0
    9.2206    0.0000    0.0000 O    0  0  0  0  0  0  0  0  0  0  0  0
    1.1513   -2.0225    0.0000 C    0  0  0  0  0  0  0  0  0  0  0  0
    0.0000   -4.0139    0.0000 Cl   0  0  0  0  0  0  0  0  0  0  0  0
    4.6051   -1.3484    0.0000 O    0  0  0  0  0  0  0  0  0  0  0  0
    8.0694   -2.0018    0.0000 C    0  0  0  0  0  0  0  0  0  0  0  0
    5.7564   -2.0122    0.0000 C    0  0  0  0  0  0  0  0  0  0  0  0
    6.9077   -1.3484    0.0000 C    0  0  0  0  0  0  0  0  0  0  0  0
  1  2  2  0  0  0  0
  1  4  1  0  0  0  0
  1  8  1  0  0  0  0
  2  7  1  0  0  0  0
  3 13  1  0  0  0  0
  3  5  1  0  0  0  0
  3  9  2  0  0  0  0
  4  6  2  0  0  0  0
  4 12  1  0  0  0  0
  6 10  1  0  0  0  0
  7 11  1  0  0  0  0
  7 10  2  0  0  0  0
 12 14  1  0  0  0  0
 13 15  1  0  0  0  0
 14 15  1  0  0  0  0
M  END
> <ID>
3473

> <Formula>
C10H10Cl2O3

> <FW>
249.0906

> <DSSTox_CID>
4035

> <DSSTox_RID>
77263

> <DSSTox_GSID>
24035

> <DSSTox_FileID_Sort>
1946

> <TS_ChemName>
4-(2,4-Dichlorophenoxy)butyric acid

> <TS_ChemName_Synonyms>
4-(2,4-Dichlorophenoxy)butyric acid (2,4-DB)

> <TS_CASRN>
94-82-6

> <CASRN_ChemName_Relationship>
primary

> <TS_Description>
single chemical compound

> <ChemNote>


> <STRUCTURE_Shown>
tested chemical

> <STRUCTURE_Formula>
C10H10Cl2O3

> <STRUCTURE_MW>
249.0906

> <STRUCTURE_ChemType>
defined organic

> <STRUCTURE_DefinedOrganicForm>
parent

> <STRUCTURE_IUPAC>
4-(2,4-dichlorophenoxy)butanoic acid

> <STRUCTURE_SMILES>
Clc1cc(Cl)ccc1OCCCC(=O)O

> <STRUCTURE_SMILES_Desalt>
Clc1cc(Cl)ccc1OCCCC(=O)O

> <Substance_modify_yyyymmdd>
20080429

$$$$
