94-97-3
ChemmineR-0915142007XD

 10 11  0  0  0  0  0  0  0  0  1 V2000
    4.7180   -2.4058    0.0000 N    0  0  0  0  0  0  0  0  0  0  0  0
    5.5052   -1.3323    0.0000 N    0  0  0  0  0  0  0  0  0  0  0  0
    4.7180   -0.2587    0.0000 N    0  0  0  0  0  0  0  0  0  0  0  0
    3.4683   -0.6606    0.0000 C    0  0  0  0  0  0  0  0  0  0  0  0
    2.3122    0.0000    0.0000 C    0  0  0  0  0  0  0  0  0  0  0  0
    1.1561   -0.6606    0.0000 C    0  0  0  0  0  0  0  0  0  0  0  0
    1.1561   -1.9929    0.0000 C    0  0  0  0  0  0  0  0  0  0  0  0
    2.3122   -2.6645    0.0000 C    0  0  0  0  0  0  0  0  0  0  0  0
    3.4683   -1.9929    0.0000 C    0  0  0  0  0  0  0  0  0  0  0  0
    0.0000   -2.6645    0.0000 Cl   0  0  0  0  0  0  0  0  0  0  0  0
  1  2  2  0  0  0  0
  1  9  1  0  0  0  0
  2  3  1  0  0  0  0
  3  4  1  0  0  0  0
  4  5  1  0  0  0  0
  4  9  2  0  0  0  0
  5  6  2  0  0  0  0
  6  7  1  0  0  0  0
  7  8  2  0  0  0  0
  7 10  1  0  0  0  0
  8  9  1  0  0  0  0
M  END
> <ID>
12590

> <Formula>
C6H4ClN3

> <FW>
153.5691

> <DSSTox_CID>
27450

> <DSSTox_RID>
82355

> <DSSTox_GSID>
47450

> <DSSTox_FileID_Sort>
7036

> <TS_ChemName>
1H-Benzotriazole, 5-chloro-

> <TS_ChemName_Synonyms>


> <TS_CASRN>
94-97-3

> <CASRN_ChemName_Relationship>
primary

> <TS_Description>
single chemical compound

> <ChemNote>
tautomers

> <STRUCTURE_Shown>
tested chemical

> <STRUCTURE_Formula>
C6H4ClN3

> <STRUCTURE_MW>
153.5691

> <STRUCTURE_ChemType>
defined organic

> <STRUCTURE_DefinedOrganicForm>
parent

> <STRUCTURE_IUPAC>
5-chloro-1H-benzotriazole

> <STRUCTURE_SMILES>
Clc1cc2nnnc2cc1

> <STRUCTURE_SMILES_Desalt>
Clc1cc2nnnc2cc1

> <Substance_modify_yyyymmdd>
20100620

$$$$
