94-96-2
ChemmineR-0915142007XD

 10  9  0  0  0  0  0  0  0  0  1 V2000
    0.0000   -1.9895    0.0000 O   0  0  0  0  0  0  0  0  0  0  0  0
    1.1536   -2.6595    0.0000 C   0  0  0  0  0  0  0  0  0  0  0  0
    2.3003   -1.9895    0.0000 C   0  0  0  0  0  0  0  0  0  0  0  0
    3.4540   -2.6595    0.0000 C   0  0  0  0  0  0  0  0  0  0  0  0
    3.4540   -3.9859    0.0000 O   0  0  0  0  0  0  0  0  0  0  0  0
    4.6076   -1.9895    0.0000 C   0  0  0  0  0  0  0  0  0  0  0  0
    5.7543   -2.6595    0.0000 C   0  0  0  0  0  0  0  0  0  0  0  0
    6.9079   -1.9895    0.0000 C   0  0  0  0  0  0  0  0  0  0  0  0
    2.3003   -0.6632    0.0000 C   0  0  0  0  0  0  0  0  0  0  0  0
    1.1536    0.0000    0.0000 C   0  0  0  0  0  0  0  0  0  0  0  0
  1  2  1  0  0  0  0
  2  3  1  0  0  0  0
  3  4  1  0  0  0  0
  3  9  1  0  0  0  0
  4  5  1  0  0  0  0
  4  6  1  0  0  0  0
  6  7  1  0  0  0  0
  7  8  1  0  0  0  0
  9 10  1  0  0  0  0
M  END
> <ID>
4122

> <Formula>
C8H18O2

> <FW>
146.2273

> <DSSTox_CID>
5292

> <DSSTox_RID>
77729

> <DSSTox_GSID>
25292

> <DSSTox_FileID_Sort>
2412

> <TS_ChemName>
2-Ethyl-1,3-hexanediol

> <TS_ChemName_Synonyms>


> <TS_CASRN>
94-96-2

> <CASRN_ChemName_Relationship>
primary

> <TS_Description>
single chemical compound

> <ChemNote>


> <STRUCTURE_Shown>
tested chemical

> <STRUCTURE_Formula>
C8H18O2

> <STRUCTURE_MW>
146.2273

> <STRUCTURE_ChemType>
defined organic

> <STRUCTURE_DefinedOrganicForm>
parent

> <STRUCTURE_IUPAC>
2-ethylhexane-1,3-diol

> <STRUCTURE_SMILES>
CCCC(O)C(CC)CO

> <STRUCTURE_SMILES_Desalt>
CCCC(O)C(CC)CO

> <Substance_modify_yyyymmdd>
20080429

$$$$
