94-91-7
ChemmineR-0915142007XD

 21 22  0  0  0  0  0  0  0  0  1 V2000
    2.3055   -1.9888    0.0000 C   0  0  0  0  0  0  0  0  0  0  0  0
    1.1528   -2.6602    0.0000 C   0  0  0  0  0  0  0  0  0  0  0  0
    0.0000   -1.9888    0.0000 C   0  0  0  0  0  0  0  0  0  0  0  0
    0.0000   -0.6587    0.0000 C   0  0  0  0  0  0  0  0  0  0  0  0
    1.1528    0.0000    0.0000 C   0  0  0  0  0  0  0  0  0  0  0  0
    2.3055   -0.6587    0.0000 C   0  0  0  0  0  0  0  0  0  0  0  0
    1.1528   -3.9903    0.0000 O   0  0  0  0  0  0  0  0  0  0  0  0
    3.4583   -2.6602    0.0000 C   0  0  0  0  0  0  0  0  0  0  0  0
    4.6237   -1.9888    0.0000 N   0  0  0  0  0  0  0  0  0  0  0  0
    5.7765   -2.6602    0.0000 C   0  0  0  0  0  0  0  0  0  0  0  0
    6.8913   -2.0015    0.0000 C   0  0  0  0  0  0  0  0  0  0  0  0
    8.0440   -2.6602    0.0000 N   0  0  0  0  0  0  0  0  0  0  0  0
    9.2095   -2.0015    0.0000 C   0  0  0  0  0  0  0  0  0  0  0  0
   10.3622   -2.6602    0.0000 C   0  0  0  0  0  0  0  0  0  0  0  0
   11.5150   -2.0015    0.0000 C   0  0  0  0  0  0  0  0  0  0  0  0
   12.6678   -2.6602    0.0000 C   0  0  0  0  0  0  0  0  0  0  0  0
   12.6678   -3.9903    0.0000 C   0  0  0  0  0  0  0  0  0  0  0  0
   11.5150   -4.6617    0.0000 C   0  0  0  0  0  0  0  0  0  0  0  0
   10.3622   -3.9903    0.0000 C   0  0  0  0  0  0  0  0  0  0  0  0
   11.5150   -0.6714    0.0000 O   0  0  0  0  0  0  0  0  0  0  0  0
    6.9166   -0.6714    0.0000 C   0  0  0  0  0  0  0  0  0  0  0  0
  1  2  1  0  0  0  0
  1  6  2  0  0  0  0
  1  8  1  0  0  0  0
  2  3  2  0  0  0  0
  2  7  1  0  0  0  0
  3  4  1  0  0  0  0
  4  5  2  0  0  0  0
  5  6  1  0  0  0  0
  8  9  2  0  0  0  0
  9 10  1  0  0  0  0
 10 11  1  0  0  0  0
 11 12  1  0  0  0  0
 11 21  1  0  0  0  0
 12 13  2  0  0  0  0
 13 14  1  0  0  0  0
 14 15  1  0  0  0  0
 14 19  2  0  0  0  0
 15 16  2  0  0  0  0
 15 20  1  0  0  0  0
 16 17  1  0  0  0  0
 17 18  2  0  0  0  0
 18 19  1  0  0  0  0
M  END
> <ID>
8173

> <Formula>
C17H18N2O2

> <FW>
282.337

> <DSSTox_CID>
21200

> <DSSTox_RID>
79645

> <DSSTox_GSID>
41200

> <DSSTox_FileID_Sort>
4327

> <TS_ChemName>
N,N'-Disalicylidene-1,2-diaminopropane

> <TS_ChemName_Synonyms>
N,N'-Disalicylidene-1,2-diaminopropane (.alpha.,.alpha.'-(Propylenedinitrilo)di-o-cresol)

> <TS_CASRN>
94-91-7

> <CASRN_ChemName_Relationship>
primary

> <TS_Description>
single chemical compound

> <ChemNote>


> <STRUCTURE_Shown>
tested chemical

> <STRUCTURE_Formula>
C17H18N2O2

> <STRUCTURE_MW>
282.337

> <STRUCTURE_ChemType>
defined organic

> <STRUCTURE_DefinedOrganicForm>
parent

> <STRUCTURE_IUPAC>
2,2'-{propane-1,2-diylbis[nitrilo(E)methylylidene]}diphenol

> <STRUCTURE_SMILES>
Oc2ccccc2/C=N/C(C)C/N=C/c1ccccc1O

> <STRUCTURE_SMILES_Desalt>
Oc2ccccc2/C=N/C(C)C/N=C/c1ccccc1O

> <Substance_modify_yyyymmdd>
20080825

$$$$
