940-69-2
ChemmineR-0915142007XD

 12 12  0  0  0  0  0  0  0  0  1 V2000
    1.7378   -3.2865    0.0000 S   0  0  0  0  0  0  0  0  0  0  0  0
    0.4142   -3.2865    0.0000 S   0  0  0  0  0  0  0  0  0  0  0  0
    7.8516   -1.3056    0.0000 C   0  0  0  0  0  0  0  0  0  0  0  0
    7.8516    0.0000    0.0000 O   0  0  0  0  0  0  0  0  0  0  0  0
    2.1520   -1.9899    0.0000 C   0  0  0  0  0  0  0  0  0  0  0  0
    9.0042   -1.9899    0.0000 N   0  0  0  0  0  0  0  0  0  0  0  0
    1.0715   -1.2426    0.0000 C   0  0  0  0  0  0  0  0  0  0  0  0
    0.0000   -1.9899    0.0000 C   0  0  0  0  0  0  0  0  0  0  0  0
    6.7171   -1.9899    0.0000 C   0  0  0  0  0  0  0  0  0  0  0  0
    3.2685   -1.3056    0.0000 C   0  0  0  0  0  0  0  0  0  0  0  0
    5.5736   -1.3056    0.0000 C   0  0  0  0  0  0  0  0  0  0  0  0
    4.4030   -1.9899    0.0000 C   0  0  0  0  0  0  0  0  0  0  0  0
  1  2  1  0  0  0  0
  1  5  1  0  0  0  0
  2  8  1  0  0  0  0
  3  9  1  0  0  0  0
  3  4  2  0  0  0  0
  3  6  1  0  0  0  0
  5  7  1  0  0  0  0
  5 10  1  0  0  0  0
  7  8  1  0  0  0  0
  9 11  1  0  0  0  0
 10 12  1  0  0  0  0
 11 12  1  0  0  0  0
M  END
> <ID>
11771

> <Formula>
C8H15NOS2

> <FW>
205.3408

> <DSSTox_CID>
26541

> <DSSTox_RID>
81705

> <DSSTox_GSID>
46541

> <DSSTox_FileID_Sort>
6386

> <TS_ChemName>
alpha-Lipoic acid amide

> <TS_ChemName_Synonyms>


> <TS_CASRN>
940-69-2

> <CASRN_ChemName_Relationship>
primary

> <TS_Description>
single chemical compound

> <ChemNote>


> <STRUCTURE_Shown>
tested chemical

> <STRUCTURE_Formula>
C8H15NOS2

> <STRUCTURE_MW>
205.3408

> <STRUCTURE_ChemType>
defined organic

> <STRUCTURE_DefinedOrganicForm>
parent

> <STRUCTURE_IUPAC>
5-(1,2-dithiolan-3-yl)pentanamide

> <STRUCTURE_SMILES>
NC(=O)CCCCC1CCSS1

> <STRUCTURE_SMILES_Desalt>
NC(=O)CCCCC1CCSS1

> <Substance_modify_yyyymmdd>
20110811

$$$$
