94055-76-2
ChemmineR-0915142007XD

 33 33  0  0  0  0  0  0  0  0  2 V2000
    0.0000   -5.0084    0.0000 C   0  0  0  0  0  0  0  0  0  0  0  0
    1.3285   -5.0084    0.0000 C   0  0  0  0  0  0  0  0  0  0  0  0
    2.0060   -6.1642    0.0000 O   0  0  0  0  0  0  0  0  0  0  0  0
    3.3345   -6.1642    0.0000 C   0  0  0  0  0  0  0  0  0  0  0  0
    3.9988   -7.3067    0.0000 C   0  0  0  0  0  0  0  0  0  0  0  0
    5.3140   -7.3067    0.0000 C   0  0  0  0  0  0  0  0  0  0  0  0
    5.9650   -6.1642    0.0000 O   0  0  0  0  0  0  0  0  0  0  0  0
    3.3345   -8.4493    0.0000 O   0  0  0  0  0  0  0  0  0  0  0  0
    7.3200   -6.1642    0.0000 C   0  0  0  0  0  0  0  0  0  0  0  0
    7.9710   -5.0084    0.0000 C   0  0  0  0  0  0  0  0  0  0  0  0
    9.2862   -5.0084    0.0000 C   0  0  0  0  0  0  0  0  0  0  0  0
    9.9770   -6.1642    0.0000 C   0  0  0  0  0  0  0  0  0  0  0  0
    9.2862   -7.3067    0.0000 C   0  0  0  0  0  0  0  0  0  0  0  0
    7.9710   -7.3067    0.0000 C   0  0  0  0  0  0  0  0  0  0  0  0
   11.3055   -6.1642    0.0000 N   0  0  0  0  0  0  0  0  0  0  0  0
   11.9565   -5.0084    0.0000 C   0  0  0  0  0  0  0  0  0  0  0  0
   13.2850   -5.0084    0.0000 O   0  0  0  0  0  0  0  0  0  0  0  0
   11.3055   -3.8394    0.0000 C   0  0  0  0  0  0  0  0  0  0  0  0
   11.9565   -2.6969    0.0000 C   0  0  0  0  0  0  0  0  0  0  0  0
   11.3055   -1.5543    0.0000 S   0  3  0  0  0  0  0  0  0  0  0  0
   11.9565   -0.3985    0.0000 C   0  0  0  0  0  0  0  0  0  0  0  0
    9.9770   -1.5543    0.0000 C   0  0  0  0  0  0  0  0  0  0  0  0
    3.1353   -3.8394    0.0000 C   0  0  0  0  0  0  0  0  0  0  0  0
    4.3043   -3.1485    0.0000 C   0  0  0  0  0  0  0  0  0  0  0  0
    4.3043   -1.8333    0.0000 C   0  0  0  0  0  0  0  0  0  0  0  0
    5.4601   -1.1691    0.0000 C   0  0  0  0  0  0  0  0  0  0  0  0
    6.6159   -1.8333    0.0000 C   0  0  0  0  0  0  0  0  0  0  0  0
    6.6159   -3.1485    0.0000 C   0  0  0  0  0  0  0  0  0  0  0  0
    5.4601   -3.8394    0.0000 C   0  0  0  0  0  0  0  0  0  0  0  0
    7.7584   -1.1691    0.0000 S   0  0  0  0  0  0  0  0  0  0  0  0
    8.4360   -2.3249    0.0000 O   0  0  0  0  0  0  0  0  0  0  0  0
    7.1075    0.0000    0.0000 O   0  0  0  0  0  0  0  0  0  0  0  0
    8.9275   -0.4783    0.0000 O   0  5  0  0  0  0  0  0  0  0  0  0
  1  2  1  0  0  0  0
  2  3  1  0  0  0  0
  3  4  1  0  0  0  0
  4  5  1  0  0  0  0
  5  6  1  0  0  0  0
  5  8  1  0  0  0  0
  6  7  1  0  0  0  0
  7  9  1  0  0  0  0
  9 10  2  0  0  0  0
  9 14  1  0  0  0  0
 10 11  1  0  0  0  0
 11 12  2  0  0  0  0
 12 13  1  0  0  0  0
 12 15  1  0  0  0  0
 13 14  2  0  0  0  0
 15 16  1  0  0  0  0
 16 17  2  0  0  0  0
 16 18  1  0  0  0  0
 18 19  1  0  0  0  0
 19 20  1  0  0  0  0
 20 21  1  0  0  0  0
 20 22  1  0  0  0  0
 23 24  1  0  0  0  0
 24 25  2  0  0  0  0
 24 29  1  0  0  0  0
 25 26  1  0  0  0  0
 26 27  2  0  0  0  0
 27 28  1  0  0  0  0
 27 30  1  0  0  0  0
 28 29  2  0  0  0  0
 30 31  2  0  0  0  0
 30 32  2  0  0  0  0
 30 33  1  0  0  0  0
M  END
> <ID>
10650

> <Formula>
C23H33NO7S2

> <FW>
499.6406 (328.4464+171.1942)

> <DSSTox_CID>
25003

> <DSSTox_RID>
80646

> <DSSTox_GSID>
45003

> <DSSTox_FileID_Sort>
5328

> <TS_ChemName>
Suplatast tosylate

> <TS_ChemName_Synonyms>
Suplatast tosilate

> <TS_CASRN>
94055-76-2

> <CASRN_ChemName_Relationship>
primary

> <TS_Description>
single chemical compound

> <ChemNote>
parent [94055-75-1]

> <STRUCTURE_Shown>
tested chemical

> <STRUCTURE_Formula>
C23H33NO7S2

> <STRUCTURE_MW>
499.6406

> <STRUCTURE_ChemType>
defined organic

> <STRUCTURE_DefinedOrganicForm>
complex

> <STRUCTURE_IUPAC>
(3-{[4-(3-ethoxy-2-hydroxypropoxy)phenyl]amino}-3-oxopropyl)(dimethyl)sulfonium 4-methylbenzenesulfonate

> <STRUCTURE_SMILES>
Cc1ccc(cc1)S(=O)([O-])=O.C[S+](C)CCC(=O)Nc1ccc(OCC(O)COCC)cc1

> <STRUCTURE_SMILES_Desalt>
C[S+](C)CCC(=O)Nc1ccc(OCC(O)COCC)cc1

> <Substance_modify_yyyymmdd>
20091116

$$$$
