94280-72-5
ChemmineR-0915142007XD

 12 11  0  0  0  0  0  0  0  0  2 V2000
    6.1242   -6.2941    0.0000 C    0  0  0  0  0  0  0  0  0  0  0  0
    2.6687   -2.9708    0.0000 C    0  0  0  0  0  0  0  0  0  0  0  0
    4.9724   -5.6270    0.0000 C    0  0  0  0  0  0  0  0  0  0  0  0
    4.9724   -4.2989    0.0000 C    0  0  0  0  0  0  0  0  0  0  0  0
    5.1549    0.0000    0.0000 C    0  0  0  0  0  0  0  0  0  0  0  0
    3.8205    0.0000    0.0000 C    0  0  0  0  0  0  0  0  0  0  0  0
    5.8158   -1.1518    0.0000 C    0  0  0  0  0  0  0  0  0  0  0  0
    3.8205   -3.6317    0.0000 C    0  0  0  0  0  0  0  0  0  0  0  0
    3.1597   -1.1518    0.0000 C    0  0  0  0  0  0  0  0  0  0  0  0
    5.1549   -2.3037    0.0000 C    0  0  0  0  0  0  0  0  0  0  0  0
    3.8205   -2.3037    0.0000 N    0  3  0  0  0  0  0  0  0  0  0  0
    0.0000   -1.1518    0.0000 Br   0  5  0  0  0  0  0  0  0  0  0  0
  1  3  1  0  0  0  0
  2 11  1  0  0  0  0
  3  4  1  0  0  0  0
  4  8  1  0  0  0  0
  5  6  1  0  0  0  0
  5  7  1  0  0  0  0
  6  9  1  0  0  0  0
  7 10  1  0  0  0  0
  8 11  1  0  0  0  0
  9 11  1  0  0  0  0
 10 11  1  0  0  0  0
M  END
> <ID>
14242

> <Formula>
C10H22BrN

> <FW>
236.1924 (156.2878+79.9045)

> <DSSTox_CID>
29337

> <DSSTox_RID>
83453

> <DSSTox_GSID>
49378

> <DSSTox_FileID_Sort>
8128

> <TS_ChemName>
1-Butyl-1-methylpiperidinium bromide

> <TS_ChemName_Synonyms>


> <TS_CASRN>
94280-72-5

> <CASRN_ChemName_Relationship>
primary

> <TS_Description>
single chemical compound

> <ChemNote>
ammonium

> <STRUCTURE_Shown>
tested chemical

> <STRUCTURE_Formula>
C10H22BrN

> <STRUCTURE_MW>
236.1924

> <STRUCTURE_ChemType>
defined organic

> <STRUCTURE_DefinedOrganicForm>
salt

> <STRUCTURE_IUPAC>
1-butyl-1-methylpiperidinium bromide

> <STRUCTURE_SMILES>
[Br-].C[N+]1(CCCC)CCCCC1

> <STRUCTURE_SMILES_Desalt>
C[N+]1(CCCC)CCCCC1

> <Substance_modify_yyyymmdd>
20111204

$$$$
