94317-64-3
ChemmineR-0915142007XD

  9  8  0  0  0  0  0  0  0  0  1 V2000
    1.2209   -1.2209    0.0000 P   0  0  0  0  0  0  0  0  0  0  0  0
    2.4207   -0.6595    0.0000 N   0  0  0  0  0  0  0  0  0  0  0  0
    0.0000   -1.7611    0.0000 N   0  0  0  0  0  0  0  0  0  0  0  0
    1.7611   -2.4207    0.0000 N   0  0  0  0  0  0  0  0  0  0  0  0
    0.6595    0.0000    0.0000 S   0  0  0  0  0  0  0  0  0  0  0  0
    3.5082   -1.4243    0.0000 C   0  0  0  0  0  0  0  0  0  0  0  0
    4.7291   -0.8841    0.0000 C   0  0  0  0  0  0  0  0  0  0  0  0
    5.7956   -1.6489    0.0000 C   0  0  0  0  0  0  0  0  0  0  0  0
    7.0165   -1.0876    0.0000 C   0  0  0  0  0  0  0  0  0  0  0  0
  1  5  2  0  0  0  0
  1  4  1  0  0  0  0
  1  3  1  0  0  0  0
  1  2  1  0  0  0  0
  2  6  1  0  0  0  0
  6  7  1  0  0  0  0
  7  8  1  0  0  0  0
  8  9  1  0  0  0  0
M  END
> <ID>
10399

> <Formula>
C4H14N3PS

> <FW>
167.2128

> <DSSTox_CID>
24747

> <DSSTox_RID>
80441

> <DSSTox_GSID>
44747

> <DSSTox_FileID_Sort>
5123

> <TS_ChemName>
N-Butylphosphorothioic triamide

> <TS_ChemName_Synonyms>
N-Butylphosphorothioic triamide (Phosphorothioic triamide, butyl-)

> <TS_CASRN>
94317-64-3

> <CASRN_ChemName_Relationship>
primary

> <TS_Description>
single chemical compound

> <ChemNote>


> <STRUCTURE_Shown>
tested chemical

> <STRUCTURE_Formula>
C4H14N3PS

> <STRUCTURE_MW>
167.2128

> <STRUCTURE_ChemType>
defined organic

> <STRUCTURE_DefinedOrganicForm>
parent

> <STRUCTURE_IUPAC>
N-butylphosphorothioic triamide

> <STRUCTURE_SMILES>
CCCCNP(N)(N)=S

> <STRUCTURE_SMILES_Desalt>
CCCCNP(N)(N)=S

> <Substance_modify_yyyymmdd>
20091116

$$$$
