944-22-9
ChemmineR-0915142007XD

 14 14  0  0  0  0  0  0  0  0  1 V2000
    2.2580   -2.3071    0.0000 P   0  0  0  0  0  0  0  0  0  0  0  0
    3.5693   -2.6507    0.0000 S   0  0  0  0  0  0  0  0  0  0  0  0
    2.9522   -3.4431    0.0000 O   0  0  0  0  0  0  0  0  0  0  0  0
    1.1500   -2.9522    0.0000 C   0  0  0  0  0  0  0  0  0  0  0  0
    2.2580   -0.9817    0.0000 S   0  0  0  0  0  0  0  0  0  0  0  0
    4.6772   -1.9915    0.0000 C   0  0  0  0  0  0  0  0  0  0  0  0
    4.2775   -3.4431    0.0000 C   0  0  0  0  0  0  0  0  0  0  0  0
    0.0000   -2.3071    0.0000 C   0  0  0  0  0  0  0  0  0  0  0  0
    5.8623   -2.6507    0.0000 C   0  0  0  0  0  0  0  0  0  0  0  0
    4.6772   -0.6662    0.0000 C   0  0  0  0  0  0  0  0  0  0  0  0
    4.9437   -4.6422    0.0000 C   0  0  0  0  0  0  0  0  0  0  0  0
    7.0123   -1.9915    0.0000 C   0  0  0  0  0  0  0  0  0  0  0  0
    5.8623    0.0000    0.0000 C   0  0  0  0  0  0  0  0  0  0  0  0
    7.0123   -0.6662    0.0000 C   0  0  0  0  0  0  0  0  0  0  0  0
  1  2  1  0  0  0  0
  1  3  1  0  0  0  0
  1  4  1  0  0  0  0
  1  5  2  0  0  0  0
  2  6  1  0  0  0  0
  3  7  1  0  0  0  0
  4  8  1  0  0  0  0
  6  9  2  0  0  0  0
  6 10  1  0  0  0  0
  7 11  1  0  0  0  0
  9 12  1  0  0  0  0
 10 13  2  0  0  0  0
 12 14  2  0  0  0  0
 13 14  1  0  0  0  0
M  END
> <ID>
3511

> <Formula>
C10H15OPS2

> <FW>
246.3293

> <DSSTox_CID>
4113

> <DSSTox_RID>
77297

> <DSSTox_GSID>
24113

> <DSSTox_FileID_Sort>
1980

> <TS_ChemName>
Fonofos

> <TS_ChemName_Synonyms>


> <TS_CASRN>
944-22-9

> <CASRN_ChemName_Relationship>
primary

> <TS_Description>
single chemical compound

> <ChemNote>
mixture of (R,S) isomers; structure shown without stereochem

> <STRUCTURE_Shown>
tested chemical

> <STRUCTURE_Formula>
C10H15OPS2

> <STRUCTURE_MW>
246.3293

> <STRUCTURE_ChemType>
defined organic

> <STRUCTURE_DefinedOrganicForm>
parent

> <STRUCTURE_IUPAC>
O-ethyl S-phenyl ethylphosphonodithioate

> <STRUCTURE_SMILES>
S=P(Sc1ccccc1)(CC)OCC

> <STRUCTURE_SMILES_Desalt>
S=P(Sc1ccccc1)(CC)OCC

> <Substance_modify_yyyymmdd>
20080429

$$$$
