94497-51-5
ChemmineR-0915142007XD

 26 28  0  0  0  0  0  0  0  0  1 V2000
    3.4545   -3.3153    0.0000 C   0  0  0  0  0  0  0  0  0  0  0  0
    4.6060   -3.9986    0.0000 C   0  0  0  0  0  0  0  0  0  0  0  0
    4.6060   -5.3146    0.0000 C   0  0  0  0  0  0  0  0  0  0  0  0
    3.4545   -5.9727    0.0000 C   0  0  0  0  0  0  0  0  0  0  0  0
    2.3030   -3.9986    0.0000 C   0  0  0  0  0  0  0  0  0  0  0  0
    2.3030   -5.3146    0.0000 C   0  0  0  0  0  0  0  0  0  0  0  0
    1.1515   -5.9727    0.0000 C   0  0  0  0  0  0  0  0  0  0  0  0
    0.0000   -5.3146    0.0000 C   0  0  0  0  0  0  0  0  0  0  0  0
    0.0000   -3.9986    0.0000 C   0  0  0  0  0  0  0  0  0  0  0  0
    1.1515   -3.3153    0.0000 C   0  0  0  0  0  0  0  0  0  0  0  0
    1.8222   -7.1242    0.0000 C   0  0  0  0  0  0  0  0  0  0  0  0
    0.4935   -7.1242    0.0000 C   0  0  0  0  0  0  0  0  0  0  0  0
    1.8222   -2.1512    0.0000 C   0  0  0  0  0  0  0  0  0  0  0  0
    0.4935   -2.1512    0.0000 C   0  0  0  0  0  0  0  0  0  0  0  0
    5.7575   -3.3153    0.0000 N   0  0  0  0  0  0  0  0  0  0  0  0
    6.8964   -3.9986    0.0000 C   0  0  0  0  0  0  0  0  0  0  0  0
    8.0479   -3.3153    0.0000 C   0  0  0  0  0  0  0  0  0  0  0  0
    6.8964   -5.3146    0.0000 O   0  0  0  0  0  0  0  0  0  0  0  0
    9.1994   -3.9986    0.0000 C   0  0  0  0  0  0  0  0  0  0  0  0
   10.3509   -3.3153    0.0000 C   0  0  0  0  0  0  0  0  0  0  0  0
   10.3509   -1.9740    0.0000 C   0  0  0  0  0  0  0  0  0  0  0  0
    9.1994   -1.3287    0.0000 C   0  0  0  0  0  0  0  0  0  0  0  0
    8.0479   -1.9740    0.0000 C   0  0  0  0  0  0  0  0  0  0  0  0
   11.5024   -1.3287    0.0000 C   0  0  0  0  0  0  0  0  0  0  0  0
   11.5024    0.0000    0.0000 O   0  0  0  0  0  0  0  0  0  0  0  0
   12.6539   -1.9740    0.0000 O   0  0  0  0  0  0  0  0  0  0  0  0
  1  5  1  0  0  0  0
  1  2  2  0  0  0  0
  2  3  1  0  0  0  0
  2 15  1  0  0  0  0
  3  4  2  0  0  0  0
  4  6  1  0  0  0  0
  5 10  1  0  0  0  0
  5  6  2  0  0  0  0
  6  7  1  0  0  0  0
  7  8  1  0  0  0  0
  7 11  1  0  0  0  0
  7 12  1  0  0  0  0
  8  9  1  0  0  0  0
  9 10  1  0  0  0  0
 10 13  1  0  0  0  0
 10 14  1  0  0  0  0
 15 16  1  0  0  0  0
 16 17  1  0  0  0  0
 16 18  2  0  0  0  0
 17 19  2  0  0  0  0
 17 23  1  0  0  0  0
 19 20  1  0  0  0  0
 20 21  2  0  0  0  0
 21 22  1  0  0  0  0
 21 24  1  0  0  0  0
 22 23  2  0  0  0  0
 24 25  2  0  0  0  0
 24 26  1  0  0  0  0
M  END
> <ID>
12025

> <Formula>
C22H25NO3

> <FW>
351.4388

> <DSSTox_CID>
26853

> <DSSTox_RID>
81962

> <DSSTox_GSID>
46853

> <DSSTox_FileID_Sort>
6643

> <TS_ChemName>
Tamibarotene

> <TS_ChemName_Synonyms>


> <TS_CASRN>
94497-51-5

> <CASRN_ChemName_Relationship>
primary

> <TS_Description>
single chemical compound

> <ChemNote>


> <STRUCTURE_Shown>
tested chemical

> <STRUCTURE_Formula>
C22H25NO3

> <STRUCTURE_MW>
351.4388

> <STRUCTURE_ChemType>
defined organic

> <STRUCTURE_DefinedOrganicForm>
parent

> <STRUCTURE_IUPAC>
4-[(5,5,8,8-tetramethyl-5,6,7,8-tetrahydronaphthalen-2-yl)carbamoyl]benzoic acid

> <STRUCTURE_SMILES>
O=C(O)c1ccc(cc1)C(=O)Nc2ccc3c(c2)C(C)(C)CCC3(C)C

> <STRUCTURE_SMILES_Desalt>
O=C(O)c1ccc(cc1)C(=O)Nc2ccc3c(c2)C(C)(C)CCC3(C)C

> <Substance_modify_yyyymmdd>
20110729

$$$$
