94535-50-9
ChemmineR-0915142007XD

 21 23  0  0  1  0  0  0  0  0  1 V2000
    8.2372   -1.1532    0.0000 C   0  0  0  0  0  0  0  0  0  0  0  0
    6.9110   -1.1532    0.0000 C   0  0  0  0  0  0  0  0  0  0  0  0
    7.5782    0.0000    0.0000 C   0  0  0  0  0  0  0  0  0  0  0  0
    5.7661   -0.4942    0.0000 O   0  0  0  0  0  0  0  0  0  0  0  0
    4.6128   -1.1532    0.0000 C   0  0  0  0  0  0  0  0  0  0  0  0
    4.6128   -2.4876    0.0000 C   0  0  0  0  0  0  0  0  0  0  0  0
    3.4596   -3.1549    0.0000 C   0  0  0  0  0  0  0  0  0  0  0  0
    2.3064   -2.4876    0.0000 C   0  0  0  0  0  0  0  0  0  0  0  0
    2.3064   -1.1532    0.0000 C   0  0  0  0  0  0  0  0  0  0  0  0
    3.4596   -0.4942    0.0000 C   0  0  0  0  0  0  0  0  0  0  0  0
    1.1532   -3.1549    0.0000 C   0  0  0  0  0  0  0  0  0  0  0  0
    0.0000   -3.8138    0.0000 N   0  0  0  0  0  0  0  0  0  0  0  0
    5.7661   -3.1549    0.0000 C   0  0  0  0  0  0  0  0  0  0  0  0
    6.9110   -2.4876    0.0000 C   0  0  0  0  0  0  0  0  0  0  0  0
    8.0642   -3.1549    0.0000 O   0  0  0  0  0  0  0  0  0  0  0  0
    5.7661   -4.4893    0.0000 N   0  0  0  0  0  0  0  0  0  0  0  0
    4.6787   -5.2554    0.0000 C   0  0  0  0  0  0  0  0  0  0  0  0
    5.0988   -6.5239    0.0000 C   0  0  0  0  0  0  0  0  0  0  0  0
    6.4250   -6.5239    0.0000 C   0  0  0  0  0  0  0  0  0  0  0  0
    6.8451   -5.2554    0.0000 C   0  0  0  0  0  0  0  0  0  0  0  0
    8.1054   -4.8600    0.0000 O   0  0  0  0  0  0  0  0  0  0  0  0
  1  2  1  0  0  0  0
  2  3  1  0  0  0  0
  2  4  1  0  0  0  0
  2 14  1  0  0  0  0
  4  5  1  0  0  0  0
  5  6  2  0  0  0  0
  5 10  1  0  0  0  0
  6  7  1  0  0  0  0
  6 13  1  0  0  0  0
  7  8  2  0  0  0  0
  8  9  1  0  0  0  0
  8 11  1  0  0  0  0
  9 10  2  0  0  0  0
 11 12  3  0  0  0  0
 13 14  1  0  0  0  0
 13 16  1  6  0  0  0
 14 15  1  1  0  0  0
 16 17  1  0  0  0  0
 16 20  1  0  0  0  0
 17 18  1  0  0  0  0
 18 19  1  0  0  0  0
 19 20  1  0  0  0  0
 20 21  2  0  0  0  0
M  END
> <ID>
11119

> <Formula>
C16H18N2O3

> <FW>
286.3257

> <DSSTox_CID>
25677

> <DSSTox_RID>
81051

> <DSSTox_GSID>
45677

> <DSSTox_FileID_Sort>
5732

> <TS_ChemName>
Levcromakalim

> <TS_ChemName_Synonyms>


> <TS_CASRN>
94535-50-9

> <CASRN_ChemName_Relationship>
primary

> <TS_Description>
single chemical compound

> <ChemNote>


> <STRUCTURE_Shown>
tested chemical

> <STRUCTURE_Formula>
C16H18N2O3

> <STRUCTURE_MW>
286.3257

> <STRUCTURE_ChemType>
defined organic

> <STRUCTURE_DefinedOrganicForm>
parent

> <STRUCTURE_IUPAC>
(3S,4R)-3-hydroxy-2,2-dimethyl-4-(2-oxopyrrolidin-1-yl)-3,4-dihydro-2H-chromene-6-carbonitrile

> <STRUCTURE_SMILES>
O=C3CCCN3[C@@H]1c2cc(ccc2OC(C)(C)[C@H]1O)C#N

> <STRUCTURE_SMILES_Desalt>
O=C3CCCN3[C@@H]1c2cc(ccc2OC(C)(C)[C@H]1O)C#N

> <Substance_modify_yyyymmdd>
20100107

$$$$
