947-02-4
ChemmineR-0915142007XD

 14 14  0  0  0  0  0  0  0  0  1 V2000
    3.4296   -2.2481    0.0000 N   0  0  0  0  0  0  0  0  0  0  0  0
    4.4578   -1.4041    0.0000 P   0  0  0  0  0  0  0  0  0  0  0  0
    2.2174   -1.9105    0.0000 C   0  0  0  0  0  0  0  0  0  0  0  0
    1.7570   -0.6445    0.0000 S   0  0  0  0  0  0  0  0  0  0  0  0
    1.1355   -2.7238    0.0000 S   0  0  0  0  0  0  0  0  0  0  0  0
    3.7519   -0.2839    0.0000 O   0  0  0  0  0  0  0  0  0  0  0  0
    5.4552   -0.5217    0.0000 O   0  0  0  0  0  0  0  0  0  0  0  0
    5.3171   -2.4169    0.0000 O   0  0  0  0  0  0  0  0  0  0  0  0
    0.0000   -1.9642    0.0000 C   0  0  0  0  0  0  0  0  0  0  0  0
    0.3760   -0.6445    0.0000 C   0  0  0  0  0  0  0  0  0  0  0  0
    6.7058   -0.8823    0.0000 C   0  0  0  0  0  0  0  0  0  0  0  0
    4.9488   -3.6675    0.0000 C   0  0  0  0  0  0  0  0  0  0  0  0
    7.6726    0.0000    0.0000 C   0  0  0  0  0  0  0  0  0  0  0  0
    5.8542   -4.6189    0.0000 C   0  0  0  0  0  0  0  0  0  0  0  0
  1  2  1  0  0  0  0
  1  3  2  0  0  0  0
  2  6  2  0  0  0  0
  2  7  1  0  0  0  0
  2  8  1  0  0  0  0
  3  4  1  0  0  0  0
  3  5  1  0  0  0  0
  4 10  1  0  0  0  0
  5  9  1  0  0  0  0
  7 11  1  0  0  0  0
  8 12  1  0  0  0  0
  9 10  1  0  0  0  0
 11 13  1  0  0  0  0
 12 14  1  0  0  0  0
M  END
> <ID>
9213

> <Formula>
C7H14NO3PS2

> <FW>
255.2947

> <DSSTox_CID>
22285

> <DSSTox_RID>
79989

> <DSSTox_GSID>
42285

> <DSSTox_FileID_Sort>
4671

> <TS_ChemName>
Phosfolan

> <TS_ChemName_Synonyms>


> <TS_CASRN>
947-02-4

> <CASRN_ChemName_Relationship>
primary

> <TS_Description>
single chemical compound

> <ChemNote>


> <STRUCTURE_Shown>
tested chemical

> <STRUCTURE_Formula>
C7H14NO3PS2

> <STRUCTURE_MW>
255.2947

> <STRUCTURE_ChemType>
defined organic

> <STRUCTURE_DefinedOrganicForm>
parent

> <STRUCTURE_IUPAC>
diethyl 1,3-dithiolan-2-ylidenephosphoramidate

> <STRUCTURE_SMILES>
O=P(OCC)(/N=C1\SCCS1)OCC

> <STRUCTURE_SMILES_Desalt>
O=P(OCC)(/N=C1\SCCS1)OCC

> <Substance_modify_yyyymmdd>
20080825

$$$$
