947-19-3
ChemmineR-0915142007XD

 15 16  0  0  0  0  0  0  0  0  1 V2000
    3.1421   -1.3268    0.0000 C   0  0  0  0  0  0  0  0  0  0  0  0
    3.1421    0.0000    0.0000 O   0  0  0  0  0  0  0  0  0  0  0  0
    1.9869   -1.9803    0.0000 C   0  0  0  0  0  0  0  0  0  0  0  0
    0.6601   -1.9803    0.0000 C   0  0  0  0  0  0  0  0  0  0  0  0
    0.0000   -3.1355    0.0000 C   0  0  0  0  0  0  0  0  0  0  0  0
    0.6601   -4.2907    0.0000 C   0  0  0  0  0  0  0  0  0  0  0  0
    1.9869   -4.2907    0.0000 C   0  0  0  0  0  0  0  0  0  0  0  0
    2.6602   -3.1355    0.0000 C   0  0  0  0  0  0  0  0  0  0  0  0
    1.9869   -0.6535    0.0000 O   0  0  0  0  0  0  0  0  0  0  0  0
    5.4459   -3.9673    0.0000 C   0  0  0  0  0  0  0  0  0  0  0  0
    6.6011   -3.3137    0.0000 C   0  0  0  0  0  0  0  0  0  0  0  0
    6.6011   -1.9803    0.0000 C   0  0  0  0  0  0  0  0  0  0  0  0
    5.4459   -1.3136    0.0000 C   0  0  0  0  0  0  0  0  0  0  0  0
    4.2907   -1.9803    0.0000 C   0  0  0  0  0  0  0  0  0  0  0  0
    4.2907   -3.3137    0.0000 C   0  0  0  0  0  0  0  0  0  0  0  0
  1  2  2  0  0  0  0
  1  3  1  0  0  0  0
  1 14  1  0  0  0  0
  3  4  1  0  0  0  0
  3  8  1  0  0  0  0
  3  9  1  0  0  0  0
  4  5  1  0  0  0  0
  5  6  1  0  0  0  0
  6  7  1  0  0  0  0
  7  8  1  0  0  0  0
 10 15  2  0  0  0  0
 10 11  1  0  0  0  0
 11 12  2  0  0  0  0
 12 13  1  0  0  0  0
 13 14  2  0  0  0  0
 14 15  1  0  0  0  0
M  END
> <ID>
10400

> <Formula>
C13H16O2

> <FW>
204.2649

> <DSSTox_CID>
24748

> <DSSTox_RID>
80442

> <DSSTox_GSID>
44748

> <DSSTox_FileID_Sort>
5124

> <TS_ChemName>
(1-Hydroxycyclohexyl)(phenyl)methanone

> <TS_ChemName_Synonyms>
Methanone, (1-hydroxycyclohexyl)phenyl-

> <TS_CASRN>
947-19-3

> <CASRN_ChemName_Relationship>
primary

> <TS_Description>
single chemical compound

> <ChemNote>


> <STRUCTURE_Shown>
tested chemical

> <STRUCTURE_Formula>
C13H16O2

> <STRUCTURE_MW>
204.2649

> <STRUCTURE_ChemType>
defined organic

> <STRUCTURE_DefinedOrganicForm>
parent

> <STRUCTURE_IUPAC>
(1-hydroxycyclohexyl)(phenyl)methanone

> <STRUCTURE_SMILES>
O=C(c1ccccc1)C2(O)CCCCC2

> <STRUCTURE_SMILES_Desalt>
O=C(c1ccccc1)C2(O)CCCCC2

> <Substance_modify_yyyymmdd>
20091116

$$$$
