94739-29-4
ChemmineR-0915142007XD

 30 31  0  0  0  0  0  0  0  0  1 V2000
    6.7177   -6.6873    0.0000 C    0  0  0  0  0  0  0  0  0  0  0  0
    5.6453   -6.0095    0.0000 C    0  0  0  0  0  0  0  0  0  0  0  0
    4.4717   -6.6873    0.0000 C    0  0  0  0  0  0  0  0  0  0  0  0
    4.4717   -7.9823    0.0000 C    0  0  0  0  0  0  0  0  0  0  0  0
    5.6453   -8.6399    0.0000 C    0  0  0  0  0  0  0  0  0  0  0  0
    6.7177   -7.9823    0.0000 C    0  0  0  0  0  0  0  0  0  0  0  0
    6.7177   -1.9526    0.0000 C    0  0  0  0  0  0  0  0  0  0  0  0
    5.6453   -1.2950    0.0000 N    0  0  0  0  0  0  0  0  0  0  0  0
    4.4717   -1.9526    0.0000 C    0  0  0  0  0  0  0  0  0  0  0  0
    4.4717   -3.2476    0.0000 C    0  0  0  0  0  0  0  0  0  0  0  0
    5.6453   -3.8849    0.0000 C    0  0  0  0  0  0  0  0  0  0  0  0
    6.7177   -3.2476    0.0000 C    0  0  0  0  0  0  0  0  0  0  0  0
    7.8912   -1.2950    0.0000 C    0  0  0  0  0  0  0  0  0  0  0  0
    7.8912   -3.8849    0.0000 C    0  0  0  0  0  0  0  0  0  0  0  0
    7.8912   -5.2305    0.0000 O    0  0  0  0  0  0  0  0  0  0  0  0
    9.0142   -3.2476    0.0000 O    0  0  0  0  0  0  0  0  0  0  0  0
   10.1170   -3.8849    0.0000 C    0  0  0  0  0  0  0  0  0  0  0  0
    7.8912   -8.6399    0.0000 Cl   0  0  0  0  0  0  0  0  0  0  0  0
    7.8912   -6.0095    0.0000 Cl   0  0  0  0  0  0  0  0  0  0  0  0
    3.3487   -3.8849    0.0000 C    0  0  0  0  0  0  0  0  0  0  0  0
    3.3487   -1.2950    0.0000 C    0  0  0  0  0  0  0  0  0  0  0  0
    2.2257   -1.9526    0.0000 O    0  0  0  0  0  0  0  0  0  0  0  0
    1.1028   -1.2950    0.0000 C    0  0  0  0  0  0  0  0  0  0  0  0
    1.1028    0.0000    0.0000 O    0  0  0  0  0  0  0  0  0  0  0  0
    0.0000   -1.9526    0.0000 N    0  0  0  0  0  0  0  0  0  0  0  0
    2.2257   -3.2476    0.0000 O    0  0  0  0  0  0  0  0  0  0  0  0
    3.3487   -5.1799    0.0000 O    0  0  0  0  0  0  0  0  0  0  0  0
    1.1028   -3.8849    0.0000 C    0  0  0  0  0  0  0  0  0  0  0  0
    1.1028   -5.1799    0.0000 C    0  0  0  0  0  0  0  0  0  0  0  0
    0.0000   -3.2476    0.0000 C    0  0  0  0  0  0  0  0  0  0  0  0
  1 19  1  0  0  0  0
  1  6  1  0  0  0  0
  1  2  2  0  0  0  0
  2 11  1  0  0  0  0
  2  3  1  0  0  0  0
  3  4  2  0  0  0  0
  4  5  1  0  0  0  0
  5  6  2  0  0  0  0
  6 18  1  0  0  0  0
  7 12  2  0  0  0  0
  7 13  1  0  0  0  0
  7  8  1  0  0  0  0
  8  9  1  0  0  0  0
  9 21  1  0  0  0  0
  9 10  2  0  0  0  0
 10 20  1  0  0  0  0
 10 11  1  0  0  0  0
 11 12  1  0  0  0  0
 12 14  1  0  0  0  0
 14 15  2  0  0  0  0
 14 16  1  0  0  0  0
 16 17  1  0  0  0  0
 20 26  1  0  0  0  0
 20 27  2  0  0  0  0
 21 22  1  0  0  0  0
 22 23  1  0  0  0  0
 23 24  2  0  0  0  0
 23 25  1  0  0  0  0
 26 28  1  0  0  0  0
 28 29  1  0  0  0  0
 28 30  1  0  0  0  0
M  END
> <ID>
13801

> <Formula>
C20H22Cl2N2O6

> <FW>
457.3045

> <DSSTox_CID>
28738

> <DSSTox_RID>
83007

> <DSSTox_GSID>
48812

> <DSSTox_FileID_Sort>
7684

> <TS_ChemName>
Lemildipine

> <TS_ChemName_Synonyms>


> <TS_CASRN>
94739-29-4

> <CASRN_ChemName_Relationship>
primary

> <TS_Description>
single chemical compound

> <ChemNote>


> <STRUCTURE_Shown>
tested chemical

> <STRUCTURE_Formula>
C20H22Cl2N2O6

> <STRUCTURE_MW>
457.3045

> <STRUCTURE_ChemType>
defined organic

> <STRUCTURE_DefinedOrganicForm>
parent

> <STRUCTURE_IUPAC>
5-methyl 3-propan-2-yl 2-[(carbamoyloxy)methyl]-4-(2,3-dichlorophenyl)-6-methyl-1,4-dihydropyridine-3,5-dicarboxylate

> <STRUCTURE_SMILES>
O=C(OC)C1=C(C)NC(COC(N)=O)=C(C1c2cccc(Cl)c2Cl)C(=O)OC(C)C

> <STRUCTURE_SMILES_Desalt>
O=C(OC)C1=C(C)NC(COC(N)=O)=C(C1c2cccc(Cl)c2Cl)C(=O)OC(C)C

> <Substance_modify_yyyymmdd>
20111204

$$$$
