94749-08-3
ChemmineR-0915142007XD

 44 46  0  0  0  0  0  0  0  0  1 V2000
   15.8382   -5.9393    0.0000 O   0  0  0  0  0  0  0  0  0  0  0  0
   14.6871   -5.2487    0.0000 C   0  0  0  0  0  0  0  0  0  0  0  0
   14.6871   -3.9365    0.0000 O   0  0  0  0  0  0  0  0  0  0  0  0
   13.5361   -5.9393    0.0000 C   0  0  0  0  0  0  0  0  0  0  0  0
   13.5361   -7.2515    0.0000 C   0  0  0  0  0  0  0  0  0  0  0  0
   12.3851   -7.9191    0.0000 C   0  0  0  0  0  0  0  0  0  0  0  0
   11.2110   -7.2515    0.0000 C   0  0  0  0  0  0  0  0  0  0  0  0
   10.0600   -7.9191    0.0000 C   0  0  0  0  0  0  0  0  0  0  0  0
    8.9320   -7.2515    0.0000 C   0  0  0  0  0  0  0  0  0  0  0  0
    8.9320   -5.9393    0.0000 C   0  0  0  0  0  0  0  0  0  0  0  0
   10.0600   -5.2487    0.0000 C   0  0  0  0  0  0  0  0  0  0  0  0
   11.2110   -5.9393    0.0000 C   0  0  0  0  0  0  0  0  0  0  0  0
   12.3851   -5.2487    0.0000 C   0  0  0  0  0  0  0  0  0  0  0  0
   12.3851   -3.9365    0.0000 O   0  0  0  0  0  0  0  0  0  0  0  0
    3.4531   -2.6704    0.0000 C   0  0  0  0  0  0  0  0  0  0  0  0
    2.3021   -2.0028    0.0000 C   0  0  0  0  0  0  0  0  0  0  0  0
    3.4531   -4.0056    0.0000 C   0  0  0  0  0  0  0  0  0  0  0  0
    4.6041   -2.0028    0.0000 C   0  0  0  0  0  0  0  0  0  0  0  0
    1.1510   -2.6704    0.0000 C   0  0  0  0  0  0  0  0  0  0  0  0
    2.3021   -4.6502    0.0000 C   0  0  0  0  0  0  0  0  0  0  0  0
    5.7552   -2.6704    0.0000 C   0  0  0  0  0  0  0  0  0  0  0  0
    4.6041   -0.6676    0.0000 O   0  0  0  0  0  0  0  0  0  0  0  0
    1.1510   -4.0056    0.0000 C   0  0  0  0  0  0  0  0  0  0  0  0
    0.0000   -2.0028    0.0000 C   0  0  0  0  0  0  0  0  0  0  0  0
    6.9062   -2.0028    0.0000 N   0  0  0  0  0  0  0  0  0  0  0  0
    0.0000   -4.6502    0.0000 O   0  0  0  0  0  0  0  0  0  0  0  0
    0.0000   -0.6676    0.0000 O   0  0  0  0  0  0  0  0  0  0  0  0
    8.0572   -2.6704    0.0000 C   0  0  0  0  0  0  0  0  0  0  0  0
    9.2082   -2.0028    0.0000 C   0  0  0  0  0  0  0  0  0  0  0  0
   10.3593   -2.6704    0.0000 C   0  0  0  0  0  0  0  0  0  0  0  0
   11.5103   -2.0028    0.0000 C   0  0  0  0  0  0  0  0  0  0  0  0
   12.6613   -2.6704    0.0000 C   0  0  0  0  0  0  0  0  0  0  0  0
   13.8124   -2.0028    0.0000 C   0  0  0  0  0  0  0  0  0  0  0  0
   14.9634   -2.6704    0.0000 O   0  0  0  0  0  0  0  0  0  0  0  0
   16.1144   -2.0028    0.0000 C   0  0  0  0  0  0  0  0  0  0  0  0
   17.2655   -2.6704    0.0000 C   0  0  0  0  0  0  0  0  0  0  0  0
   18.4165   -2.0028    0.0000 C   0  0  0  0  0  0  0  0  0  0  0  0
   19.5675   -2.6704    0.0000 C   0  0  0  0  0  0  0  0  0  0  0  0
   20.7185   -2.0028    0.0000 C   0  0  0  0  0  0  0  0  0  0  0  0
   21.8696   -2.6704    0.0000 C   0  0  0  0  0  0  0  0  0  0  0  0
   20.7185   -0.6676    0.0000 C   0  0  0  0  0  0  0  0  0  0  0  0
   23.0206   -2.0028    0.0000 C   0  0  0  0  0  0  0  0  0  0  0  0
   21.8696    0.0000    0.0000 C   0  0  0  0  0  0  0  0  0  0  0  0
   23.0206   -0.6676    0.0000 C   0  0  0  0  0  0  0  0  0  0  0  0
  1  2  1  0  0  0  0
  2  3  2  0  0  0  0
  2  4  1  0  0  0  0
  4  5  2  0  0  0  0
  4 13  1  0  0  0  0
  5  6  1  0  0  0  0
  6  7  2  0  0  0  0
  7  8  1  0  0  0  0
  7 12  1  0  0  0  0
  8  9  2  0  0  0  0
  9 10  1  0  0  0  0
 10 11  2  0  0  0  0
 11 12  1  0  0  0  0
 12 13  2  0  0  0  0
 13 14  1  0  0  0  0
 15 16  2  0  0  0  0
 15 17  1  0  0  0  0
 15 18  1  0  0  0  0
 16 19  1  0  0  0  0
 17 20  2  0  0  0  0
 18 21  1  0  0  0  0
 18 22  1  0  0  0  0
 19 23  2  0  0  0  0
 19 24  1  0  0  0  0
 20 23  1  0  0  0  0
 21 25  1  0  0  0  0
 23 26  1  0  0  0  0
 24 27  1  0  0  0  0
 25 28  1  0  0  0  0
 28 29  1  0  0  0  0
 29 30  1  0  0  0  0
 30 31  1  0  0  0  0
 31 32  1  0  0  0  0
 32 33  1  0  0  0  0
 33 34  1  0  0  0  0
 34 35  1  0  0  0  0
 35 36  1  0  0  0  0
 36 37  1  0  0  0  0
 37 38  1  0  0  0  0
 38 39  1  0  0  0  0
 39 40  2  0  0  0  0
 39 41  1  0  0  0  0
 40 42  1  0  0  0  0
 41 43  2  0  0  0  0
 42 44  2  0  0  0  0
 43 44  1  0  0  0  0
M  END
> <ID>
11205

> <Formula>
C36H45NO7

> <FW>
603.7450 (188.1794+415.5656)

> <DSSTox_CID>
25798

> <DSSTox_RID>
81137

> <DSSTox_GSID>
45798

> <DSSTox_FileID_Sort>
5818

> <TS_ChemName>
Salmeterol xinafoate

> <TS_ChemName_Synonyms>


> <TS_CASRN>
94749-08-3

> <CASRN_ChemName_Relationship>
primary

> <TS_Description>
single chemical compound

> <ChemNote>
parent [89365-50-4]

> <STRUCTURE_Shown>
tested chemical

> <STRUCTURE_Formula>
C36H45NO7

> <STRUCTURE_MW>
603.745

> <STRUCTURE_ChemType>
defined organic

> <STRUCTURE_DefinedOrganicForm>
complex

> <STRUCTURE_IUPAC>
1-hydroxynaphthalene-2-carboxylic acid - 2-(hydroxymethyl)-4-(1-hydroxy-2-{[6-(4-phenylbutoxy)hexyl]amino}ethyl)phenol (1:1)

> <STRUCTURE_SMILES>
OCc1cc(ccc1O)C(O)CNCCCCCCOCCCCc2ccccc2.O=C(O)c2ccc1ccccc1c2O

> <STRUCTURE_SMILES_Desalt>
OCc1cc(ccc1O)C(O)CNCCCCCCOCCCCc2ccccc2

> <Substance_modify_yyyymmdd>
20110902

$$$$
