94746-78-8
ChemmineR-0915142007XD

 25 27  0  0  0  0  0  0  0  0  1 V2000
    0.0000   -3.9907    0.0000 C   0  0  0  0  0  0  0  0  0  0  0  0
    1.1529   -4.6495    0.0000 O   0  0  0  0  0  0  0  0  0  0  0  0
    2.3057   -3.9907    0.0000 C   0  0  0  0  0  0  0  0  0  0  0  0
    2.3057   -2.6605    0.0000 C   0  0  0  0  0  0  0  0  0  0  0  0
    3.4586   -1.9890    0.0000 C   0  0  0  0  0  0  0  0  0  0  0  0
    4.6115   -2.6605    0.0000 C   0  0  0  0  0  0  0  0  0  0  0  0
    4.6115   -3.9907    0.0000 C   0  0  0  0  0  0  0  0  0  0  0  0
    3.4586   -4.6495    0.0000 C   0  0  0  0  0  0  0  0  0  0  0  0
    5.7643   -1.9890    0.0000 C   0  0  0  0  0  0  0  0  0  0  0  0
    5.7643   -0.6588    0.0000 O   0  0  0  0  0  0  0  0  0  0  0  0
    6.9045   -2.6605    0.0000 N   0  0  0  0  0  0  0  0  0  0  0  0
    8.0574   -1.9890    0.0000 C   0  0  0  0  0  0  0  0  0  0  0  0
    9.2103   -2.6605    0.0000 C   0  0  0  0  0  0  0  0  0  0  0  0
    9.2103   -3.9907    0.0000 N   0  0  0  0  0  0  0  0  0  0  0  0
    8.0574   -4.6495    0.0000 C   0  0  0  0  0  0  0  0  0  0  0  0
    6.9045   -3.9907    0.0000 C   0  0  0  0  0  0  0  0  0  0  0  0
   10.3631   -4.6495    0.0000 C   0  0  0  0  0  0  0  0  0  0  0  0
   11.5160   -3.9907    0.0000 C   0  0  0  0  0  0  0  0  0  0  0  0
   12.6688   -4.6495    0.0000 O   0  0  0  0  0  0  0  0  0  0  0  0
   11.5160   -2.6605    0.0000 N   0  0  0  0  0  0  0  0  0  0  0  0
   10.3631   -1.9890    0.0000 C   0  0  0  0  0  0  0  0  0  0  0  0
   10.3631   -0.6588    0.0000 C   0  0  0  0  0  0  0  0  0  0  0  0
   11.5160    0.0000    0.0000 O   0  0  0  0  0  0  0  0  0  0  0  0
   12.6688   -0.6588    0.0000 C   0  0  0  0  0  0  0  0  0  0  0  0
   12.6688   -1.9890    0.0000 C   0  0  0  0  0  0  0  0  0  0  0  0
  1  2  1  0  0  0  0
  2  3  1  0  0  0  0
  3  4  2  0  0  0  0
  3  8  1  0  0  0  0
  4  5  1  0  0  0  0
  5  6  2  0  0  0  0
  6  7  1  0  0  0  0
  6  9  1  0  0  0  0
  7  8  2  0  0  0  0
  9 10  2  0  0  0  0
  9 11  1  0  0  0  0
 11 12  1  0  0  0  0
 11 16  1  0  0  0  0
 12 13  1  0  0  0  0
 13 14  1  0  0  0  0
 14 15  1  0  0  0  0
 14 17  1  0  0  0  0
 15 16  1  0  0  0  0
 17 18  1  0  0  0  0
 18 19  2  0  0  0  0
 18 20  1  0  0  0  0
 20 21  1  0  0  0  0
 20 25  1  0  0  0  0
 21 22  1  0  0  0  0
 22 23  1  0  0  0  0
 23 24  1  0  0  0  0
 24 25  1  0  0  0  0
M  END
> <ID>
11632

> <Formula>
C18H25N3O4

> <FW>
347.4088

> <DSSTox_CID>
26384

> <DSSTox_RID>
81565

> <DSSTox_GSID>
46384

> <DSSTox_FileID_Sort>
6246

> <TS_ChemName>
Molracetam

> <TS_ChemName_Synonyms>


> <TS_CASRN>
94746-78-8

> <CASRN_ChemName_Relationship>
primary

> <TS_Description>
single chemical compound

> <ChemNote>


> <STRUCTURE_Shown>
tested chemical

> <STRUCTURE_Formula>
C18H25N3O4

> <STRUCTURE_MW>
347.4088

> <STRUCTURE_ChemType>
defined organic

> <STRUCTURE_DefinedOrganicForm>
parent

> <STRUCTURE_IUPAC>
2-[4-(4-methoxybenzoyl)piperazin-1-yl]-1-(morpholin-4-yl)ethanone

> <STRUCTURE_SMILES>
O=C(CN1CCN(CC1)C(=O)c2ccc(OC)cc2)N3CCOCC3

> <STRUCTURE_SMILES_Desalt>
O=C(CN1CCN(CC1)C(=O)c2ccc(OC)cc2)N3CCOCC3

> <Substance_modify_yyyymmdd>
20110814

$$$$
