94841-17-5
ChemmineR-0915142007XD

 32 33  0  0  1  0  0  0  0  0  1 V2000
    2.2891   -4.5649    0.0000 C    0  0  0  0  0  0  0  0  0  0  0  0
    2.2891   -5.8958    0.0000 C    0  0  0  0  0  0  0  0  0  0  0  0
    1.1446   -3.8862    0.0000 C    0  0  0  0  0  0  0  0  0  0  0  0
    1.1446   -6.5479    0.0000 C    0  0  0  0  0  0  0  0  0  0  0  0
    0.0000   -4.5649    0.0000 C    0  0  0  0  0  0  0  0  0  0  0  0
    0.0000   -5.8958    0.0000 C    0  0  0  0  0  0  0  0  0  0  0  0
    3.4470   -3.8862    0.0000 C    0  0  0  0  0  0  0  0  0  0  0  0
    4.5915   -4.5649    0.0000 C    0  0  0  0  0  0  0  0  0  0  0  0
    5.7494   -3.8862    0.0000 C    0  0  0  0  0  0  0  0  0  0  0  0
    6.8939   -4.5649    0.0000 N    0  0  0  0  0  0  0  0  0  0  0  0
    8.0518   -3.8862    0.0000 C    0  0  0  0  0  0  0  0  0  0  0  0
    9.1964   -4.5649    0.0000 C    0  0  0  0  0  0  0  0  0  0  0  0
   10.3276   -3.8862    0.0000 N    0  0  0  0  0  0  0  0  0  0  0  0
   11.6052   -4.2987    0.0000 C    0  0  0  0  0  0  0  0  0  0  0  0
    5.7494   -2.5553    0.0000 C    0  0  0  0  0  0  0  0  0  0  0  0
    6.8939   -1.9032    0.0000 O    0  0  0  0  0  0  0  0  0  0  0  0
    4.5915   -1.8898    0.0000 O    0  0  0  0  0  0  0  0  0  0  0  0
    3.4470   -2.5553    0.0000 C    0  0  0  0  0  0  0  0  0  0  0  0
    2.2891   -1.8898    0.0000 C    0  0  0  0  0  0  0  0  0  0  0  0
    8.0518   -2.5553    0.0000 C    0  0  0  0  0  0  0  0  0  0  0  0
    9.1964   -5.8958    0.0000 O    0  0  0  0  0  0  0  0  0  0  0  0
   10.3276   -2.5553    0.0000 C    0  0  0  0  0  0  0  0  0  0  0  0
   11.6052   -2.1427    0.0000 C    0  0  0  0  0  0  0  0  0  0  0  0
   12.3905   -3.2340    0.0000 C    0  0  0  0  0  0  0  0  0  0  0  0
   10.8200   -1.0780    0.0000 S    0  0  0  0  0  0  0  0  0  0  0  0
   12.8563   -1.7434    0.0000 S    0  0  0  0  0  0  0  0  0  0  0  0
   11.6052    0.0000    0.0000 C    0  0  0  0  0  0  0  0  0  0  0  0
   12.8563   -0.4126    0.0000 C    0  0  0  0  0  0  0  0  0  0  0  0
   12.0178   -5.5498    0.0000 C    0  0  0  0  0  0  0  0  0  0  0  0
   13.3088   -5.8425    0.0000 O    0  0  0  0  0  0  0  0  0  0  0  0
   11.1128   -6.5479    0.0000 O    0  0  0  0  0  0  0  0  0  0  0  0
    8.3047   -0.5457    0.0000 Cl   0  0  0  0  0  0  0  0  0  0  0  0
  1  2  1  0  0  0  0
  1  3  2  0  0  0  0
  1  7  1  0  0  0  0
  2  4  2  0  0  0  0
  3  5  1  0  0  0  0
  4  6  1  0  0  0  0
  5  6  2  0  0  0  0
  7  8  1  0  0  0  0
  8  9  1  0  0  0  0
  9 10  1  0  0  0  0
  9 15  1  1  0  0  0
 10 11  1  0  0  0  0
 11 12  1  0  0  0  0
 11 20  1  1  0  0  0
 12 13  1  0  0  0  0
 12 21  2  0  0  0  0
 13 22  1  0  0  0  0
 13 14  1  0  0  0  0
 14 24  1  0  0  0  0
 14 29  1  1  0  0  0
 15 16  2  0  0  0  0
 15 17  1  0  0  0  0
 17 18  1  0  0  0  0
 18 19  1  0  0  0  0
 22 23  1  0  0  0  0
 23 24  1  0  0  0  0
 23 25  1  0  0  0  0
 23 26  1  0  0  0  0
 25 27  1  0  0  0  0
 26 28  1  0  0  0  0
 27 28  1  0  0  0  0
 29 30  2  0  0  0  0
 29 31  1  0  0  0  0
M  END
> <ID>
9953

> <Formula>
C22H31ClN2O5S2

> <FW>
503.0749 (466.6140+36.4609)

> <DSSTox_CID>
24272

> <DSSTox_RID>
80139

> <DSSTox_GSID>
44272

> <DSSTox_FileID_Sort>
4821

> <TS_ChemName>
Spirapril hydrochloride

> <TS_ChemName_Synonyms>


> <TS_CASRN>
94841-17-5

> <CASRN_ChemName_Relationship>
primary

> <TS_Description>
single chemical compound

> <ChemNote>
stereochem; parent [83647-97-6]

> <STRUCTURE_Shown>
tested chemical

> <STRUCTURE_Formula>
C22H31ClN2O5S2

> <STRUCTURE_MW>
503.0749

> <STRUCTURE_ChemType>
defined organic

> <STRUCTURE_DefinedOrganicForm>
complex

> <STRUCTURE_IUPAC>
(8S)-7-[(2S)-2-{[(2S)-1-ethoxy-1-oxo-4-phenylbutan-2-yl]amino}propanoyl]-1,4-dithia-7-azaspiro[4.4]nonane-8-carboxylic acid hydrochloride (1:1)

> <STRUCTURE_SMILES>
Cl.O=C(OCC)[C@H](CCc1ccccc1)N[C@@H](C)C(=O)N2CC3(C[C@H]2C(=O)O)SCCS3

> <STRUCTURE_SMILES_Desalt>
O=C(OCC)[C@H](CCc1ccccc1)N[C@@H](C)C(=O)N2CC3(C[C@H]2C(=O)O)SCCS3

> <Substance_modify_yyyymmdd>
20090302

$$$$
