95-14-7
ChemmineR-0915142007XD

  9 10  0  0  0  0  0  0  0  0  1 V2000
    0.7831   -2.4059    0.0000 N   0  0  0  0  0  0  0  0  0  0  0  0
    2.0448   -1.9926    0.0000 C   0  0  0  0  0  0  0  0  0  0  0  0
    2.0448   -0.6613    0.0000 C   0  0  0  0  0  0  0  0  0  0  0  0
    3.1977    0.0000    0.0000 C   0  0  0  0  0  0  0  0  0  0  0  0
    4.3506   -0.6613    0.0000 C   0  0  0  0  0  0  0  0  0  0  0  0
    4.3506   -1.9926    0.0000 C   0  0  0  0  0  0  0  0  0  0  0  0
    3.1977   -2.6582    0.0000 C   0  0  0  0  0  0  0  0  0  0  0  0
    0.7831   -0.2523    0.0000 N   0  0  0  0  0  0  0  0  0  0  0  0
    0.0000   -1.3269    0.0000 N   0  0  0  0  0  0  0  0  0  0  0  0
  1  2  1  0  0  0  0
  1  9  1  0  0  0  0
  2  3  2  0  0  0  0
  2  7  1  0  0  0  0
  3  4  1  0  0  0  0
  3  8  1  0  0  0  0
  4  5  2  0  0  0  0
  5  6  1  0  0  0  0
  6  7  2  0  0  0  0
  8  9  2  0  0  0  0
M  END
> <ID>
144

> <Formula>
C6H5N3

> <FW>
119.124

> <DSSTox_CID>
147

> <DSSTox_RID>
75400

> <DSSTox_GSID>
20147

> <DSSTox_FileID_Sort>
84

> <TS_ChemName>
1,2,3-Benzotriazole

> <TS_ChemName_Synonyms>
1,2,3-Benzotriazole (1H-Benzotriazole)

> <TS_CASRN>
95-14-7

> <CASRN_ChemName_Relationship>
primary

> <TS_Description>
single chemical compound

> <ChemNote>
tautomers

> <STRUCTURE_Shown>
tested chemical

> <STRUCTURE_Formula>
C6H5N3

> <STRUCTURE_MW>
119.124

> <STRUCTURE_ChemType>
defined organic

> <STRUCTURE_DefinedOrganicForm>
parent

> <STRUCTURE_IUPAC>
1H-benzotriazole

> <STRUCTURE_SMILES>
c1cccc2nnnc12

> <STRUCTURE_SMILES_Desalt>
c1cccc2nnnc12

> <Substance_modify_yyyymmdd>
20080429

$$$$
