95-27-2
ChemmineR-0915142007XD

 20 21  0  0  0  0  0  0  0  0  1 V2000
    2.3003    0.0000    0.0000 C   0  0  0  0  0  0  0  0  0  0  0  0
    1.1502   -0.6682    0.0000 C   0  0  0  0  0  0  0  0  0  0  0  0
    1.1502   -1.9936    0.0000 N   0  0  0  0  0  0  0  0  0  0  0  0
    0.0000   -2.6618    0.0000 C   0  0  0  0  0  0  0  0  0  0  0  0
    0.0000   -3.9873    0.0000 C   0  0  0  0  0  0  0  0  0  0  0  0
    2.3003   -2.6618    0.0000 C   0  0  0  0  0  0  0  0  0  0  0  0
    2.3003   -3.9873    0.0000 C   0  0  0  0  0  0  0  0  0  0  0  0
    3.4505   -4.6555    0.0000 O   0  0  0  0  0  0  0  0  0  0  0  0
    4.6116   -3.9873    0.0000 C   0  0  0  0  0  0  0  0  0  0  0  0
    4.6116   -2.6618    0.0000 C   0  0  0  0  0  0  0  0  0  0  0  0
    5.7618   -1.9936    0.0000 C   0  0  0  0  0  0  0  0  0  0  0  0
    6.9120   -2.6618    0.0000 C   0  0  0  0  0  0  0  0  0  0  0  0
    8.1717   -2.2456    0.0000 N   0  0  0  0  0  0  0  0  0  0  0  0
    8.9604   -3.3300    0.0000 C   0  0  0  0  0  0  0  0  0  0  0  0
    8.1717   -4.4035    0.0000 S   0  0  0  0  0  0  0  0  0  0  0  0
    6.9120   -3.9873    0.0000 C   0  0  0  0  0  0  0  0  0  0  0  0
    5.7618   -4.6555    0.0000 C   0  0  0  0  0  0  0  0  0  0  0  0
   10.2858   -3.3300    0.0000 N   0  0  0  0  0  0  0  0  0  0  0  0
   10.9540   -2.1689    0.0000 C   0  0  0  0  0  0  0  0  0  0  0  0
   10.9540   -4.4802    0.0000 C   0  0  0  0  0  0  0  0  0  0  0  0
  1  2  1  0  0  0  0
  2  3  1  0  0  0  0
  3  4  1  0  0  0  0
  3  6  1  0  0  0  0
  4  5  1  0  0  0  0
  6  7  1  0  0  0  0
  7  8  1  0  0  0  0
  8  9  1  0  0  0  0
  9 10  2  0  0  0  0
  9 17  1  0  0  0  0
 10 11  1  0  0  0  0
 11 12  2  0  0  0  0
 12 13  1  0  0  0  0
 12 16  1  0  0  0  0
 13 14  2  0  0  0  0
 14 15  1  0  0  0  0
 14 18  1  0  0  0  0
 15 16  1  0  0  0  0
 16 17  2  0  0  0  0
 18 19  1  0  0  0  0
 18 20  1  0  0  0  0
M  END
> <ID>
11480

> <Formula>
C15H23N3OS

> <FW>
293.4276

> <DSSTox_CID>
26182

> <DSSTox_RID>
81413

> <DSSTox_GSID>
46182

> <DSSTox_FileID_Sort>
6094

> <TS_ChemName>
Diamthazole

> <TS_ChemName_Synonyms>


> <TS_CASRN>
95-27-2

> <CASRN_ChemName_Relationship>
primary

> <TS_Description>
single chemical compound

> <ChemNote>


> <STRUCTURE_Shown>
tested chemical

> <STRUCTURE_Formula>
C15H23N3OS

> <STRUCTURE_MW>
293.4276

> <STRUCTURE_ChemType>
defined organic

> <STRUCTURE_DefinedOrganicForm>
parent

> <STRUCTURE_IUPAC>
6-[2-(diethylamino)ethoxy]-N,N-dimethyl-1,3-benzothiazol-2-amine

> <STRUCTURE_SMILES>
CCN(CC)CCOc1ccc2nc(sc2c1)N(C)C

> <STRUCTURE_SMILES_Desalt>
CCN(CC)CCOc1ccc2nc(sc2c1)N(C)C

> <Substance_modify_yyyymmdd>
20110818

$$$$
