95-32-9
ChemmineR-0915142007XD

 17 19  0  0  0  0  0  0  0  0  1 V2000
    3.5616   -0.2374    0.0000 N   0  0  0  0  0  0  0  0  0  0  0  0
    3.5616   -2.4054    0.0000 S   0  0  0  0  0  0  0  0  0  0  0  0
    4.3462   -1.3317    0.0000 C   0  0  0  0  0  0  0  0  0  0  0  0
    2.2918   -0.6607    0.0000 C   0  0  0  0  0  0  0  0  0  0  0  0
    2.2918   -1.9925    0.0000 C   0  0  0  0  0  0  0  0  0  0  0  0
    1.1356   -2.6635    0.0000 C   0  0  0  0  0  0  0  0  0  0  0  0
    0.0000   -1.9925    0.0000 C   0  0  0  0  0  0  0  0  0  0  0  0
    0.0000   -0.6607    0.0000 C   0  0  0  0  0  0  0  0  0  0  0  0
    1.1356    0.0000    0.0000 C   0  0  0  0  0  0  0  0  0  0  0  0
    5.6780   -1.3317    0.0000 S   0  0  0  0  0  0  0  0  0  0  0  0
    6.3284   -2.4880    0.0000 S   0  0  0  0  0  0  0  0  0  0  0  0
    7.6601   -2.4880    0.0000 N   0  0  0  0  0  0  0  0  0  0  0  0
   10.3236   -2.4880    0.0000 O   0  0  0  0  0  0  0  0  0  0  0  0
    8.3312   -1.3317    0.0000 C   0  0  0  0  0  0  0  0  0  0  0  0
    8.3312   -3.6236    0.0000 C   0  0  0  0  0  0  0  0  0  0  0  0
    9.6629   -3.6236    0.0000 C   0  0  0  0  0  0  0  0  0  0  0  0
    9.6629   -1.3317    0.0000 C   0  0  0  0  0  0  0  0  0  0  0  0
  1  3  2  0  0  0  0
  1  4  1  0  0  0  0
  2  3  1  0  0  0  0
  2  5  1  0  0  0  0
  3 10  1  0  0  0  0
  4  5  2  0  0  0  0
  4  9  1  0  0  0  0
  5  6  1  0  0  0  0
  6  7  2  0  0  0  0
  7  8  1  0  0  0  0
  8  9  2  0  0  0  0
 10 11  1  0  0  0  0
 11 12  1  0  0  0  0
 12 14  1  0  0  0  0
 12 15  1  0  0  0  0
 13 16  1  0  0  0  0
 13 17  1  0  0  0  0
 14 17  1  0  0  0  0
 15 16  1  0  0  0  0
M  END
> <ID>
4731

> <Formula>
C11H12N2OS3

> <FW>
284.4208

> <DSSTox_CID>
6573

> <DSSTox_RID>
78156

> <DSSTox_GSID>
26573

> <DSSTox_FileID_Sort>
2839

> <TS_ChemName>
2-(Morpholin-4-yldithio)-1,3-benzothiazole

> <TS_ChemName_Synonyms>
Benzothiazole, 2-(4-morpholinyldithio)-

> <TS_CASRN>
95-32-9

> <CASRN_ChemName_Relationship>
primary

> <TS_Description>
single chemical compound

> <ChemNote>


> <STRUCTURE_Shown>
tested chemical

> <STRUCTURE_Formula>
C11H12N2OS3

> <STRUCTURE_MW>
284.4208

> <STRUCTURE_ChemType>
defined organic

> <STRUCTURE_DefinedOrganicForm>
parent

> <STRUCTURE_IUPAC>
2-(morpholin-4-yldisulfanyl)-1,3-benzothiazole

> <STRUCTURE_SMILES>
c1cccc2sc(nc12)SSN3CCOCC3

> <STRUCTURE_SMILES_Desalt>
c1cccc2sc(nc12)SSN3CCOCC3

> <Substance_modify_yyyymmdd>
20080429

$$$$
