95-38-5
ChemmineR-0915142007XD

 25 25  0  0  0  0  0  0  0  0  1 V2000
   16.5607   -3.6780    0.0000 C   0  0  0  0  0  0  0  0  0  0  0  0
   17.7613   -4.2307    0.0000 C   0  0  0  0  0  0  0  0  0  0  0  0
   16.4083   -2.3631    0.0000 O   0  0  0  0  0  0  0  0  0  0  0  0
   17.4564   -7.6610    0.0000 N   0  0  0  0  0  0  0  0  0  0  0  0
   17.8947   -5.5647    0.0000 N   0  0  0  0  0  0  0  0  0  0  0  0
   16.9038   -6.4413    0.0000 C   0  0  0  0  0  0  0  0  0  0  0  0
   18.7904   -7.5085    0.0000 C   0  0  0  0  0  0  0  0  0  0  0  0
   19.0572   -6.2127    0.0000 C   0  0  0  0  0  0  0  0  0  0  0  0
   15.6079   -6.1745    0.0000 C   0  0  0  0  0  0  0  0  0  0  0  0
   15.2077   -4.8977    0.0000 C   0  0  0  0  0  0  0  0  0  0  0  0
   13.8927   -4.6309    0.0000 C   0  0  0  0  0  0  0  0  0  0  0  0
   13.4925   -3.3731    0.0000 C   0  0  0  0  0  0  0  0  0  0  0  0
   12.1966   -3.0682    0.0000 C   0  0  0  0  0  0  0  0  0  0  0  0
   11.7774   -1.8295    0.0000 C   0  0  0  0  0  0  0  0  0  0  0  0
   10.4815   -1.5436    0.0000 C   0  0  0  0  0  0  0  0  0  0  0  0
   10.0622   -0.2668    0.0000 C   0  0  0  0  0  0  0  0  0  0  0  0
    8.7663    0.0000    0.0000 C   0  0  0  0  0  0  0  0  0  0  0  0
    7.8706   -0.9910    0.0000 C   0  0  0  0  0  0  0  0  0  0  0  0
    6.5747   -0.7051    0.0000 C   0  0  0  0  0  0  0  0  0  0  0  0
    5.6981   -1.6961    0.0000 C   0  0  0  0  0  0  0  0  0  0  0  0
    4.3832   -1.4293    0.0000 C   0  0  0  0  0  0  0  0  0  0  0  0
    3.4875   -2.4203    0.0000 C   0  0  0  0  0  0  0  0  0  0  0  0
    2.1916   -2.1344    0.0000 C   0  0  0  0  0  0  0  0  0  0  0  0
    1.2959   -3.1254    0.0000 C   0  0  0  0  0  0  0  0  0  0  0  0
    0.0000   -2.8586    0.0000 C   0  0  0  0  0  0  0  0  0  0  0  0
  1  2  1  0  0  0  0
  1  3  1  0  0  0  0
  2  5  1  0  0  0  0
  4  6  2  0  0  0  0
  4  7  1  0  0  0  0
  5  6  1  0  0  0  0
  5  8  1  0  0  0  0
  6  9  1  0  0  0  0
  7  8  1  0  0  0  0
  9 10  1  0  0  0  0
 10 11  1  0  0  0  0
 11 12  1  0  0  0  0
 12 13  1  0  0  0  0
 13 14  1  0  0  0  0
 14 15  1  0  0  0  0
 15 16  1  0  0  0  0
 16 17  2  0  0  0  0
 17 18  1  0  0  0  0
 18 19  1  0  0  0  0
 19 20  1  0  0  0  0
 20 21  1  0  0  0  0
 21 22  1  0  0  0  0
 22 23  1  0  0  0  0
 23 24  1  0  0  0  0
 24 25  1  0  0  0  0
M  END
> <ID>
7100

> <Formula>
C22H42N2O

> <FW>
350.5817

> <DSSTox_CID>
16112

> <DSSTox_RID>
79273

> <DSSTox_GSID>
36112

> <DSSTox_FileID_Sort>
3955

> <TS_ChemName>
1H-Imidazole-1-ethanol, 2-(8-heptadecenyl)-4,5-dihydro-

> <TS_ChemName_Synonyms>


> <TS_CASRN>
95-38-5

> <CASRN_ChemName_Relationship>
primary

> <TS_Description>
mixture or formulation

> <ChemNote>
mixture of Z [21652-27-7],E isomers; structure shown Z; stereochem

> <STRUCTURE_Shown>
representative isomer in mixture

> <STRUCTURE_Formula>
C22H42N2O

> <STRUCTURE_MW>
350.5817

> <STRUCTURE_ChemType>
defined organic

> <STRUCTURE_DefinedOrganicForm>
parent

> <STRUCTURE_IUPAC>
2-{2-[(8Z)-heptadec-8-en-1-yl]-4,5-dihydro-1H-imidazol-1-yl}ethanol

> <STRUCTURE_SMILES>
OCCN1CCN=C1CCCCCCC/C=C\CCCCCCCC

> <STRUCTURE_SMILES_Desalt>
OCCN1CCN=C1CCCCCCC/C=C\CCCCCCCC

> <Substance_modify_yyyymmdd>
20080429

$$$$
