95-31-8
ChemmineR-0915142007XD

 15 16  0  0  0  0  0  0  0  0  1 V2000
    3.5772   -1.4056    0.0000 N   0  0  0  0  0  0  0  0  0  0  0  0
    3.5772   -3.5591    0.0000 S   0  0  0  0  0  0  0  0  0  0  0  0
    4.3430   -2.4779    0.0000 C   0  0  0  0  0  0  0  0  0  0  0  0
    2.3067   -1.8111    0.0000 C   0  0  0  0  0  0  0  0  0  0  0  0
    2.3067   -3.1356    0.0000 C   0  0  0  0  0  0  0  0  0  0  0  0
    1.1533   -3.8114    0.0000 C   0  0  0  0  0  0  0  0  0  0  0  0
    0.0000   -3.1356    0.0000 C   0  0  0  0  0  0  0  0  0  0  0  0
    0.0000   -1.8111    0.0000 C   0  0  0  0  0  0  0  0  0  0  0  0
    1.1533   -1.1533    0.0000 C   0  0  0  0  0  0  0  0  0  0  0  0
    5.6766   -2.4779    0.0000 S   0  0  0  0  0  0  0  0  0  0  0  0
    6.3524   -1.3245    0.0000 N   0  0  0  0  0  0  0  0  0  0  0  0
    7.6769   -1.3245    0.0000 C   0  0  0  0  0  0  0  0  0  0  0  0
    7.6769    0.0000    0.0000 C   0  0  0  0  0  0  0  0  0  0  0  0
    7.6769   -2.6581    0.0000 C   0  0  0  0  0  0  0  0  0  0  0  0
    9.0105   -1.3245    0.0000 C   0  0  0  0  0  0  0  0  0  0  0  0
  1  3  2  0  0  0  0
  1  4  1  0  0  0  0
  2  3  1  0  0  0  0
  2  5  1  0  0  0  0
  3 10  1  0  0  0  0
  4  5  2  0  0  0  0
  4  9  1  0  0  0  0
  5  6  1  0  0  0  0
  6  7  2  0  0  0  0
  7  8  1  0  0  0  0
  8  9  2  0  0  0  0
 10 11  1  0  0  0  0
 11 12  1  0  0  0  0
 12 13  1  0  0  0  0
 12 14  1  0  0  0  0
 12 15  1  0  0  0  0
M  END
> <ID>
4730

> <Formula>
C11H14N2S2

> <FW>
238.3723

> <DSSTox_CID>
6572

> <DSSTox_RID>
78155

> <DSSTox_GSID>
26572

> <DSSTox_FileID_Sort>
2838

> <TS_ChemName>
N-tert-Butyl-2-benzothiazolesulfenamide

> <TS_ChemName_Synonyms>
N-tert-Butyl-2-benzothiazolesulfenamide (2-Benzothiazolesulfenamide, N-(1,1-dimethylethyl)-)

> <TS_CASRN>
95-31-8

> <CASRN_ChemName_Relationship>
primary

> <TS_Description>
single chemical compound

> <ChemNote>


> <STRUCTURE_Shown>
tested chemical

> <STRUCTURE_Formula>
C11H14N2S2

> <STRUCTURE_MW>
238.3723

> <STRUCTURE_ChemType>
defined organic

> <STRUCTURE_DefinedOrganicForm>
parent

> <STRUCTURE_IUPAC>
N-(1,3-benzothiazol-2-ylsulfanyl)-2-methylpropan-2-amine

> <STRUCTURE_SMILES>
CC(C)(C)NSc1nc2ccccc2s1

> <STRUCTURE_SMILES_Desalt>
CC(C)(C)NSc1nc2ccccc2s1

> <Substance_modify_yyyymmdd>
20080429

$$$$
