95-46-5
ChemmineR-0915142007XD

  8  8  0  0  0  0  0  0  0  0  1 V2000
    1.3289   -2.3027    0.0000 C    0  0  0  0  0  0  0  0  0  0  0  0
    1.9954   -1.1533    0.0000 C    0  0  0  0  0  0  0  0  0  0  0  0
    3.3243   -1.1533    0.0000 C    0  0  0  0  0  0  0  0  0  0  0  0
    3.9907   -2.3027    0.0000 C    0  0  0  0  0  0  0  0  0  0  0  0
    3.3243   -3.4560    0.0000 C    0  0  0  0  0  0  0  0  0  0  0  0
    1.3289    0.0000    0.0000 Br   0  0  0  0  0  0  0  0  0  0  0  0
    1.9954   -3.4560    0.0000 C    0  0  0  0  0  0  0  0  0  0  0  0
    0.0000   -2.3027    0.0000 C    0  0  0  0  0  0  0  0  0  0  0  0
  1  2  2  0  0  0  0
  1  7  1  0  0  0  0
  1  8  1  0  0  0  0
  2  3  1  0  0  0  0
  2  6  1  0  0  0  0
  3  4  2  0  0  0  0
  4  5  1  0  0  0  0
  5  7  2  0  0  0  0
M  END
> <ID>
3795

> <Formula>
C7H7Br

> <FW>
171.0345

> <DSSTox_CID>
4660

> <DSSTox_RID>
77488

> <DSSTox_GSID>
24660

> <DSSTox_FileID_Sort>
2171

> <TS_ChemName>
2-Bromotoluene

> <TS_ChemName_Synonyms>
2-Bromotoluene (o-Bromotoluene)

> <TS_CASRN>
95-46-5

> <CASRN_ChemName_Relationship>
primary

> <TS_Description>
single chemical compound

> <ChemNote>


> <STRUCTURE_Shown>
tested chemical

> <STRUCTURE_Formula>
C7H7Br

> <STRUCTURE_MW>
171.0345

> <STRUCTURE_ChemType>
defined organic

> <STRUCTURE_DefinedOrganicForm>
parent

> <STRUCTURE_IUPAC>
1-bromo-2-methylbenzene

> <STRUCTURE_SMILES>
Cc1ccccc1Br

> <STRUCTURE_SMILES_Desalt>
Cc1ccccc1Br

> <Substance_modify_yyyymmdd>
20080429

$$$$
