95-49-8
ChemmineR-0915142007XD

  8  8  0  0  0  0  0  0  0  0  1 V2000
    1.1565   -1.9940    0.0000 C    0  0  0  0  0  0  0  0  0  0  0  0
    1.1565   -3.3299    0.0000 C    0  0  0  0  0  0  0  0  0  0  0  0
    2.3010   -1.3360    0.0000 C    0  0  0  0  0  0  0  0  0  0  0  0
    2.3010   -3.9879    0.0000 C    0  0  0  0  0  0  0  0  0  0  0  0
    3.4575   -1.9940    0.0000 C    0  0  0  0  0  0  0  0  0  0  0  0
    3.4575   -3.3299    0.0000 C    0  0  0  0  0  0  0  0  0  0  0  0
    0.0000   -1.3360    0.0000 C    0  0  0  0  0  0  0  0  0  0  0  0
    2.3010    0.0000    0.0000 Cl   0  0  0  0  0  0  0  0  0  0  0  0
  1  2  1  0  0  0  0
  1  3  2  0  0  0  0
  1  7  1  0  0  0  0
  2  4  2  0  0  0  0
  3  5  1  0  0  0  0
  3  8  1  0  0  0  0
  4  6  1  0  0  0  0
  5  6  2  0  0  0  0
M  END
> <ID>
3450

> <Formula>
C7H7Cl

> <FW>
126.5835

> <DSSTox_CID>
3977

> <DSSTox_RID>
77246

> <DSSTox_GSID>
23977

> <DSSTox_FileID_Sort>
1929

> <TS_ChemName>
2-Chlorotoluene

> <TS_ChemName_Synonyms>
2-Chlorotoluene (o-Chlorotoluene)

> <TS_CASRN>
95-49-8

> <CASRN_ChemName_Relationship>
primary

> <TS_Description>
single chemical compound

> <ChemNote>


> <STRUCTURE_Shown>
tested chemical

> <STRUCTURE_Formula>
C7H7Cl

> <STRUCTURE_MW>
126.5835

> <STRUCTURE_ChemType>
defined organic

> <STRUCTURE_DefinedOrganicForm>
parent

> <STRUCTURE_IUPAC>
1-chloro-2-methylbenzene

> <STRUCTURE_SMILES>
Cc1ccccc1Cl

> <STRUCTURE_SMILES_Desalt>
Cc1ccccc1Cl

> <Substance_modify_yyyymmdd>
20080429

$$$$
