95-45-4
ChemmineR-0915142007XD

  8  7  0  0  0  0  0  0  0  0  1 V2000
    1.3974   -2.2449    0.0000 C   0  0  0  0  0  0  0  0  0  0  0  0
    2.7092   -2.2449    0.0000 C   0  0  0  0  0  0  0  0  0  0  0  0
    0.7212   -3.3989    0.0000 N   0  0  0  0  0  0  0  0  0  0  0  0
    3.3853   -1.0909    0.0000 N   0  0  0  0  0  0  0  0  0  0  0  0
    4.1381    0.0000    0.0000 O   0  0  0  0  0  0  0  0  0  0  0  0
    0.0000   -4.5078    0.0000 O   0  0  0  0  0  0  0  0  0  0  0  0
    3.3853   -3.3989    0.0000 C   0  0  0  0  0  0  0  0  0  0  0  0
    0.7212   -1.0909    0.0000 C   0  0  0  0  0  0  0  0  0  0  0  0
  1  2  1  0  0  0  0
  1  3  2  0  0  0  0
  1  8  1  0  0  0  0
  2  4  2  0  0  0  0
  2  7  1  0  0  0  0
  3  6  1  0  0  0  0
  4  5  1  0  0  0  0
M  END
> <ID>
10050

> <Formula>
C4H8N2O2

> <FW>
116.1185

> <DSSTox_CID>
24393

> <DSSTox_RID>
80194

> <DSSTox_GSID>
44393

> <DSSTox_FileID_Sort>
4876

> <TS_ChemName>
Dimethylglyoxime

> <TS_ChemName_Synonyms>
Dimethylglyoxime (Butanedione dioxime)

> <TS_CASRN>
95-45-4

> <CASRN_ChemName_Relationship>
primary

> <TS_Description>
single chemical compound

> <ChemNote>


> <STRUCTURE_Shown>
tested chemical

> <STRUCTURE_Formula>
C4H8N2O2

> <STRUCTURE_MW>
116.1185

> <STRUCTURE_ChemType>
defined organic

> <STRUCTURE_DefinedOrganicForm>
parent

> <STRUCTURE_IUPAC>
N,N'-dihydroxybutane-2,3-diimine

> <STRUCTURE_SMILES>
C/C(=N\O)C(\C)=N\O

> <STRUCTURE_SMILES_Desalt>
C/C(=N\O)C(\C)=N\O

> <Substance_modify_yyyymmdd>
20091116

$$$$
