95-54-5
ChemmineR-0915142007XD

  8  8  0  0  0  0  0  0  0  0  1 V2000
    0.0000   -2.3027    0.0000 N   0  0  0  0  0  0  0  0  0  0  0  0
    1.3289   -2.3027    0.0000 C   0  0  0  0  0  0  0  0  0  0  0  0
    1.9954   -1.1533    0.0000 C   0  0  0  0  0  0  0  0  0  0  0  0
    1.3289    0.0000    0.0000 N   0  0  0  0  0  0  0  0  0  0  0  0
    3.3243   -1.1533    0.0000 C   0  0  0  0  0  0  0  0  0  0  0  0
    3.9907   -2.3027    0.0000 C   0  0  0  0  0  0  0  0  0  0  0  0
    3.3243   -3.4560    0.0000 C   0  0  0  0  0  0  0  0  0  0  0  0
    1.9954   -3.4560    0.0000 C   0  0  0  0  0  0  0  0  0  0  0  0
  1  2  1  0  0  0  0
  2  3  2  0  0  0  0
  2  8  1  0  0  0  0
  3  4  1  0  0  0  0
  3  5  1  0  0  0  0
  5  6  2  0  0  0  0
  6  7  1  0  0  0  0
  7  8  2  0  0  0  0
M  END
> <ID>
4450

> <Formula>
C6H8N2

> <FW>
108.1411

> <DSSTox_CID>
5881

> <DSSTox_RID>
77958

> <DSSTox_GSID>
25881

> <DSSTox_FileID_Sort>
2641

> <TS_ChemName>
1,2-Phenylenediamine

> <TS_ChemName_Synonyms>
1,2-Phenylenediamine (o-Phenylenediamine) (1,2-Benzenediamine)

> <TS_CASRN>
95-54-5

> <CASRN_ChemName_Relationship>
primary

> <TS_Description>
single chemical compound

> <ChemNote>


> <STRUCTURE_Shown>
tested chemical

> <STRUCTURE_Formula>
C6H8N2

> <STRUCTURE_MW>
108.1411

> <STRUCTURE_ChemType>
defined organic

> <STRUCTURE_DefinedOrganicForm>
parent

> <STRUCTURE_IUPAC>
benzene-1,2-diamine

> <STRUCTURE_SMILES>
Nc1ccccc1N

> <STRUCTURE_SMILES_Desalt>
Nc1ccccc1N

> <Substance_modify_yyyymmdd>
20080429

$$$$
