95-53-4
ChemmineR-0915142007XD

  8  8  0  0  0  0  0  0  0  0  1 V2000
    0.0000   -2.3027    0.0000 N   0  0  0  0  0  0  0  0  0  0  0  0
    1.3289   -2.3027    0.0000 C   0  0  0  0  0  0  0  0  0  0  0  0
    1.9954   -1.1533    0.0000 C   0  0  0  0  0  0  0  0  0  0  0  0
    3.3243   -1.1533    0.0000 C   0  0  0  0  0  0  0  0  0  0  0  0
    3.9907   -2.3027    0.0000 C   0  0  0  0  0  0  0  0  0  0  0  0
    3.3243   -3.4560    0.0000 C   0  0  0  0  0  0  0  0  0  0  0  0
    1.3289    0.0000    0.0000 C   0  0  0  0  0  0  0  0  0  0  0  0
    1.9954   -3.4560    0.0000 C   0  0  0  0  0  0  0  0  0  0  0  0
  1  2  1  0  0  0  0
  2  3  2  0  0  0  0
  2  8  1  0  0  0  0
  3  4  1  0  0  0  0
  3  7  1  0  0  0  0
  4  5  2  0  0  0  0
  5  6  1  0  0  0  0
  6  8  2  0  0  0  0
M  END
> <ID>
4573

> <Formula>
C7H9N

> <FW>
107.1531

> <DSSTox_CID>
6164

> <DSSTox_RID>
78041

> <DSSTox_GSID>
26164

> <DSSTox_FileID_Sort>
2724

> <TS_ChemName>
2-Methylaniline

> <TS_ChemName_Synonyms>
2-Methylaniline (2-Methylbenzenamine) (o-Toluidine)

> <TS_CASRN>
95-53-4

> <CASRN_ChemName_Relationship>
primary

> <TS_Description>
single chemical compound

> <ChemNote>


> <STRUCTURE_Shown>
tested chemical

> <STRUCTURE_Formula>
C7H9N

> <STRUCTURE_MW>
107.1531

> <STRUCTURE_ChemType>
defined organic

> <STRUCTURE_DefinedOrganicForm>
parent

> <STRUCTURE_IUPAC>
2-methylaniline

> <STRUCTURE_SMILES>
Cc1ccccc1N

> <STRUCTURE_SMILES_Desalt>
Cc1ccccc1N

> <Substance_modify_yyyymmdd>
20080429

$$$$
