95-51-2
ChemmineR-0915142007XD

  8  8  0  0  0  0  0  0  0  0  1 V2000
    0.0000   -2.3027    0.0000 N    0  0  0  0  0  0  0  0  0  0  0  0
    1.3289   -2.3027    0.0000 C    0  0  0  0  0  0  0  0  0  0  0  0
    1.9954   -1.1533    0.0000 C    0  0  0  0  0  0  0  0  0  0  0  0
    1.3289    0.0000    0.0000 Cl   0  0  0  0  0  0  0  0  0  0  0  0
    3.3243   -1.1533    0.0000 C    0  0  0  0  0  0  0  0  0  0  0  0
    3.9907   -2.3027    0.0000 C    0  0  0  0  0  0  0  0  0  0  0  0
    3.3243   -3.4560    0.0000 C    0  0  0  0  0  0  0  0  0  0  0  0
    1.9954   -3.4560    0.0000 C    0  0  0  0  0  0  0  0  0  0  0  0
  1  2  1  0  0  0  0
  2  3  2  0  0  0  0
  2  8  1  0  0  0  0
  3  4  1  0  0  0  0
  3  5  1  0  0  0  0
  5  6  2  0  0  0  0
  6  7  1  0  0  0  0
  7  8  2  0  0  0  0
M  END
> <ID>
1707

> <Formula>
C6H6ClN

> <FW>
127.5715

> <DSSTox_CID>
1810

> <DSSTox_RID>
76342

> <DSSTox_GSID>
21810

> <DSSTox_FileID_Sort>
1026

> <TS_ChemName>
2-Chloroaniline

> <TS_ChemName_Synonyms>
2-Chloro-benzamine (o-Chloroaniline)

> <TS_CASRN>
95-51-2

> <CASRN_ChemName_Relationship>
primary

> <TS_Description>
single chemical compound

> <ChemNote>


> <STRUCTURE_Shown>
tested chemical

> <STRUCTURE_Formula>
C6H6ClN

> <STRUCTURE_MW>
127.5715

> <STRUCTURE_ChemType>
defined organic

> <STRUCTURE_DefinedOrganicForm>
parent

> <STRUCTURE_IUPAC>
2-chloroaniline

> <STRUCTURE_SMILES>
Nc1ccccc1Cl

> <STRUCTURE_SMILES_Desalt>
Nc1ccccc1Cl

> <Substance_modify_yyyymmdd>
20080429

$$$$
