95-65-8
ChemmineR-0915142007XD

  9  9  0  0  0  0  0  0  0  0  1 V2000
    2.3151   -1.9965    0.0000 C   0  0  0  0  0  0  0  0  0  0  0  0
    2.3151   -3.3240    0.0000 C   0  0  0  0  0  0  0  0  0  0  0  0
    1.1629   -1.3275    0.0000 C   0  0  0  0  0  0  0  0  0  0  0  0
    1.1629   -3.9825    0.0000 C   0  0  0  0  0  0  0  0  0  0  0  0
    0.0000   -1.9965    0.0000 C   0  0  0  0  0  0  0  0  0  0  0  0
    0.0000   -3.3240    0.0000 C   0  0  0  0  0  0  0  0  0  0  0  0
    3.4621   -3.9825    0.0000 C   0  0  0  0  0  0  0  0  0  0  0  0
    1.1629    0.0000    0.0000 O   0  0  0  0  0  0  0  0  0  0  0  0
    1.1629   -5.3100    0.0000 C   0  0  0  0  0  0  0  0  0  0  0  0
  1  2  1  0  0  0  0
  1  3  2  0  0  0  0
  2  4  2  0  0  0  0
  2  7  1  0  0  0  0
  3  5  1  0  0  0  0
  3  8  1  0  0  0  0
  4  6  1  0  0  0  0
  4  9  1  0  0  0  0
  5  6  2  0  0  0  0
M  END
> <ID>
3486

> <Formula>
C8H10O

> <FW>
122.1644

> <DSSTox_CID>
4062

> <DSSTox_RID>
77274

> <DSSTox_GSID>
24062

> <DSSTox_FileID_Sort>
1957

> <TS_ChemName>
3,4-Dimethylphenol

> <TS_ChemName_Synonyms>


> <TS_CASRN>
95-65-8

> <CASRN_ChemName_Relationship>
primary

> <TS_Description>
single chemical compound

> <ChemNote>


> <STRUCTURE_Shown>
tested chemical

> <STRUCTURE_Formula>
C8H10O

> <STRUCTURE_MW>
122.1644

> <STRUCTURE_ChemType>
defined organic

> <STRUCTURE_DefinedOrganicForm>
parent

> <STRUCTURE_IUPAC>
3,4-dimethylphenol

> <STRUCTURE_SMILES>
Cc1cc(O)ccc1C

> <STRUCTURE_SMILES_Desalt>
Cc1cc(O)ccc1C

> <Substance_modify_yyyymmdd>
20080429

$$$$
