95-69-2
ChemmineR-0915142007XD

  9  9  0  0  0  0  0  0  0  0  1 V2000
    0.0139    0.0000    0.0000 N    0  0  0  0  0  0  0  0  0  0  0  0
    1.1469   -0.6521    0.0000 C    0  0  0  0  0  0  0  0  0  0  0  0
    1.1469   -1.9932    0.0000 C    0  0  0  0  0  0  0  0  0  0  0  0
    2.2984    0.0000    0.0000 C    0  0  0  0  0  0  0  0  0  0  0  0
    2.2984   -2.6453    0.0000 C    0  0  0  0  0  0  0  0  0  0  0  0
    3.4777   -0.6521    0.0000 C    0  0  0  0  0  0  0  0  0  0  0  0
    3.4777   -1.9932    0.0000 C    0  0  0  0  0  0  0  0  0  0  0  0
    4.6246   -2.6453    0.0000 Cl   0  0  0  0  0  0  0  0  0  0  0  0
    0.0000   -2.6453    0.0000 C    0  0  0  0  0  0  0  0  0  0  0  0
  1  2  1  0  0  0  0
  2  3  2  0  0  0  0
  2  4  1  0  0  0  0
  3  5  1  0  0  0  0
  3  9  1  0  0  0  0
  4  6  2  0  0  0  0
  5  7  2  0  0  0  0
  6  7  1  0  0  0  0
  7  8  1  0  0  0  0
M  END
> <ID>
8474

> <Formula>
C7H8ClN

> <FW>
141.5981

> <DSSTox_CID>
21508

> <DSSTox_RID>
79756

> <DSSTox_GSID>
41508

> <DSSTox_FileID_Sort>
4438

> <TS_ChemName>
4-Chloro-2-methylaniline

> <TS_ChemName_Synonyms>


> <TS_CASRN>
95-69-2

> <CASRN_ChemName_Relationship>
primary

> <TS_Description>
single chemical compound

> <ChemNote>


> <STRUCTURE_Shown>
tested chemical

> <STRUCTURE_Formula>
C7H8ClN

> <STRUCTURE_MW>
141.5981

> <STRUCTURE_ChemType>
defined organic

> <STRUCTURE_DefinedOrganicForm>
parent

> <STRUCTURE_IUPAC>
4-chloro-2-methylaniline

> <STRUCTURE_SMILES>
Cc1cc(Cl)ccc1N

> <STRUCTURE_SMILES_Desalt>
Cc1cc(Cl)ccc1N

> <Substance_modify_yyyymmdd>
20080825

$$$$
