95-71-6
ChemmineR-0915142007XD

  9  9  0  0  0  0  0  0  0  0  1 V2000
    0.0000   -2.6589    0.0000 C   0  0  0  0  0  0  0  0  0  0  0  0
    1.1520   -1.9953    0.0000 C   0  0  0  0  0  0  0  0  0  0  0  0
    1.1520   -0.6636    0.0000 C   0  0  0  0  0  0  0  0  0  0  0  0
    2.3041    0.0000    0.0000 C   0  0  0  0  0  0  0  0  0  0  0  0
    3.4561   -0.6636    0.0000 C   0  0  0  0  0  0  0  0  0  0  0  0
    3.4561   -1.9953    0.0000 C   0  0  0  0  0  0  0  0  0  0  0  0
    2.3041   -2.6589    0.0000 C   0  0  0  0  0  0  0  0  0  0  0  0
    4.6082   -2.6589    0.0000 O   0  0  0  0  0  0  0  0  0  0  0  0
    0.0000    0.0000    0.0000 O   0  0  0  0  0  0  0  0  0  0  0  0
  1  2  1  0  0  0  0
  2  3  2  0  0  0  0
  2  7  1  0  0  0  0
  3  4  1  0  0  0  0
  3  9  1  0  0  0  0
  4  5  2  0  0  0  0
  5  6  1  0  0  0  0
  6  7  2  0  0  0  0
  6  8  1  0  0  0  0
M  END
> <ID>
842

> <Formula>
C7H8O2

> <FW>
124.1372

> <DSSTox_CID>
876

> <DSSTox_RID>
75840

> <DSSTox_GSID>
20876

> <DSSTox_FileID_Sort>
524

> <TS_ChemName>
Methylhydroquinone

> <TS_ChemName_Synonyms>


> <TS_CASRN>
95-71-6

> <CASRN_ChemName_Relationship>
primary

> <TS_Description>
single chemical compound

> <ChemNote>


> <STRUCTURE_Shown>
tested chemical

> <STRUCTURE_Formula>
C7H8O2

> <STRUCTURE_MW>
124.1372

> <STRUCTURE_ChemType>
defined organic

> <STRUCTURE_DefinedOrganicForm>
parent

> <STRUCTURE_IUPAC>
2-methylbenzene-1,4-diol

> <STRUCTURE_SMILES>
Oc1ccc(O)c(C)c1

> <STRUCTURE_SMILES_Desalt>
Oc1ccc(O)c(C)c1

> <Substance_modify_yyyymmdd>
20080429

$$$$
