95-80-7
ChemmineR-0915142007XD

  9  9  0  0  0  0  0  0  0  0  1 V2000
    0.0000   -2.6589    0.0000 N   0  0  0  0  0  0  0  0  0  0  0  0
    1.1520   -1.9953    0.0000 C   0  0  0  0  0  0  0  0  0  0  0  0
    1.1520   -0.6636    0.0000 C   0  0  0  0  0  0  0  0  0  0  0  0
    2.3041    0.0000    0.0000 C   0  0  0  0  0  0  0  0  0  0  0  0
    3.4561   -0.6636    0.0000 C   0  0  0  0  0  0  0  0  0  0  0  0
    3.4561   -1.9953    0.0000 C   0  0  0  0  0  0  0  0  0  0  0  0
    2.3041   -2.6589    0.0000 C   0  0  0  0  0  0  0  0  0  0  0  0
    4.6082   -2.6589    0.0000 N   0  0  0  0  0  0  0  0  0  0  0  0
    0.0000    0.0000    0.0000 C   0  0  0  0  0  0  0  0  0  0  0  0
  1  2  1  0  0  0  0
  2  3  2  0  0  0  0
  2  7  1  0  0  0  0
  3  4  1  0  0  0  0
  3  9  1  0  0  0  0
  4  5  2  0  0  0  0
  5  6  1  0  0  0  0
  6  7  2  0  0  0  0
  6  8  1  0  0  0  0
M  END
> <ID>
387

> <Formula>
C7H10N2

> <FW>
122.1677

> <DSSTox_CID>
402

> <DSSTox_RID>
75565

> <DSSTox_GSID>
20402

> <DSSTox_FileID_Sort>
249

> <TS_ChemName>
2,4-Diaminotoluene

> <TS_ChemName_Synonyms>
2,4-Diaminotoluene (2,4-toluene diamine) (1,3-Benzenediamine, 4-methyl-)

> <TS_CASRN>
95-80-7

> <CASRN_ChemName_Relationship>
primary

> <TS_Description>
single chemical compound

> <ChemNote>


> <STRUCTURE_Shown>
tested chemical

> <STRUCTURE_Formula>
C7H10N2

> <STRUCTURE_MW>
122.1677

> <STRUCTURE_ChemType>
defined organic

> <STRUCTURE_DefinedOrganicForm>
parent

> <STRUCTURE_IUPAC>
4-methylbenzene-1,3-diamine

> <STRUCTURE_SMILES>
Nc1cc(N)c(C)cc1

> <STRUCTURE_SMILES_Desalt>
Nc1cc(N)c(C)cc1

> <Substance_modify_yyyymmdd>
20080429

$$$$
