95-82-9
ChemmineR-0915142007XD

  9  9  0  0  0  0  0  0  0  0  1 V2000
    0.0000   -2.6589    0.0000 N    0  0  0  0  0  0  0  0  0  0  0  0
    1.1520   -1.9953    0.0000 C    0  0  0  0  0  0  0  0  0  0  0  0
    1.1520   -0.6636    0.0000 C    0  0  0  0  0  0  0  0  0  0  0  0
    2.3041    0.0000    0.0000 C    0  0  0  0  0  0  0  0  0  0  0  0
    3.4561   -0.6636    0.0000 C    0  0  0  0  0  0  0  0  0  0  0  0
    3.4561   -1.9953    0.0000 C    0  0  0  0  0  0  0  0  0  0  0  0
    4.6082   -2.6589    0.0000 Cl   0  0  0  0  0  0  0  0  0  0  0  0
    0.0000    0.0000    0.0000 Cl   0  0  0  0  0  0  0  0  0  0  0  0
    2.3041   -2.6589    0.0000 C    0  0  0  0  0  0  0  0  0  0  0  0
  1  2  1  0  0  0  0
  2  3  2  0  0  0  0
  2  9  1  0  0  0  0
  3  4  1  0  0  0  0
  3  8  1  0  0  0  0
  4  5  2  0  0  0  0
  5  6  1  0  0  0  0
  6  7  1  0  0  0  0
  6  9  2  0  0  0  0
M  END
> <ID>
3942

> <Formula>
C6H5Cl2N

> <FW>
162.0166

> <DSSTox_CID>
4967

> <DSSTox_RID>
77602

> <DSSTox_GSID>
24967

> <DSSTox_FileID_Sort>
2285

> <TS_ChemName>
2,5-Dichloroaniline

> <TS_ChemName_Synonyms>


> <TS_CASRN>
95-82-9

> <CASRN_ChemName_Relationship>
primary

> <TS_Description>
single chemical compound

> <ChemNote>


> <STRUCTURE_Shown>
tested chemical

> <STRUCTURE_Formula>
C6H5Cl2N

> <STRUCTURE_MW>
162.0166

> <STRUCTURE_ChemType>
defined organic

> <STRUCTURE_DefinedOrganicForm>
parent

> <STRUCTURE_IUPAC>
2,5-dichloroaniline

> <STRUCTURE_SMILES>
Clc1ccc(Cl)c(N)c1

> <STRUCTURE_SMILES_Desalt>
Clc1ccc(Cl)c(N)c1

> <Substance_modify_yyyymmdd>
20080429

$$$$
