95-92-1
ChemmineR-0915142007XD

 10  9  0  0  0  0  0  0  0  0  1 V2000
    3.4889   -1.3438    0.0000 C   0  0  0  0  0  0  0  0  0  0  0  0
    4.6384   -1.9832    0.0000 C   0  0  0  0  0  0  0  0  0  0  0  0
    3.4889    0.0000    0.0000 O   0  0  0  0  0  0  0  0  0  0  0  0
    2.3232   -1.9832    0.0000 O   0  0  0  0  0  0  0  0  0  0  0  0
    4.6384   -3.3270    0.0000 O   0  0  0  0  0  0  0  0  0  0  0  0
    5.7717   -1.3438    0.0000 O   0  0  0  0  0  0  0  0  0  0  0  0
    1.1657   -1.3438    0.0000 C   0  0  0  0  0  0  0  0  0  0  0  0
    0.0000   -2.0156    0.0000 C   0  0  0  0  0  0  0  0  0  0  0  0
    6.9616   -1.9832    0.0000 C   0  0  0  0  0  0  0  0  0  0  0  0
    8.0949   -1.3114    0.0000 C   0  0  0  0  0  0  0  0  0  0  0  0
  1  2  1  0  0  0  0
  1  4  1  0  0  0  0
  1  3  2  0  0  0  0
  2  6  1  0  0  0  0
  2  5  2  0  0  0  0
  4  7  1  0  0  0  0
  6  9  1  0  0  0  0
  7  8  1  0  0  0  0
  9 10  1  0  0  0  0
M  END
> <ID>
10129

> <Formula>
C6H10O4

> <FW>
146.1412

> <DSSTox_CID>
24472

> <DSSTox_RID>
80254

> <DSSTox_GSID>
44472

> <DSSTox_FileID_Sort>
4936

> <TS_ChemName>
Diethyl oxalate

> <TS_ChemName_Synonyms>
Diethyl oxalate (Ethanedioic acid, diethyl ester)

> <TS_CASRN>
95-92-1

> <CASRN_ChemName_Relationship>
primary

> <TS_Description>
single chemical compound

> <ChemNote>


> <STRUCTURE_Shown>
tested chemical

> <STRUCTURE_Formula>
C6H10O4

> <STRUCTURE_MW>
146.1412

> <STRUCTURE_ChemType>
defined organic

> <STRUCTURE_DefinedOrganicForm>
parent

> <STRUCTURE_IUPAC>
diethyl ethanedioate

> <STRUCTURE_SMILES>
CCOC(=O)C(=O)OCC

> <STRUCTURE_SMILES_Desalt>
CCOC(=O)C(=O)OCC

> <Substance_modify_yyyymmdd>
20091116

$$$$
