95-96-5
ChemmineR-0915142007XD

 10 10  0  0  0  0  0  0  0  0  1 V2000
    1.1713   -0.7349    0.0000 C   0  0  0  0  0  0  0  0  0  0  0  0
    3.4540   -2.0531    0.0000 C   0  0  0  0  0  0  0  0  0  0  0  0
    2.2966   -0.0643    0.0000 O   0  0  0  0  0  0  0  0  0  0  0  0
    2.2966   -2.7054    0.0000 O   0  0  0  0  0  0  0  0  0  0  0  0
    1.1713   -2.0348    0.0000 C   0  0  0  0  0  0  0  0  0  0  0  0
    3.4540   -0.7165    0.0000 C   0  0  0  0  0  0  0  0  0  0  0  0
    0.0322   -0.0322    0.0000 O   0  0  0  0  0  0  0  0  0  0  0  0
    4.5931   -2.7697    0.0000 O   0  0  0  0  0  0  0  0  0  0  0  0
    4.5931    0.0000    0.0000 C   0  0  0  0  0  0  0  0  0  0  0  0
    0.0000   -2.7191    0.0000 C   0  0  0  0  0  0  0  0  0  0  0  0
  1  3  1  0  0  0  0
  1  5  1  0  0  0  0
  1  7  2  0  0  0  0
  2  4  1  0  0  0  0
  2  8  2  0  0  0  0
  2  6  1  0  0  0  0
  3  6  1  0  0  0  0
  4  5  1  0  0  0  0
  5 10  1  0  0  0  0
  6  9  1  0  0  0  0
M  END
> <ID>
8226

> <Formula>
C6H8O4

> <FW>
144.1253

> <DSSTox_CID>
21253

> <DSSTox_RID>
79665

> <DSSTox_GSID>
41253

> <DSSTox_FileID_Sort>
4347

> <TS_ChemName>
1,4-Dioxane-2,5-dione, 3,6-dimethyl-

> <TS_ChemName_Synonyms>


> <TS_CASRN>
95-96-5

> <CASRN_ChemName_Relationship>
primary

> <TS_Description>
single chemical compound

> <ChemNote>


> <STRUCTURE_Shown>
tested chemical

> <STRUCTURE_Formula>
C6H8O4

> <STRUCTURE_MW>
144.1253

> <STRUCTURE_ChemType>
defined organic

> <STRUCTURE_DefinedOrganicForm>
parent

> <STRUCTURE_IUPAC>
3,6-dimethyl-1,4-dioxane-2,5-dione

> <STRUCTURE_SMILES>
CC1OC(=O)C(C)OC1=O

> <STRUCTURE_SMILES_Desalt>
CC1OC(=O)C(C)OC1=O

> <Substance_modify_yyyymmdd>
20080825

$$$$
