950-35-6
ChemmineR-0915142007XD

 16 16  0  0  0  0  0  0  0  0  2 V2000
    5.5167   -2.9692    0.0000 O   0  0  0  0  0  0  0  0  0  0  0  0
    6.6739   -2.2964    0.0000 P   0  0  0  0  0  0  0  0  0  0  0  0
    5.9922   -1.1572    0.0000 O   0  0  0  0  0  0  0  0  0  0  0  0
    4.6646   -1.1572    0.0000 C   0  0  0  0  0  0  0  0  0  0  0  0
    4.0008   -2.2964    0.0000 C   0  0  0  0  0  0  0  0  0  0  0  0
    2.6642   -2.2964    0.0000 C   0  0  0  0  0  0  0  0  0  0  0  0
    1.9914   -1.1572    0.0000 C   0  0  0  0  0  0  0  0  0  0  0  0
    2.6642    0.0000    0.0000 C   0  0  0  0  0  0  0  0  0  0  0  0
    4.0008    0.0000    0.0000 C   0  0  0  0  0  0  0  0  0  0  0  0
    0.6548   -1.1572    0.0000 N   0  3  0  0  0  0  0  0  0  0  0  0
    0.0000   -2.2964    0.0000 O   0  0  0  0  0  0  0  0  0  0  0  0
    0.0000    0.0000    0.0000 O   0  5  0  0  0  0  0  0  0  0  0  0
    7.8131   -1.6326    0.0000 O   0  0  0  0  0  0  0  0  0  0  0  0
    8.9703   -2.2964    0.0000 C   0  0  0  0  0  0  0  0  0  0  0  0
    7.3287   -3.4536    0.0000 O   0  0  0  0  0  0  0  0  0  0  0  0
    8.6653   -3.4536    0.0000 C   0  0  0  0  0  0  0  0  0  0  0  0
  1  2  2  0  0  0  0
  2  3  1  0  0  0  0
  2 13  1  0  0  0  0
  2 15  1  0  0  0  0
  3  4  1  0  0  0  0
  4  5  2  0  0  0  0
  4  9  1  0  0  0  0
  5  6  1  0  0  0  0
  6  7  2  0  0  0  0
  7  8  1  0  0  0  0
  7 10  1  0  0  0  0
  8  9  2  0  0  0  0
 10 11  2  0  0  0  0
 10 12  1  0  0  0  0
 13 14  1  0  0  0  0
 15 16  1  0  0  0  0
M  END
> <ID>
7345

> <Formula>
C8H10NO6P

> <FW>
247.1419

> <DSSTox_CID>
17571

> <DSSTox_RID>
79339

> <DSSTox_GSID>
37571

> <DSSTox_FileID_Sort>
4021

> <TS_ChemName>
Methylparaoxon

> <TS_ChemName_Synonyms>
Methylparaoxon (Methyl parathion oxon)

> <TS_CASRN>
950-35-6

> <CASRN_ChemName_Relationship>
primary

> <TS_Description>
single chemical compound

> <ChemNote>


> <STRUCTURE_Shown>
tested chemical

> <STRUCTURE_Formula>
C8H10NO6P

> <STRUCTURE_MW>
247.1419

> <STRUCTURE_ChemType>
defined organic

> <STRUCTURE_DefinedOrganicForm>
parent

> <STRUCTURE_IUPAC>
dimethyl 4-nitrophenyl phosphate

> <STRUCTURE_SMILES>
[O-][N+](=O)c1ccc(OP(=O)(OC)OC)cc1

> <STRUCTURE_SMILES_Desalt>
[O-][N+](=O)c1ccc(OP(=O)(OC)OC)cc1

> <Substance_modify_yyyymmdd>
20080429

$$$$
