952-54-5
ChemmineR-0915142007XD

 16 17  0  0  0  0  0  0  0  0  1 V2000
    3.4634   -1.3172    0.0000 C   0  0  0  0  0  0  0  0  0  0  0  0
    2.3028   -2.0080    0.0000 C   0  0  0  0  0  0  0  0  0  0  0  0
    4.6056   -1.9988    0.0000 N   0  0  0  0  0  0  0  0  0  0  0  0
    6.9268   -1.9988    0.0000 N   0  0  0  0  0  0  0  0  0  0  0  0
    5.7846   -1.3172    0.0000 C   0  0  0  0  0  0  0  0  0  0  0  0
    1.1422   -1.3448    0.0000 N   0  0  0  0  0  0  0  0  0  0  0  0
    3.4634    0.0000    0.0000 O   0  0  0  0  0  0  0  0  0  0  0  0
    1.1422   -3.9976    0.0000 N   0  0  0  0  0  0  0  0  0  0  0  0
    9.2112   -3.3160    0.0000 O   0  0  0  0  0  0  0  0  0  0  0  0
    2.3028   -3.3344    0.0000 C   0  0  0  0  0  0  0  0  0  0  0  0
    6.9084   -3.3160    0.0000 C   0  0  0  0  0  0  0  0  0  0  0  0
    8.0690   -1.3172    0.0000 C   0  0  0  0  0  0  0  0  0  0  0  0
    0.0000   -2.0080    0.0000 C   0  0  0  0  0  0  0  0  0  0  0  0
    0.0000   -3.3344    0.0000 C   0  0  0  0  0  0  0  0  0  0  0  0
    9.2112   -1.9988    0.0000 C   0  0  0  0  0  0  0  0  0  0  0  0
    8.0506   -3.9792    0.0000 C   0  0  0  0  0  0  0  0  0  0  0  0
  1  2  1  0  0  0  0
  1  3  1  0  0  0  0
  1  7  2  0  0  0  0
  2  6  1  0  0  0  0
  2 10  2  0  0  0  0
  3  5  1  0  0  0  0
  4  5  1  0  0  0  0
  4 11  1  0  0  0  0
  4 12  1  0  0  0  0
  6 13  2  0  0  0  0
  8 10  1  0  0  0  0
  8 14  2  0  0  0  0
  9 15  1  0  0  0  0
  9 16  1  0  0  0  0
 11 16  1  0  0  0  0
 12 15  1  0  0  0  0
 13 14  1  0  0  0  0
M  END
> <ID>
11458

> <Formula>
C10H14N4O2

> <FW>
222.2438

> <DSSTox_CID>
26159

> <DSSTox_RID>
81390

> <DSSTox_GSID>
46159

> <DSSTox_FileID_Sort>
6071

> <TS_ChemName>
Morphazinamide

> <TS_ChemName_Synonyms>


> <TS_CASRN>
952-54-5

> <CASRN_ChemName_Relationship>
primary

> <TS_Description>
single chemical compound

> <ChemNote>


> <STRUCTURE_Shown>
tested chemical

> <STRUCTURE_Formula>
C10H14N4O2

> <STRUCTURE_MW>
222.2438

> <STRUCTURE_ChemType>
defined organic

> <STRUCTURE_DefinedOrganicForm>
parent

> <STRUCTURE_IUPAC>
N-(morpholin-4-ylmethyl)pyrazine-2-carboxamide

> <STRUCTURE_SMILES>
O=C(NCN1CCOCC1)c2cnccn2

> <STRUCTURE_SMILES_Desalt>
O=C(NCN1CCOCC1)c2cnccn2

> <Substance_modify_yyyymmdd>
20110818

$$$$
