95233-18-4
ChemmineR-0915142007XD

 26 29  0  0  1  0  0  0  0  0  1 V2000
    9.3175    0.0000    0.0000 O    0  0  0  0  0  0  0  0  0  0  0  0
    9.9740   -1.1594    0.0000 C    0  0  0  0  0  0  0  0  0  0  0  0
   11.3151   -1.1594    0.0000 C    0  0  0  0  0  0  0  0  0  0  0  0
   11.9716    0.0000    0.0000 O    0  0  0  0  0  0  0  0  0  0  0  0
   11.9716   -2.3049    0.0000 C    0  0  0  0  0  0  0  0  0  0  0  0
   13.2987   -2.3049    0.0000 C    0  0  0  0  0  0  0  0  0  0  0  0
   13.9692   -3.4644    0.0000 C    0  0  0  0  0  0  0  0  0  0  0  0
   13.2987   -4.6098    0.0000 C    0  0  0  0  0  0  0  0  0  0  0  0
   11.9716   -4.6098    0.0000 C    0  0  0  0  0  0  0  0  0  0  0  0
   11.3151   -3.4644    0.0000 C    0  0  0  0  0  0  0  0  0  0  0  0
    9.9740   -3.4644    0.0000 C    0  0  0  0  0  0  0  0  0  0  0  0
    9.3175   -4.6098    0.0000 O    0  0  0  0  0  0  0  0  0  0  0  0
    9.3175   -2.3049    0.0000 C    0  0  0  0  0  0  0  0  0  0  0  0
    7.9764   -2.3049    0.0000 C    0  0  0  0  0  0  0  0  0  0  0  0
    7.3199   -3.4644    0.0000 C    0  0  0  0  0  0  0  0  0  0  0  0
    5.9928   -3.4644    0.0000 C    0  0  0  0  0  0  0  0  0  0  0  0
    5.3223   -2.3049    0.0000 C    0  0  0  0  0  0  0  0  0  0  0  0
    5.9928   -1.1594    0.0000 C    0  0  0  0  0  0  0  0  0  0  0  0
    7.3199   -1.1594    0.0000 C    0  0  0  0  0  0  0  0  0  0  0  0
    3.9952   -2.3049    0.0000 C    0  0  0  0  0  0  0  0  0  0  0  0
    3.3247   -3.4644    0.0000 C    0  0  0  0  0  0  0  0  0  0  0  0
    1.9976   -3.4644    0.0000 C    0  0  0  0  0  0  0  0  0  0  0  0
    1.3271   -2.3049    0.0000 C    0  0  0  0  0  0  0  0  0  0  0  0
    0.0000   -2.3049    0.0000 Cl   0  0  0  0  0  0  0  0  0  0  0  0
    1.9976   -1.1594    0.0000 C    0  0  0  0  0  0  0  0  0  0  0  0
    3.3247   -1.1594    0.0000 C    0  0  0  0  0  0  0  0  0  0  0  0
  1  2  1  0  0  0  0
  2  3  1  0  0  0  0
  2 13  2  0  0  0  0
  3  4  2  0  0  0  0
  3  5  1  0  0  0  0
  5  6  2  0  0  0  0
  5 10  1  0  0  0  0
  6  7  1  0  0  0  0
  7  8  2  0  0  0  0
  8  9  1  0  0  0  0
  9 10  2  0  0  0  0
 10 11  1  0  0  0  0
 11 12  2  0  0  0  0
 11 13  1  0  0  0  0
 14 13  1  6  0  0  0
 14 15  1  0  0  0  0
 14 19  1  0  0  0  0
 15 16  1  0  0  0  0
 16 17  1  0  0  0  0
 17 18  1  0  0  0  0
 17 20  1  1  0  0  0
 18 19  1  0  0  0  0
 20 21  2  0  0  0  0
 20 26  1  0  0  0  0
 21 22  1  0  0  0  0
 22 23  2  0  0  0  0
 23 24  1  0  0  0  0
 23 25  1  0  0  0  0
 25 26  2  0  0  0  0
M  END
> <ID>
2381

> <Formula>
C22H19ClO3

> <FW>
366.8375

> <DSSTox_CID>
2629

> <DSSTox_RID>
76664

> <DSSTox_GSID>
22629

> <DSSTox_FileID_Sort>
1348

> <TS_ChemName>
Atovaquone

> <TS_ChemName_Synonyms>


> <TS_CASRN>
95233-18-4

> <CASRN_ChemName_Relationship>
primary

> <TS_Description>
single chemical compound

> <ChemNote>
stereochem

> <STRUCTURE_Shown>
tested chemical

> <STRUCTURE_Formula>
C22H19ClO3

> <STRUCTURE_MW>
366.8375

> <STRUCTURE_ChemType>
defined organic

> <STRUCTURE_DefinedOrganicForm>
parent

> <STRUCTURE_IUPAC>
2-[trans-4-(4-chlorophenyl)cyclohexyl]-3-hydroxynaphthalene-1,4-dione

> <STRUCTURE_SMILES>
Clc1ccc(cc1)[C@H]2CC[C@@H](CC2)C=4C(=O)c3ccccc3C(=O)C=4O

> <STRUCTURE_SMILES_Desalt>
Clc1ccc(cc1)[C@H]2CC[C@@H](CC2)C=4C(=O)c3ccccc3C(=O)C=4O

> <Substance_modify_yyyymmdd>
20080429

$$$$
