954-21-2
ChemmineR-0915142007XD

 17 18  0  0  0  0  0  0  0  0  1 V2000
    2.2978   -2.6704    0.0000 C   0  0  0  0  0  0  0  0  0  0  0  0
    2.2978   -3.9953    0.0000 C   0  0  0  0  0  0  0  0  0  0  0  0
    1.1524   -4.6647    0.0000 C   0  0  0  0  0  0  0  0  0  0  0  0
    0.0000   -3.9953    0.0000 C   0  0  0  0  0  0  0  0  0  0  0  0
    0.0000   -2.6704    0.0000 C   0  0  0  0  0  0  0  0  0  0  0  0
    1.1524   -1.9942    0.0000 C   0  0  0  0  0  0  0  0  0  0  0  0
    3.4502   -0.6693    0.0000 C   0  0  0  0  0  0  0  0  0  0  0  0
    4.6026    0.0000    0.0000 O   0  0  0  0  0  0  0  0  0  0  0  0
    3.4502   -1.9942    0.0000 C   0  0  0  0  0  0  0  0  0  0  0  0
    2.2978    0.0000    0.0000 N   0  0  0  0  0  0  0  0  0  0  0  0
    1.1524   -0.6693    0.0000 C   0  0  0  0  0  0  0  0  0  0  0  0
    4.6026   -2.6704    0.0000 C   0  0  0  0  0  0  0  0  0  0  0  0
    5.7687   -1.9942    0.0000 C   0  0  0  0  0  0  0  0  0  0  0  0
    4.6026   -3.9953    0.0000 C   0  0  0  0  0  0  0  0  0  0  0  0
    6.9004   -2.6704    0.0000 C   0  0  0  0  0  0  0  0  0  0  0  0
    5.7687   -4.6647    0.0000 C   0  0  0  0  0  0  0  0  0  0  0  0
    6.9004   -3.9953    0.0000 C   0  0  0  0  0  0  0  0  0  0  0  0
  1  2  1  0  0  0  0
  1  6  2  0  0  0  0
  1  9  1  0  0  0  0
  2  3  2  0  0  0  0
  3  4  1  0  0  0  0
  4  5  2  0  0  0  0
  5  6  1  0  0  0  0
  7  8  2  0  0  0  0
  7 10  1  0  0  0  0
  7  9  1  0  0  0  0
  9 12  1  0  0  0  0
 10 11  1  0  0  0  0
 12 13  2  0  0  0  0
 12 14  1  0  0  0  0
 13 15  1  0  0  0  0
 14 16  2  0  0  0  0
 15 17  2  0  0  0  0
 16 17  1  0  0  0  0
M  END
> <ID>
9138

> <Formula>
C15H15NO

> <FW>
225.2857

> <DSSTox_CID>
22208

> <DSSTox_RID>
79958

> <DSSTox_GSID>
42208

> <DSSTox_FileID_Sort>
4640

> <TS_ChemName>
N-methyl-alpha-phenylbenzeneacetamide

> <TS_ChemName_Synonyms>


> <TS_CASRN>
954-21-2

> <CASRN_ChemName_Relationship>
primary

> <TS_Description>
single chemical compound

> <ChemNote>


> <STRUCTURE_Shown>
tested chemical

> <STRUCTURE_Formula>
C15H15NO

> <STRUCTURE_MW>
225.2857

> <STRUCTURE_ChemType>
defined organic

> <STRUCTURE_DefinedOrganicForm>
parent

> <STRUCTURE_IUPAC>
N-methyl-2,2-diphenylacetamide

> <STRUCTURE_SMILES>
O=C(NC)C(c1ccccc1)c2ccccc2

> <STRUCTURE_SMILES_Desalt>
O=C(NC)C(c1ccccc1)c2ccccc2

> <Substance_modify_yyyymmdd>
20080825

$$$$
