95635-55-5
ChemmineR-0915142007XD

 31 33  0  0  0  0  0  0  0  0  1 V2000
    0.0000   -2.4944    0.0000 C   0  0  0  0  0  0  0  0  0  0  0  0
    0.0000   -3.8018    0.0000 C   0  0  0  0  0  0  0  0  0  0  0  0
    1.1354   -4.4555    0.0000 C   0  0  0  0  0  0  0  0  0  0  0  0
    2.2708   -3.8018    0.0000 C   0  0  0  0  0  0  0  0  0  0  0  0
    2.2708   -2.4772    0.0000 C   0  0  0  0  0  0  0  0  0  0  0  0
    1.1354   -1.8235    0.0000 C   0  0  0  0  0  0  0  0  0  0  0  0
    3.4233   -1.8235    0.0000 C   0  0  0  0  0  0  0  0  0  0  0  0
    1.1354   -5.7801    0.0000 C   0  0  0  0  0  0  0  0  0  0  0  0
    3.4233   -4.5931    0.0000 N   0  0  0  0  0  0  0  0  0  0  0  0
    4.5415   -3.9394    0.0000 C   0  0  0  0  0  0  0  0  0  0  0  0
    4.5415   -2.6148    0.0000 O   0  0  0  0  0  0  0  0  0  0  0  0
    5.6425   -4.6275    0.0000 C   0  0  0  0  0  0  0  0  0  0  0  0
    6.8123   -3.9910    0.0000 N   0  0  0  0  0  0  0  0  0  0  0  0
    7.9821   -4.6275    0.0000 C   0  0  0  0  0  0  0  0  0  0  0  0
    9.1175   -3.9910    0.0000 C   0  0  0  0  0  0  0  0  0  0  0  0
    9.1175   -2.6492    0.0000 N   0  0  0  0  0  0  0  0  0  0  0  0
    7.9821   -1.9611    0.0000 C   0  0  0  0  0  0  0  0  0  0  0  0
    6.8123   -2.6492    0.0000 C   0  0  0  0  0  0  0  0  0  0  0  0
   10.2873   -1.9611    0.0000 C   0  0  0  0  0  0  0  0  0  0  0  0
   11.4398   -2.6492    0.0000 C   0  0  0  0  0  0  0  0  0  0  0  0
   11.4398   -3.9910    0.0000 O   0  0  0  0  0  0  0  0  0  0  0  0
   12.5924   -1.9611    0.0000 C   0  0  0  0  0  0  0  0  0  0  0  0
   13.7450   -2.6492    0.0000 O   0  0  0  0  0  0  0  0  0  0  0  0
   14.8804   -1.9611    0.0000 C   0  0  0  0  0  0  0  0  0  0  0  0
   16.0502   -2.6492    0.0000 C   0  0  0  0  0  0  0  0  0  0  0  0
   17.2028   -1.9611    0.0000 C   0  0  0  0  0  0  0  0  0  0  0  0
   17.2028   -0.6365    0.0000 C   0  0  0  0  0  0  0  0  0  0  0  0
   16.0502    0.0000    0.0000 C   0  0  0  0  0  0  0  0  0  0  0  0
   14.8804   -0.6365    0.0000 C   0  0  0  0  0  0  0  0  0  0  0  0
   16.0502   -3.9910    0.0000 O   0  0  0  0  0  0  0  0  0  0  0  0
   17.2028   -4.6275    0.0000 C   0  0  0  0  0  0  0  0  0  0  0  0
  1  2  1  0  0  0  0
  1  6  2  0  0  0  0
  2  3  2  0  0  0  0
  3  8  1  0  0  0  0
  3  4  1  0  0  0  0
  4  9  1  0  0  0  0
  4  5  2  0  0  0  0
  5  7  1  0  0  0  0
  5  6  1  0  0  0  0
  9 10  1  0  0  0  0
 10 11  2  0  0  0  0
 10 12  1  0  0  0  0
 12 13  1  0  0  0  0
 13 18  1  0  0  0  0
 13 14  1  0  0  0  0
 14 15  1  0  0  0  0
 15 16  1  0  0  0  0
 16 17  1  0  0  0  0
 16 19  1  0  0  0  0
 17 18  1  0  0  0  0
 19 20  1  0  0  0  0
 20 21  1  0  0  0  0
 20 22  1  0  0  0  0
 22 23  1  0  0  0  0
 23 24  1  0  0  0  0
 24 25  2  0  0  0  0
 24 29  1  0  0  0  0
 25 26  1  0  0  0  0
 25 30  1  0  0  0  0
 26 27  2  0  0  0  0
 27 28  1  0  0  0  0
 28 29  2  0  0  0  0
 30 31  1  0  0  0  0
M  END
> <ID>
10813

> <Formula>
C24H33N3O4

> <FW>
427.5365

> <DSSTox_CID>
25196

> <DSSTox_RID>
80743

> <DSSTox_GSID>
45196

> <DSSTox_FileID_Sort>
5424

> <TS_ChemName>
Ranolazine

> <TS_ChemName_Synonyms>


> <TS_CASRN>
95635-55-5

> <CASRN_ChemName_Relationship>
primary

> <TS_Description>
single chemical compound

> <ChemNote>


> <STRUCTURE_Shown>
tested chemical

> <STRUCTURE_Formula>
C24H33N3O4

> <STRUCTURE_MW>
427.5365

> <STRUCTURE_ChemType>
defined organic

> <STRUCTURE_DefinedOrganicForm>
parent

> <STRUCTURE_IUPAC>
N-(2,6-dimethylphenyl)-2-{4-[2-hydroxy-3-(2-methoxyphenoxy)propyl]piperazin-1-yl}acetamide

> <STRUCTURE_SMILES>
OC(CN1CCN(CC1)CC(=O)Nc2c(C)cccc2C)COc3ccccc3OC

> <STRUCTURE_SMILES_Desalt>
OC(CN1CCN(CC1)CC(=O)Nc2c(C)cccc2C)COc3ccccc3OC

> <Substance_modify_yyyymmdd>
20100107

$$$$
