957-68-6
ChemmineR-0915142007XD

 20 21  0  0  1  0  0  0  0  0  1 V2000
    2.7248   -2.3510    0.0000 N   0  0  0  0  0  0  0  0  0  0  0  0
    1.3575   -2.3510    0.0000 C   0  0  0  0  0  0  0  0  0  0  0  0
    2.7248   -0.9739    0.0000 C   0  0  0  0  0  0  0  0  0  0  0  0
    1.3575   -0.9739    0.0000 C   0  0  0  0  0  0  0  0  0  0  0  0
    3.9151   -3.0298    0.0000 C   0  0  0  0  0  0  0  0  0  0  0  0
    3.9151   -0.2853    0.0000 S   0  0  0  0  0  0  0  0  0  0  0  0
    5.1053   -2.3510    0.0000 C   0  0  0  0  0  0  0  0  0  0  0  0
    3.9151   -4.3971    0.0000 C   0  0  0  0  0  0  0  0  0  0  0  0
    5.1053   -0.9739    0.0000 C   0  0  0  0  0  0  0  0  0  0  0  0
    0.4033   -3.3249    0.0000 O   0  0  0  0  0  0  0  0  0  0  0  0
    6.2858   -3.0298    0.0000 C   0  0  0  0  0  0  0  0  0  0  0  0
    8.6663   -3.0298    0.0000 C   0  0  0  0  0  0  0  0  0  0  0  0
    0.0000   -0.8755    0.0000 N   0  0  0  0  0  0  0  0  0  0  0  0
    5.1053   -5.0857    0.0000 O   0  0  0  0  0  0  0  0  0  0  0  0
    7.4859   -2.3510    0.0000 O   0  0  0  0  0  0  0  0  0  0  0  0
    9.8369   -2.3510    0.0000 O   0  0  0  0  0  0  0  0  0  0  0  0
    2.7248   -5.0857    0.0000 O   0  0  0  0  0  0  0  0  0  0  0  0
    8.6663   -4.3971    0.0000 C   0  0  0  0  0  0  0  0  0  0  0  0
    2.7150    0.0000    0.0000 H   0  0  0  0  0  0  0  0  0  0  0  0
    1.3280   -0.0393    0.0000 H   0  0  0  0  0  0  0  0  0  0  0  0
  1  2  1  0  0  0  0
  1  3  1  0  0  0  0
  1  5  1  0  0  0  0
  2 10  2  0  0  0  0
  2  4  1  0  0  0  0
  3  4  1  0  0  0  0
  3  6  1  0  0  0  0
  3 19  1  6  0  0  0
  4 13  1  1  0  0  0
  4 20  1  6  0  0  0
  5  7  2  0  0  0  0
  5  8  1  0  0  0  0
  6  9  1  0  0  0  0
  7  9  1  0  0  0  0
  7 11  1  0  0  0  0
  8 14  2  0  0  0  0
  8 17  1  0  0  0  0
 11 15  1  0  0  0  0
 12 15  1  0  0  0  0
 12 16  2  0  0  0  0
 12 18  1  0  0  0  0
M  END
> <ID>
10880

> <Formula>
C10H12N2O5S

> <FW>
272.2777

> <DSSTox_CID>
25342

> <DSSTox_RID>
80810

> <DSSTox_GSID>
45342

> <DSSTox_FileID_Sort>
5491

> <TS_ChemName>
7-Aminocephalosporanic acid

> <TS_ChemName_Synonyms>


> <TS_CASRN>
957-68-6

> <CASRN_ChemName_Relationship>
primary

> <TS_Description>
single chemical compound

> <ChemNote>
stereochem

> <STRUCTURE_Shown>
tested chemical

> <STRUCTURE_Formula>
C10H12N2O5S

> <STRUCTURE_MW>
272.2777

> <STRUCTURE_ChemType>
defined organic

> <STRUCTURE_DefinedOrganicForm>
parent

> <STRUCTURE_IUPAC>
(6R,7R)-3-[(acetyloxy)methyl]-7-amino-8-oxo-5-thia-1-azabicyclo[4.2.0]oct-2-ene-2-carboxylic acid

> <STRUCTURE_SMILES>
O=C(O)C=1N2C(=O)[C@@H](N)[C@H]2SCC=1COC(C)=O

> <STRUCTURE_SMILES_Desalt>
O=C(O)C=1N2C(=O)[C@@H](N)[C@H]2SCC=1COC(C)=O

> <Substance_modify_yyyymmdd>
20100107

$$$$
