95737-68-1
ChemmineR-0915142007XD

 24 26  0  0  0  0  0  0  0  0  1 V2000
   10.3733   -3.9817    0.0000 C   0  0  0  0  0  0  0  0  0  0  0  0
   11.5259   -4.6552    0.0000 O   0  0  0  0  0  0  0  0  0  0  0  0
   10.3733   -2.6494    0.0000 C   0  0  0  0  0  0  0  0  0  0  0  0
    9.2207   -4.6552    0.0000 C   0  0  0  0  0  0  0  0  0  0  0  0
   12.6635   -3.9817    0.0000 C   0  0  0  0  0  0  0  0  0  0  0  0
    9.2207   -1.9908    0.0000 C   0  0  0  0  0  0  0  0  0  0  0  0
    8.0681   -3.9817    0.0000 C   0  0  0  0  0  0  0  0  0  0  0  0
   13.8310   -4.6552    0.0000 C   0  0  0  0  0  0  0  0  0  0  0  0
   12.6635   -2.6494    0.0000 C   0  0  0  0  0  0  0  0  0  0  0  0
    8.0681   -2.6494    0.0000 C   0  0  0  0  0  0  0  0  0  0  0  0
   14.9686   -3.9817    0.0000 C   0  0  0  0  0  0  0  0  0  0  0  0
   13.8310   -1.9908    0.0000 C   0  0  0  0  0  0  0  0  0  0  0  0
    6.9155   -1.9908    0.0000 O   0  0  0  0  0  0  0  0  0  0  0  0
   14.9686   -2.6494    0.0000 C   0  0  0  0  0  0  0  0  0  0  0  0
    5.7629   -2.6494    0.0000 C   0  0  0  0  0  0  0  0  0  0  0  0
    4.6103   -1.9908    0.0000 C   0  0  0  0  0  0  0  0  0  0  0  0
    3.4578   -2.6494    0.0000 O   0  0  0  0  0  0  0  0  0  0  0  0
    4.6103   -0.6586    0.0000 C   0  0  0  0  0  0  0  0  0  0  0  0
    2.3052   -1.9908    0.0000 C   0  0  0  0  0  0  0  0  0  0  0  0
    2.3052   -0.6586    0.0000 C   0  0  0  0  0  0  0  0  0  0  0  0
    1.1376   -2.6494    0.0000 N   0  0  0  0  0  0  0  0  0  0  0  0
    1.1376    0.0000    0.0000 C   0  0  0  0  0  0  0  0  0  0  0  0
    0.0000   -1.9908    0.0000 C   0  0  0  0  0  0  0  0  0  0  0  0
    0.0000   -0.6586    0.0000 C   0  0  0  0  0  0  0  0  0  0  0  0
  1  2  1  0  0  0  0
  1  3  1  0  0  0  0
  1  4  2  0  0  0  0
  2  5  1  0  0  0  0
  3  6  2  0  0  0  0
  4  7  1  0  0  0  0
  5  8  2  0  0  0  0
  5  9  1  0  0  0  0
  6 10  1  0  0  0  0
  7 10  2  0  0  0  0
  8 11  1  0  0  0  0
  9 12  2  0  0  0  0
 10 13  1  0  0  0  0
 11 14  2  0  0  0  0
 12 14  1  0  0  0  0
 13 15  1  0  0  0  0
 15 16  1  0  0  0  0
 16 17  1  0  0  0  0
 16 18  1  0  0  0  0
 17 19  1  0  0  0  0
 19 20  1  0  0  0  0
 19 21  2  0  0  0  0
 20 22  2  0  0  0  0
 21 23  1  0  0  0  0
 22 24  1  0  0  0  0
 23 24  2  0  0  0  0
M  END
> <ID>
6558

> <Formula>
C20H19NO3

> <FW>
321.3698

> <DSSTox_CID>
12640

> <DSSTox_RID>
79019

> <DSSTox_GSID>
32640

> <DSSTox_FileID_Sort>
3701

> <TS_ChemName>
Pyriproxyfen

> <TS_ChemName_Synonyms>
Pyriproxyfen (Pyridine, 2-(1-methyl-2-(4-phenoxyphenoxy)ethoxy)-)

> <TS_CASRN>
95737-68-1

> <CASRN_ChemName_Relationship>
primary

> <TS_Description>
single chemical compound

> <ChemNote>


> <STRUCTURE_Shown>
tested chemical

> <STRUCTURE_Formula>
C20H19NO3

> <STRUCTURE_MW>
321.3698

> <STRUCTURE_ChemType>
defined organic

> <STRUCTURE_DefinedOrganicForm>
parent

> <STRUCTURE_IUPAC>
2-{[1-(4-phenoxyphenoxy)propan-2-yl]oxy}pyridine

> <STRUCTURE_SMILES>
CC(COc2ccc(Oc1ccccc1)cc2)Oc3ccccn3

> <STRUCTURE_SMILES_Desalt>
CC(COc2ccc(Oc1ccccc1)cc2)Oc3ccccn3

> <Substance_modify_yyyymmdd>
20080429

$$$$
