95847-70-4
ChemmineR-0915142007XD

 28 31  0  0  0  0  0  0  0  0  1 V2000
    3.0415    0.0000    0.0000 O   0  0  0  0  0  0  0  0  0  0  0  0
    3.5811   -1.2100    0.0000 S   0  0  0  0  0  0  0  0  0  0  0  0
    4.7257   -0.5560    0.0000 O   0  0  0  0  0  0  0  0  0  0  0  0
    4.3660   -2.2893    0.0000 N   0  0  0  0  0  0  0  0  0  0  0  0
    5.6905   -2.2893    0.0000 C   0  0  0  0  0  0  0  0  0  0  0  0
    6.3609   -3.4666    0.0000 C   0  0  0  0  0  0  0  0  0  0  0  0
    7.6854   -3.4666    0.0000 C   0  0  0  0  0  0  0  0  0  0  0  0
    8.3558   -4.5949    0.0000 C   0  0  0  0  0  0  0  0  0  0  0  0
    9.6967   -4.5949    0.0000 N   0  0  0  0  0  0  0  0  0  0  0  0
   10.3508   -3.4666    0.0000 C   0  0  0  0  0  0  0  0  0  0  0  0
   11.6916   -3.4666    0.0000 C   0  0  0  0  0  0  0  0  0  0  0  0
   12.3620   -4.5949    0.0000 N   0  0  0  0  0  0  0  0  0  0  0  0
   11.6916   -5.7559    0.0000 C   0  0  0  0  0  0  0  0  0  0  0  0
   10.3508   -5.7559    0.0000 C   0  0  0  0  0  0  0  0  0  0  0  0
   13.6865   -4.5949    0.0000 C   0  0  0  0  0  0  0  0  0  0  0  0
   14.3570   -3.4666    0.0000 N   0  0  0  0  0  0  0  0  0  0  0  0
   15.6815   -3.4666    0.0000 C   0  0  0  0  0  0  0  0  0  0  0  0
   16.3519   -4.5949    0.0000 C   0  0  0  0  0  0  0  0  0  0  0  0
   15.6815   -5.7559    0.0000 C   0  0  0  0  0  0  0  0  0  0  0  0
   14.3570   -5.7559    0.0000 N   0  0  0  0  0  0  0  0  0  0  0  0
    3.5811   -3.3685    0.0000 C   0  0  0  0  0  0  0  0  0  0  0  0
    3.9899   -4.6439    0.0000 O   0  0  0  0  0  0  0  0  0  0  0  0
    2.2893   -2.9597    0.0000 C   0  0  0  0  0  0  0  0  0  0  0  0
    1.1610   -3.6301    0.0000 C   0  0  0  0  0  0  0  0  0  0  0  0
    0.0000   -2.9597    0.0000 C   0  0  0  0  0  0  0  0  0  0  0  0
    0.0000   -1.6352    0.0000 C   0  0  0  0  0  0  0  0  0  0  0  0
    1.1610   -0.9648    0.0000 C   0  0  0  0  0  0  0  0  0  0  0  0
    2.2893   -1.6352    0.0000 C   0  0  0  0  0  0  0  0  0  0  0  0
  1  2  2  0  0  0  0
  2  3  2  0  0  0  0
  2  4  1  0  0  0  0
  2 28  1  0  0  0  0
  4  5  1  0  0  0  0
  4 21  1  0  0  0  0
  5  6  1  0  0  0  0
  6  7  1  0  0  0  0
  7  8  1  0  0  0  0
  8  9  1  0  0  0  0
  9 10  1  0  0  0  0
  9 14  1  0  0  0  0
 10 11  1  0  0  0  0
 11 12  1  0  0  0  0
 12 13  1  0  0  0  0
 12 15  1  0  0  0  0
 13 14  1  0  0  0  0
 15 16  2  0  0  0  0
 15 20  1  0  0  0  0
 16 17  1  0  0  0  0
 17 18  2  0  0  0  0
 18 19  1  0  0  0  0
 19 20  2  0  0  0  0
 21 22  2  0  0  0  0
 21 23  1  0  0  0  0
 23 24  2  0  0  0  0
 23 28  1  0  0  0  0
 24 25  1  0  0  0  0
 25 26  2  0  0  0  0
 26 27  1  0  0  0  0
 27 28  2  0  0  0  0
M  END
> <ID>
11129

> <Formula>
C19H23N5O3S

> <FW>
401.4826

> <DSSTox_CID>
25688

> <DSSTox_RID>
81060

> <DSSTox_GSID>
45688

> <DSSTox_FileID_Sort>
5741

> <TS_ChemName>
Ipsapirone

> <TS_ChemName_Synonyms>


> <TS_CASRN>
95847-70-4

> <CASRN_ChemName_Relationship>
primary

> <TS_Description>
single chemical compound

> <ChemNote>


> <STRUCTURE_Shown>
tested chemical

> <STRUCTURE_Formula>
C19H23N5O3S

> <STRUCTURE_MW>
401.4826

> <STRUCTURE_ChemType>
defined organic

> <STRUCTURE_DefinedOrganicForm>
parent

> <STRUCTURE_IUPAC>
2-{4-[4-(pyrimidin-2-yl)piperazin-1-yl]butyl}-1,2-benzothiazol-3(2H)-one 1,1-dioxide

> <STRUCTURE_SMILES>
O=C4c1ccccc1S(=O)(=O)N4CCCCN2CCN(CC2)c3ncccn3

> <STRUCTURE_SMILES_Desalt>
O=C4c1ccccc1S(=O)(=O)N4CCCCN2CCN(CC2)c3ncccn3

> <Substance_modify_yyyymmdd>
20100107

$$$$
