959-98-8
ChemmineR-0915142007XD

 21 23  0  0  1  0  0  0  0  0  1 V2000
    6.0772   -4.7658    0.0000 C    0  0  0  0  0  0  0  0  0  0  0  0
    6.2315   -3.4629    0.0000 C    0  0  0  0  0  0  0  0  0  0  0  0
    7.5172   -1.8086    0.0000 C    0  0  0  0  0  0  0  0  0  0  0  0
    6.7715   -1.0543    0.0000 C    0  0  0  0  0  0  0  0  0  0  0  0
    6.7715    0.0000    0.0000 Cl   0  0  0  0  0  0  0  0  0  0  0  0
    5.4943   -2.7257    0.0000 C    0  0  0  0  0  0  0  0  0  0  0  0
    4.7486   -1.9800    0.0000 Cl   0  0  0  0  0  0  0  0  0  0  0  0
    3.3772   -2.7172    0.0000 C    0  0  0  0  0  0  0  0  0  0  0  0
    3.3772   -1.6629    0.0000 H    0  0  0  0  0  0  0  0  0  0  0  0
    3.3772   -3.7800    0.0000 C    0  0  0  0  0  0  0  0  0  0  0  0
    3.3772   -4.8343    0.0000 H    0  0  0  0  0  0  0  0  0  0  0  0
    2.5372   -4.4486    0.0000 C    0  0  0  0  0  0  0  0  0  0  0  0
    1.5172   -4.2000    0.0000 O    0  0  0  0  0  0  0  0  0  0  0  0
    1.0543   -3.2486    0.0000 S    0  0  0  0  0  0  0  0  0  0  0  0
    0.0000   -3.2486    0.0000 O    0  0  0  0  0  0  0  0  0  0  0  0
    1.5172   -2.2972    0.0000 O    0  0  0  0  0  0  0  0  0  0  0  0
    2.5372   -2.0657    0.0000 C    0  0  0  0  0  0  0  0  0  0  0  0
    8.5715   -1.8086    0.0000 Cl   0  0  0  0  0  0  0  0  0  0  0  0
    6.9858   -4.2172    0.0000 Cl   0  0  0  0  0  0  0  0  0  0  0  0
    5.4686   -5.6143    0.0000 Cl   0  0  0  0  0  0  0  0  0  0  0  0
    6.7115   -5.6143    0.0000 Cl   0  0  0  0  0  0  0  0  0  0  0  0
  2  1  1  1  0  0  0
  6  1  1  1  0  0  0
  1 20  1  0  0  0  0
  1 21  1  0  0  0  0
  2  3  1  0  0  0  0
  2 10  1  0  0  0  0
  2 19  1  0  0  0  0
  3  4  2  0  0  0  0
  3 18  1  0  0  0  0
  4  5  1  0  0  0  0
  4  6  1  0  0  0  0
  6  7  1  0  0  0  0
  6  8  1  0  0  0  0
  8  9  1  1  0  0  0
  8 10  1  0  0  0  0
  8 17  1  0  0  0  0
 10 11  1  1  0  0  0
 10 12  1  0  0  0  0
 12 13  1  0  0  0  0
 13 14  1  0  0  0  0
 14 15  2  0  0  0  0
 14 16  1  0  0  0  0
 16 17  1  0  0  0  0
M  END
> <ID>
7327

> <Formula>
C9H6Cl6O3S

> <FW>
406.9251

> <DSSTox_CID>
17539

> <DSSTox_RID>
79331

> <DSSTox_GSID>
37539

> <DSSTox_FileID_Sort>
4013

> <TS_ChemName>
Endosulfan I

> <TS_ChemName_Synonyms>
alpha-Endosulfan

> <TS_CASRN>
959-98-8

> <CASRN_ChemName_Relationship>
primary

> <TS_Description>
single chemical compound

> <ChemNote>
stereochem; asymmetrical S=O

> <STRUCTURE_Shown>
tested chemical

> <STRUCTURE_Formula>
C9H6Cl6O3S

> <STRUCTURE_MW>
406.9251

> <STRUCTURE_ChemType>
defined organic

> <STRUCTURE_DefinedOrganicForm>
parent

> <STRUCTURE_IUPAC>
(5aR,9R,9aS)-6,7,8,9,10,10-hexachloro-1,5,5a,6,9,9a-hexahydro-6,9-methano-2,4,3-benzodioxathiepine 3-oxide

> <STRUCTURE_SMILES>
ClC1=C(Cl)[C@@]3(Cl)C(Cl)(Cl)[C@]1(Cl)[C@H]2COS(=O)OC[C@H]23

> <STRUCTURE_SMILES_Desalt>
ClC1=C(Cl)[C@@]3(Cl)C(Cl)(Cl)[C@]1(Cl)[C@H]2COS(=O)OC[C@H]23

> <Substance_modify_yyyymmdd>
20080815

$$$$
