96-05-9
ChemmineR-0915142007XD

  9  8  0  0  0  0  0  0  0  0  1 V2000
    1.1530    0.0000    0.0000 C   0  0  0  0  0  0  0  0  0  0  0  0
    1.1530   -1.3257    0.0000 C   0  0  0  0  0  0  0  0  0  0  0  0
    0.0000   -1.9954    0.0000 C   0  0  0  0  0  0  0  0  0  0  0  0
    2.2992   -1.9954    0.0000 C   0  0  0  0  0  0  0  0  0  0  0  0
    2.2992   -3.3210    0.0000 O   0  0  0  0  0  0  0  0  0  0  0  0
    3.4522   -1.3257    0.0000 O   0  0  0  0  0  0  0  0  0  0  0  0
    4.6053   -1.9954    0.0000 C   0  0  0  0  0  0  0  0  0  0  0  0
    5.7514   -1.3257    0.0000 C   0  0  0  0  0  0  0  0  0  0  0  0
    6.9045   -1.9954    0.0000 C   0  0  0  0  0  0  0  0  0  0  0  0
  1  2  2  0  0  0  0
  2  3  1  0  0  0  0
  2  4  1  0  0  0  0
  4  5  2  0  0  0  0
  4  6  1  0  0  0  0
  6  7  1  0  0  0  0
  7  8  1  0  0  0  0
  8  9  2  0  0  0  0
M  END
> <ID>
1711

> <Formula>
C7H10O2

> <FW>
126.1531

> <DSSTox_CID>
1816

> <DSSTox_RID>
76344

> <DSSTox_GSID>
21816

> <DSSTox_FileID_Sort>
1028

> <TS_ChemName>
Allyl methacrylate

> <TS_ChemName_Synonyms>
Allyl methacrylate (2-Propenoic acid, 2-methyl-, 2-propenyl ester)

> <TS_CASRN>
96-05-9

> <CASRN_ChemName_Relationship>
primary

> <TS_Description>
single chemical compound

> <ChemNote>


> <STRUCTURE_Shown>
tested chemical

> <STRUCTURE_Formula>
C7H10O2

> <STRUCTURE_MW>
126.1531

> <STRUCTURE_ChemType>
defined organic

> <STRUCTURE_DefinedOrganicForm>
parent

> <STRUCTURE_IUPAC>
prop-2-en-1-yl 2-methylprop-2-enoate

> <STRUCTURE_SMILES>
C=C(C)C(=O)OCC=C

> <STRUCTURE_SMILES_Desalt>
C=C(C)C(=O)OCC=C

> <Substance_modify_yyyymmdd>
20080429

$$$$
