96-08-2
ChemmineR-0915142007XD

 12 14  0  0  0  0  0  0  0  0  1 V2000
    2.9791   -0.4791    0.0000 O   0  0  0  0  0  0  0  0  0  0  0  0
    2.9791   -1.8055    0.0000 C   0  0  0  0  0  0  0  0  0  0  0  0
    1.8263   -1.1527    0.0000 C   0  0  0  0  0  0  0  0  0  0  0  0
    0.6736   -1.8055    0.0000 C   0  0  0  0  0  0  0  0  0  0  0  0
    0.6736   -3.1388    0.0000 C   0  0  0  0  0  0  0  0  0  0  0  0
    1.8263   -3.8054    0.0000 C   0  0  0  0  0  0  0  0  0  0  0  0
    2.9791   -3.1388    0.0000 C   0  0  0  0  0  0  0  0  0  0  0  0
    1.8263   -5.1387    0.0000 C   0  0  0  0  0  0  0  0  0  0  0  0
    1.1527   -6.2914    0.0000 C   0  0  0  0  0  0  0  0  0  0  0  0
    0.0000   -6.9442    0.0000 C   0  0  0  0  0  0  0  0  0  0  0  0
    2.4791   -6.2914    0.0000 O   0  0  0  0  0  0  0  0  0  0  0  0
    1.1527    0.0000    0.0000 C   0  0  0  0  0  0  0  0  0  0  0  0
  1  2  1  0  0  0  0
  1  3  1  0  0  0  0
  2  3  1  0  0  0  0
  2  7  1  0  0  0  0
  3  4  1  0  0  0  0
  3 12  1  0  0  0  0
  4  5  1  0  0  0  0
  5  6  1  0  0  0  0
  6  7  1  0  0  0  0
  6  8  1  0  0  0  0
  8  9  1  0  0  0  0
  8 11  1  0  0  0  0
  9 10  1  0  0  0  0
  9 11  1  0  0  0  0
M  END
> <ID>
9029

> <Formula>
C10H16O2

> <FW>
168.2328

> <DSSTox_CID>
22097

> <DSSTox_RID>
79926

> <DSSTox_GSID>
42097

> <DSSTox_FileID_Sort>
4608

> <TS_ChemName>
Limonene dioxide

> <TS_ChemName_Synonyms>


> <TS_CASRN>
96-08-2

> <CASRN_ChemName_Relationship>
primary

> <TS_Description>
single chemical compound

> <ChemNote>


> <STRUCTURE_Shown>
tested chemical

> <STRUCTURE_Formula>
C10H16O2

> <STRUCTURE_MW>
168.2328

> <STRUCTURE_ChemType>
defined organic

> <STRUCTURE_DefinedOrganicForm>
parent

> <STRUCTURE_IUPAC>
1-methyl-4-(3-methyloxiran-2-yl)-7-oxabicyclo[4.1.0]heptane

> <STRUCTURE_SMILES>
CC12CCC(CC2O1)C3OC3C

> <STRUCTURE_SMILES_Desalt>
CC12CCC(CC2O1)C3OC3C

> <Substance_modify_yyyymmdd>
20080825

$$$$
