96-27-5
ChemmineR-0915142007XD

  6  5  0  0  0  0  0  0  0  0  1 V2000
    2.3042   -0.6728    0.0000 C   0  0  0  0  0  0  0  0  0  0  0  0
    1.1659    0.0000    0.0000 C   0  0  0  0  0  0  0  0  0  0  0  0
    3.4562    0.0000    0.0000 C   0  0  0  0  0  0  0  0  0  0  0  0
    2.3042   -1.9862    0.0000 O   0  0  0  0  0  0  0  0  0  0  0  0
    0.0000   -0.6728    0.0000 O   0  0  0  0  0  0  0  0  0  0  0  0
    4.6083   -0.6728    0.0000 S   0  0  0  0  0  0  0  0  0  0  0  0
  1  2  1  0  0  0  0
  1  3  1  0  0  0  0
  1  4  1  0  0  0  0
  2  5  1  0  0  0  0
  3  6  1  0  0  0  0
M  END
> <ID>
11747

> <Formula>
C3H8O2S

> <FW>
108.1594

> <DSSTox_CID>
26512

> <DSSTox_RID>
81681

> <DSSTox_GSID>
46512

> <DSSTox_FileID_Sort>
6362

> <TS_ChemName>
1-Thioglycerol

> <TS_ChemName_Synonyms>


> <TS_CASRN>
96-27-5

> <CASRN_ChemName_Relationship>
primary

> <TS_Description>
single chemical compound

> <ChemNote>


> <STRUCTURE_Shown>
tested chemical

> <STRUCTURE_Formula>
C3H8O2S

> <STRUCTURE_MW>
108.1594

> <STRUCTURE_ChemType>
defined organic

> <STRUCTURE_DefinedOrganicForm>
parent

> <STRUCTURE_IUPAC>
3-sulfanylpropane-1,2-diol

> <STRUCTURE_SMILES>
OCC(O)CS

> <STRUCTURE_SMILES_Desalt>
OCC(O)CS

> <Substance_modify_yyyymmdd>
20110812

$$$$
