96-23-1
ChemmineR-0915142007XD

  6  5  0  0  0  0  0  0  0  0  1 V2000
    2.6616    0.0000    0.0000 O    0  0  0  0  0  0  0  0  0  0  0  0
    1.9952   -1.1492    0.0000 C    0  0  0  0  0  0  0  0  0  0  0  0
    2.6616   -2.3025    0.0000 C    0  0  0  0  0  0  0  0  0  0  0  0
    3.9905   -2.3025    0.0000 Cl   0  0  0  0  0  0  0  0  0  0  0  0
    0.6664   -1.1492    0.0000 C    0  0  0  0  0  0  0  0  0  0  0  0
    0.0000   -2.3025    0.0000 Cl   0  0  0  0  0  0  0  0  0  0  0  0
  1  2  1  0  0  0  0
  2  3  1  0  0  0  0
  2  5  1  0  0  0  0
  3  4  1  0  0  0  0
  5  6  1  0  0  0  0
M  END
> <ID>
3967

> <Formula>
C3H6Cl2O

> <FW>
128.9851

> <DSSTox_CID>
5010

> <DSSTox_RID>
77625

> <DSSTox_GSID>
25010

> <DSSTox_FileID_Sort>
2308

> <TS_ChemName>
1,3-Dichloro-2-propanol

> <TS_ChemName_Synonyms>


> <TS_CASRN>
96-23-1

> <CASRN_ChemName_Relationship>
primary

> <TS_Description>
single chemical compound

> <ChemNote>


> <STRUCTURE_Shown>
tested chemical

> <STRUCTURE_Formula>
C3H6Cl2O

> <STRUCTURE_MW>
128.9851

> <STRUCTURE_ChemType>
defined organic

> <STRUCTURE_DefinedOrganicForm>
parent

> <STRUCTURE_IUPAC>
1,3-dichloropropan-2-ol

> <STRUCTURE_SMILES>
ClCC(O)CCl

> <STRUCTURE_SMILES_Desalt>
ClCC(O)CCl

> <Substance_modify_yyyymmdd>
20080429

$$$$
