96-22-0
ChemmineR-0915142007XD

  6  5  0  0  0  0  0  0  0  0  1 V2000
    3.3247    0.0000    0.0000 C   0  0  0  0  0  0  0  0  0  0  0  0
    1.9948    0.0000    0.0000 C   0  0  0  0  0  0  0  0  0  0  0  0
    1.3299   -1.1537    0.0000 C   0  0  0  0  0  0  0  0  0  0  0  0
    0.0000   -1.1537    0.0000 O   0  0  0  0  0  0  0  0  0  0  0  0
    1.9948   -2.3040    0.0000 C   0  0  0  0  0  0  0  0  0  0  0  0
    3.3247   -2.3040    0.0000 C   0  0  0  0  0  0  0  0  0  0  0  0
  1  2  1  0  0  0  0
  2  3  1  0  0  0  0
  3  4  2  0  0  0  0
  3  5  1  0  0  0  0
  5  6  1  0  0  0  0
M  END
> <ID>
1714

> <Formula>
C5H10O

> <FW>
86.1323

> <DSSTox_CID>
1820

> <DSSTox_RID>
76347

> <DSSTox_GSID>
21820

> <DSSTox_FileID_Sort>
1031

> <TS_ChemName>
3-Pentanone

> <TS_ChemName_Synonyms>


> <TS_CASRN>
96-22-0

> <CASRN_ChemName_Relationship>
primary

> <TS_Description>
single chemical compound

> <ChemNote>


> <STRUCTURE_Shown>
tested chemical

> <STRUCTURE_Formula>
C5H10O

> <STRUCTURE_MW>
86.1323

> <STRUCTURE_ChemType>
defined organic

> <STRUCTURE_DefinedOrganicForm>
parent

> <STRUCTURE_IUPAC>
pentan-3-one

> <STRUCTURE_SMILES>
CCC(=O)CC

> <STRUCTURE_SMILES_Desalt>
CCC(=O)CC

> <Substance_modify_yyyymmdd>
20080429

$$$$
