96-31-1
ChemmineR-0915142007XD

  6  5  0  0  0  0  0  0  0  0  1 V2000
    1.9952   -1.1492    0.0000 C   0  0  0  0  0  0  0  0  0  0  0  0
    2.6616    0.0000    0.0000 O   0  0  0  0  0  0  0  0  0  0  0  0
    2.6616   -2.3025    0.0000 N   0  0  0  0  0  0  0  0  0  0  0  0
    3.9905   -2.3025    0.0000 C   0  0  0  0  0  0  0  0  0  0  0  0
    0.6664   -1.1492    0.0000 N   0  0  0  0  0  0  0  0  0  0  0  0
    0.0000   -2.3025    0.0000 C   0  0  0  0  0  0  0  0  0  0  0  0
  1  2  2  0  0  0  0
  1  3  1  0  0  0  0
  1  5  1  0  0  0  0
  3  4  1  0  0  0  0
  5  6  1  0  0  0  0
M  END
> <ID>
4050

> <Formula>
C3H8N2O

> <FW>
88.1084

> <DSSTox_CID>
5156

> <DSSTox_RID>
77691

> <DSSTox_GSID>
25156

> <DSSTox_FileID_Sort>
2374

> <TS_ChemName>
N,N'-Dimethylurea

> <TS_ChemName_Synonyms>
N,N-Dimethylurea

> <TS_CASRN>
96-31-1

> <CASRN_ChemName_Relationship>
primary

> <TS_Description>
single chemical compound

> <ChemNote>


> <STRUCTURE_Shown>
tested chemical

> <STRUCTURE_Formula>
C3H8N2O

> <STRUCTURE_MW>
88.1084

> <STRUCTURE_ChemType>
defined organic

> <STRUCTURE_DefinedOrganicForm>
parent

> <STRUCTURE_IUPAC>
1,3-dimethylurea

> <STRUCTURE_SMILES>
CNC(=O)NC

> <STRUCTURE_SMILES_Desalt>
CNC(=O)NC

> <Substance_modify_yyyymmdd>
20080429

$$$$
