96-37-7
ChemmineR-0915142007XD

  6  6  0  0  0  0  0  0  0  0  1 V2000
    1.3304   -1.0738    0.0000 C   0  0  0  0  0  0  0  0  0  0  0  0
    2.1104    0.0000    0.0000 C   0  0  0  0  0  0  0  0  0  0  0  0
    3.3767   -0.4086    0.0000 C   0  0  0  0  0  0  0  0  0  0  0  0
    3.3767   -1.7390    0.0000 C   0  0  0  0  0  0  0  0  0  0  0  0
    2.1104   -2.1509    0.0000 C   0  0  0  0  0  0  0  0  0  0  0  0
    0.0000   -1.0738    0.0000 C   0  0  0  0  0  0  0  0  0  0  0  0
  1  2  1  0  0  0  0
  1  5  1  0  0  0  0
  1  6  1  0  0  0  0
  2  3  1  0  0  0  0
  3  4  1  0  0  0  0
  4  5  1  0  0  0  0
M  END
> <ID>
4286

> <Formula>
C6H12

> <FW>
84.1595

> <DSSTox_CID>
5590

> <DSSTox_RID>
77843

> <DSSTox_GSID>
25590

> <DSSTox_FileID_Sort>
2526

> <TS_ChemName>
Methylcyclopentane

> <TS_ChemName_Synonyms>


> <TS_CASRN>
96-37-7

> <CASRN_ChemName_Relationship>
primary

> <TS_Description>
single chemical compound

> <ChemNote>


> <STRUCTURE_Shown>
tested chemical

> <STRUCTURE_Formula>
C6H12

> <STRUCTURE_MW>
84.1595

> <STRUCTURE_ChemType>
defined organic

> <STRUCTURE_DefinedOrganicForm>
parent

> <STRUCTURE_IUPAC>
methylcyclopentane

> <STRUCTURE_SMILES>
CC1CCCC1

> <STRUCTURE_SMILES_Desalt>
CC1CCCC1

> <Substance_modify_yyyymmdd>
20080429

$$$$
