96-33-3
ChemmineR-0915142007XD

  6  5  0  0  0  0  0  0  0  0  1 V2000
    3.4509   -1.3286    0.0000 C   0  0  0  0  0  0  0  0  0  0  0  0
    1.1526    0.0000    0.0000 O   0  0  0  0  0  0  0  0  0  0  0  0
    2.2983   -1.9981    0.0000 O   0  0  0  0  0  0  0  0  0  0  0  0
    1.1526   -1.3286    0.0000 C   0  0  0  0  0  0  0  0  0  0  0  0
    0.0000   -1.9981    0.0000 C   0  0  0  0  0  0  0  0  0  0  0  0
    0.0000   -3.3267    0.0000 C   0  0  0  0  0  0  0  0  0  0  0  0
  1  3  1  0  0  0  0
  2  4  2  0  0  0  0
  3  4  1  0  0  0  0
  4  5  1  0  0  0  0
  5  6  2  0  0  0  0
M  END
> <ID>
3550

> <Formula>
C4H6O2

> <FW>
86.0892

> <DSSTox_CID>
4183

> <DSSTox_RID>
77320

> <DSSTox_GSID>
24183

> <DSSTox_FileID_Sort>
2003

> <TS_ChemName>
Methyl acrylate

> <TS_ChemName_Synonyms>
Methyl acrylate (2-Propenoic acid, methyl ester)

> <TS_CASRN>
96-33-3

> <CASRN_ChemName_Relationship>
primary

> <TS_Description>
single chemical compound

> <ChemNote>


> <STRUCTURE_Shown>
tested chemical

> <STRUCTURE_Formula>
C4H6O2

> <STRUCTURE_MW>
86.0892

> <STRUCTURE_ChemType>
defined organic

> <STRUCTURE_DefinedOrganicForm>
parent

> <STRUCTURE_IUPAC>
methyl prop-2-enoate

> <STRUCTURE_SMILES>
C=CC(=O)OC

> <STRUCTURE_SMILES_Desalt>
C=CC(=O)OC

> <Substance_modify_yyyymmdd>
20080429

$$$$
