96-49-1
ChemmineR-0915142007XD

  6  6  0  0  0  0  0  0  0  0  1 V2000
    1.2573    0.0000    0.0000 O   0  0  0  0  0  0  0  0  0  0  0  0
    2.0326   -1.0820    0.0000 C   0  0  0  0  0  0  0  0  0  0  0  0
    1.2573   -2.1775    0.0000 O   0  0  0  0  0  0  0  0  0  0  0  0
    0.0000   -1.7427    0.0000 C   0  0  0  0  0  0  0  0  0  0  0  0
    0.0000   -0.4348    0.0000 C   0  0  0  0  0  0  0  0  0  0  0  0
    3.3708   -1.0820    0.0000 O   0  0  0  0  0  0  0  0  0  0  0  0
  1  2  1  0  0  0  0
  1  5  1  0  0  0  0
  2  3  1  0  0  0  0
  2  6  2  0  0  0  0
  3  4  1  0  0  0  0
  4  5  1  0  0  0  0
M  END
> <ID>
4733

> <Formula>
C3H4O3

> <FW>
88.0621

> <DSSTox_CID>
6600

> <DSSTox_RID>
78157

> <DSSTox_GSID>
26600

> <DSSTox_FileID_Sort>
2840

> <TS_ChemName>
1,3-Dioxolan-2-one

> <TS_ChemName_Synonyms>
1,3-Dioxolan-2-one (Ethylene carbonate)

> <TS_CASRN>
96-49-1

> <CASRN_ChemName_Relationship>
primary

> <TS_Description>
single chemical compound

> <ChemNote>


> <STRUCTURE_Shown>
tested chemical

> <STRUCTURE_Formula>
C3H4O3

> <STRUCTURE_MW>
88.0621

> <STRUCTURE_ChemType>
defined organic

> <STRUCTURE_DefinedOrganicForm>
parent

> <STRUCTURE_IUPAC>
1,3-dioxolan-2-one

> <STRUCTURE_SMILES>
O=C1OCCO1

> <STRUCTURE_SMILES_Desalt>
O=C1OCCO1

> <Substance_modify_yyyymmdd>
20080429

$$$$
