96-41-3
ChemmineR-0915142007XD

  6  6  0  0  0  0  0  0  0  0  1 V2000
    3.4272   -0.3222    0.0000 O   0  0  0  0  0  0  0  0  0  0  0  0
    2.1489   -0.7574    0.0000 C   0  0  0  0  0  0  0  0  0  0  0  0
    1.7308   -2.0358    0.0000 C   0  0  0  0  0  0  0  0  0  0  0  0
    1.0522    0.0000    0.0000 C   0  0  0  0  0  0  0  0  0  0  0  0
    0.0000   -0.7574    0.0000 C   0  0  0  0  0  0  0  0  0  0  0  0
    0.4216   -2.0358    0.0000 C   0  0  0  0  0  0  0  0  0  0  0  0
  1  2  1  0  0  0  0
  2  3  1  0  0  0  0
  2  4  1  0  0  0  0
  3  6  1  0  0  0  0
  4  5  1  0  0  0  0
  5  6  1  0  0  0  0
M  END
> <ID>
6615

> <Formula>
C5H10O

> <FW>
86.1323

> <DSSTox_CID>
13371

> <DSSTox_RID>
79066

> <DSSTox_GSID>
33371

> <DSSTox_FileID_Sort>
3748

> <TS_ChemName>
Cyclopentanol

> <TS_ChemName_Synonyms>


> <TS_CASRN>
96-41-3

> <CASRN_ChemName_Relationship>
primary

> <TS_Description>
single chemical compound

> <ChemNote>


> <STRUCTURE_Shown>
tested chemical

> <STRUCTURE_Formula>
C5H10O

> <STRUCTURE_MW>
86.1323

> <STRUCTURE_ChemType>
defined organic

> <STRUCTURE_DefinedOrganicForm>
parent

> <STRUCTURE_IUPAC>
cyclopentanol

> <STRUCTURE_SMILES>
OC1CCCC1

> <STRUCTURE_SMILES_Desalt>
OC1CCCC1

> <Substance_modify_yyyymmdd>
20080429

$$$$
