96-47-9
ChemmineR-0915142007XD

  6  6  0  0  0  0  0  0  0  0  1 V2000
    2.0995   -1.8444    0.0000 O   0  0  0  0  0  0  0  0  0  0  0  0
    1.9548   -3.1752    0.0000 C   0  0  0  0  0  0  0  0  0  0  0  0
    0.8826   -1.3135    0.0000 C   0  0  0  0  0  0  0  0  0  0  0  0
    0.6585   -3.4475    0.0000 C   0  0  0  0  0  0  0  0  0  0  0  0
    0.0000   -2.2926    0.0000 C   0  0  0  0  0  0  0  0  0  0  0  0
    0.6102    0.0000    0.0000 C   0  0  0  0  0  0  0  0  0  0  0  0
  1  2  1  0  0  0  0
  1  3  1  0  0  0  0
  2  4  1  0  0  0  0
  3  5  1  0  0  0  0
  3  6  1  0  0  0  0
  4  5  1  0  0  0  0
M  END
> <ID>
6265

> <Formula>
C5H10O

> <FW>
86.1323

> <DSSTox_CID>
10258

> <DSSTox_RID>
78841

> <DSSTox_GSID>
30258

> <DSSTox_FileID_Sort>
3523

> <TS_ChemName>
2-Methyltetrahydrofuran

> <TS_ChemName_Synonyms>


> <TS_CASRN>
96-47-9

> <CASRN_ChemName_Relationship>
primary

> <TS_Description>
single chemical compound

> <ChemNote>


> <STRUCTURE_Shown>
tested chemical

> <STRUCTURE_Formula>
C5H10O

> <STRUCTURE_MW>
86.1323

> <STRUCTURE_ChemType>
defined organic

> <STRUCTURE_DefinedOrganicForm>
parent

> <STRUCTURE_IUPAC>
2-methyltetrahydrofuran

> <STRUCTURE_SMILES>
CC1CCCO1

> <STRUCTURE_SMILES_Desalt>
CC1CCCO1

> <Substance_modify_yyyymmdd>
20080429

$$$$
