96-50-4
ChemmineR-0915142007XD

  6  6  0  0  0  0  0  0  0  0  1 V2000
    2.1104   -2.1509    0.0000 S   0  0  0  0  0  0  0  0  0  0  0  0
    1.3304   -1.0738    0.0000 C   0  0  0  0  0  0  0  0  0  0  0  0
    0.0000   -1.0738    0.0000 N   0  0  0  0  0  0  0  0  0  0  0  0
    2.1104    0.0000    0.0000 N   0  0  0  0  0  0  0  0  0  0  0  0
    3.3767   -0.4086    0.0000 C   0  0  0  0  0  0  0  0  0  0  0  0
    3.3767   -1.7390    0.0000 C   0  0  0  0  0  0  0  0  0  0  0  0
  1  2  1  0  0  0  0
  1  6  1  0  0  0  0
  2  3  1  0  0  0  0
  2  4  2  0  0  0  0
  4  5  1  0  0  0  0
  5  6  2  0  0  0  0
M  END
> <ID>
3724

> <Formula>
C3H4N2S

> <FW>
100.1423

> <DSSTox_CID>
4508

> <DSSTox_RID>
77437

> <DSSTox_GSID>
24508

> <DSSTox_FileID_Sort>
2120

> <TS_ChemName>
2-Aminothiazole

> <TS_ChemName_Synonyms>
2-Thiazolamine

> <TS_CASRN>
96-50-4

> <CASRN_ChemName_Relationship>
primary

> <TS_Description>
single chemical compound

> <ChemNote>


> <STRUCTURE_Shown>
tested chemical

> <STRUCTURE_Formula>
C3H4N2S

> <STRUCTURE_MW>
100.1423

> <STRUCTURE_ChemType>
defined organic

> <STRUCTURE_DefinedOrganicForm>
parent

> <STRUCTURE_IUPAC>
1,3-thiazol-2-amine

> <STRUCTURE_SMILES>
Nc1nccs1

> <STRUCTURE_SMILES_Desalt>
Nc1nccs1

> <Substance_modify_yyyymmdd>
20080429

$$$$
