96-62-8
ChemmineR-0915142007XD

 28 29  0  0  0  0  0  0  0  0  2 V2000
    0.0000   -3.9884    0.0000 O   0  5  0  0  0  0  0  0  0  0  0  0
    1.1568   -3.3323    0.0000 N   0  3  0  0  0  0  0  0  0  0  0  0
    1.1568   -2.0028    0.0000 O   0  0  0  0  0  0  0  0  0  0  0  0
    2.2964   -3.9884    0.0000 C   0  0  0  0  0  0  0  0  0  0  0  0
    3.4532   -3.3323    0.0000 C   0  0  0  0  0  0  0  0  0  0  0  0
    4.6100   -3.9884    0.0000 C   0  0  0  0  0  0  0  0  0  0  0  0
    4.6100   -5.3179    0.0000 C   0  0  0  0  0  0  0  0  0  0  0  0
    3.4532   -5.9913    0.0000 C   0  0  0  0  0  0  0  0  0  0  0  0
    2.2964   -5.3179    0.0000 C   0  0  0  0  0  0  0  0  0  0  0  0
    5.7668   -3.3323    0.0000 S   0  0  0  0  0  0  0  0  0  0  0  0
    6.4229   -4.4891    0.0000 O   0  0  0  0  0  0  0  0  0  0  0  0
    5.0934   -2.1755    0.0000 O   0  0  0  0  0  0  0  0  0  0  0  0
    6.9064   -2.6589    0.0000 N   0  0  0  0  0  0  0  0  0  0  0  0
    8.0632   -3.3323    0.0000 C   0  0  0  0  0  0  0  0  0  0  0  0
    9.2027   -2.6589    0.0000 C   0  0  0  0  0  0  0  0  0  0  0  0
   10.3595   -3.3323    0.0000 N   0  0  0  0  0  0  0  0  0  0  0  0
   11.4991   -2.6589    0.0000 S   0  0  0  0  0  0  0  0  0  0  0  0
   12.1724   -3.8158    0.0000 O   0  0  0  0  0  0  0  0  0  0  0  0
   10.8430   -1.5194    0.0000 O   0  0  0  0  0  0  0  0  0  0  0  0
   12.6559   -2.0028    0.0000 C   0  0  0  0  0  0  0  0  0  0  0  0
   12.6559   -0.6734    0.0000 C   0  0  0  0  0  0  0  0  0  0  0  0
   13.8127    0.0000    0.0000 C   0  0  0  0  0  0  0  0  0  0  0  0
   14.9695   -0.6734    0.0000 C   0  0  0  0  0  0  0  0  0  0  0  0
   14.9695   -2.0028    0.0000 C   0  0  0  0  0  0  0  0  0  0  0  0
   13.8127   -2.6589    0.0000 C   0  0  0  0  0  0  0  0  0  0  0  0
   16.1091   -2.6589    0.0000 N   0  3  0  0  0  0  0  0  0  0  0  0
   17.2659   -2.0028    0.0000 O   0  5  0  0  0  0  0  0  0  0  0  0
   16.1091   -3.9884    0.0000 O   0  0  0  0  0  0  0  0  0  0  0  0
  1  2  1  0  0  0  0
  2  3  2  0  0  0  0
  2  4  1  0  0  0  0
  4  5  2  0  0  0  0
  4  9  1  0  0  0  0
  5  6  1  0  0  0  0
  6  7  2  0  0  0  0
  6 10  1  0  0  0  0
  7  8  1  0  0  0  0
  8  9  2  0  0  0  0
 10 11  2  0  0  0  0
 10 12  2  0  0  0  0
 10 13  1  0  0  0  0
 13 14  1  0  0  0  0
 14 15  1  0  0  0  0
 15 16  1  0  0  0  0
 16 17  1  0  0  0  0
 17 18  2  0  0  0  0
 17 19  2  0  0  0  0
 17 20  1  0  0  0  0
 20 21  2  0  0  0  0
 20 25  1  0  0  0  0
 21 22  1  0  0  0  0
 22 23  2  0  0  0  0
 23 24  1  0  0  0  0
 24 25  2  0  0  0  0
 24 26  1  0  0  0  0
 26 27  1  0  0  0  0
 26 28  2  0  0  0  0
M  END
> <ID>
11589

> <Formula>
C14H14N4O8S2

> <FW>
430.413

> <DSSTox_CID>
26297

> <DSSTox_RID>
81522

> <DSSTox_GSID>
46297

> <DSSTox_FileID_Sort>
6203

> <TS_ChemName>
Dinsed

> <TS_ChemName_Synonyms>


> <TS_CASRN>
96-62-8

> <CASRN_ChemName_Relationship>
primary

> <TS_Description>
single chemical compound

> <ChemNote>


> <STRUCTURE_Shown>
tested chemical

> <STRUCTURE_Formula>
C14H14N4O8S2

> <STRUCTURE_MW>
430.413

> <STRUCTURE_ChemType>
defined organic

> <STRUCTURE_DefinedOrganicForm>
parent

> <STRUCTURE_IUPAC>
N,N'-ethane-1,2-diylbis(3-nitrobenzenesulfonamide)

> <STRUCTURE_SMILES>
O=S(=O)(NCCNS(=O)(=O)c1cc(ccc1)[N+]([O-])=O)c2cc(ccc2)[N+]([O-])=O

> <STRUCTURE_SMILES_Desalt>
O=S(=O)(NCCNS(=O)(=O)c1cc(ccc1)[N+]([O-])=O)c2cc(ccc2)[N+]([O-])=O

> <Substance_modify_yyyymmdd>
20110815

$$$$
