96-76-4
ChemmineR-0915142007XD

 15 15  0  0  0  0  0  0  0  0  1 V2000
    1.3257   -1.3726    0.0000 C   0  0  0  0  0  0  0  0  0  0  0  0
    1.2923    0.0000    0.0000 O   0  0  0  0  0  0  0  0  0  0  0  0
    2.4774   -2.0422    0.0000 C   0  0  0  0  0  0  0  0  0  0  0  0
    0.1741   -2.0422    0.0000 C   0  0  0  0  0  0  0  0  0  0  0  0
    0.1741   -3.3746    0.0000 C   0  0  0  0  0  0  0  0  0  0  0  0
    2.4774   -3.3746    0.0000 C   0  0  0  0  0  0  0  0  0  0  0  0
    1.3257   -4.0241    0.0000 C   0  0  0  0  0  0  0  0  0  0  0  0
    3.6089   -1.3726    0.0000 C   0  0  0  0  0  0  0  0  0  0  0  0
    2.9595   -0.2410    0.0000 C   0  0  0  0  0  0  0  0  0  0  0  0
    4.2852   -2.5242    0.0000 C   0  0  0  0  0  0  0  0  0  0  0  0
    4.7606   -0.7164    0.0000 C   0  0  0  0  0  0  0  0  0  0  0  0
    1.3257   -5.3699    0.0000 C   0  0  0  0  0  0  0  0  0  0  0  0
    2.6515   -5.3699    0.0000 C   0  0  0  0  0  0  0  0  0  0  0  0
    0.0000   -5.3565    0.0000 C   0  0  0  0  0  0  0  0  0  0  0  0
    1.3257   -6.6956    0.0000 C   0  0  0  0  0  0  0  0  0  0  0  0
  1  2  1  0  0  0  0
  1  3  2  0  0  0  0
  1  4  1  0  0  0  0
  3  6  1  0  0  0  0
  3  8  1  0  0  0  0
  4  5  2  0  0  0  0
  5  7  1  0  0  0  0
  6  7  2  0  0  0  0
  7 12  1  0  0  0  0
  8  9  1  0  0  0  0
  8 10  1  0  0  0  0
  8 11  1  0  0  0  0
 12 13  1  0  0  0  0
 12 14  1  0  0  0  0
 12 15  1  0  0  0  0
M  END
> <ID>
4734

> <Formula>
C14H22O

> <FW>
206.3239

> <DSSTox_CID>
6602

> <DSSTox_RID>
78158

> <DSSTox_GSID>
26602

> <DSSTox_FileID_Sort>
2841

> <TS_ChemName>
2,4-Di-tert-butylphenol

> <TS_ChemName_Synonyms>
2,4-Di-tert-butylphenol (Phenol, 2,4-bis(1,1-dimethylethyl)-)

> <TS_CASRN>
96-76-4

> <CASRN_ChemName_Relationship>
primary

> <TS_Description>
single chemical compound

> <ChemNote>


> <STRUCTURE_Shown>
tested chemical

> <STRUCTURE_Formula>
C14H22O

> <STRUCTURE_MW>
206.3239

> <STRUCTURE_ChemType>
defined organic

> <STRUCTURE_DefinedOrganicForm>
parent

> <STRUCTURE_IUPAC>
2,4-di-tert-butylphenol

> <STRUCTURE_SMILES>
CC(C)(C)c1cc(ccc1O)C(C)(C)C

> <STRUCTURE_SMILES_Desalt>
CC(C)(C)c1cc(ccc1O)C(C)(C)C

> <Substance_modify_yyyymmdd>
20080429

$$$$
