96-70-8
ChemmineR-0915142007XD

 13 13  0  0  0  0  0  0  0  0  1 V2000
    2.3065   -3.1560    0.0000 C   0  0  0  0  0  0  0  0  0  0  0  0
    1.1533   -3.8120    0.0000 O   0  0  0  0  0  0  0  0  0  0  0  0
    2.3065   -1.8231    0.0000 C   0  0  0  0  0  0  0  0  0  0  0  0
    3.4598   -3.8120    0.0000 C   0  0  0  0  0  0  0  0  0  0  0  0
    4.6131   -3.1560    0.0000 C   0  0  0  0  0  0  0  0  0  0  0  0
    3.4598   -1.1533    0.0000 C   0  0  0  0  0  0  0  0  0  0  0  0
    4.6131   -1.8231    0.0000 C   0  0  0  0  0  0  0  0  0  0  0  0
    1.1533   -1.1533    0.0000 C   0  0  0  0  0  0  0  0  0  0  0  0
    1.8093    0.0000    0.0000 C   0  0  0  0  0  0  0  0  0  0  0  0
    0.4834   -2.3065    0.0000 C   0  0  0  0  0  0  0  0  0  0  0  0
    0.0000   -0.4972    0.0000 C   0  0  0  0  0  0  0  0  0  0  0  0
    5.7525   -1.1533    0.0000 C   0  0  0  0  0  0  0  0  0  0  0  0
    6.9058   -1.8231    0.0000 C   0  0  0  0  0  0  0  0  0  0  0  0
  1  2  1  0  0  0  0
  1  3  2  0  0  0  0
  1  4  1  0  0  0  0
  3  6  1  0  0  0  0
  3  8  1  0  0  0  0
  4  5  2  0  0  0  0
  5  7  1  0  0  0  0
  6  7  2  0  0  0  0
  7 12  1  0  0  0  0
  8  9  1  0  0  0  0
  8 10  1  0  0  0  0
  8 11  1  0  0  0  0
 12 13  1  0  0  0  0
M  END
> <ID>
10235

> <Formula>
C12H18O

> <FW>
178.2707

> <DSSTox_CID>
24581

> <DSSTox_RID>
80329

> <DSSTox_GSID>
44581

> <DSSTox_FileID_Sort>
5011

> <TS_ChemName>
2-tert-Butyl-4-ethylphenol

> <TS_ChemName_Synonyms>
2-tert-Butyl-4-ethylphenol (Phenol, 2-(1,1-dimethylethyl)-4-ethyl-)

> <TS_CASRN>
96-70-8

> <CASRN_ChemName_Relationship>
primary

> <TS_Description>
single chemical compound

> <ChemNote>


> <STRUCTURE_Shown>
tested chemical

> <STRUCTURE_Formula>
C12H18O

> <STRUCTURE_MW>
178.2707

> <STRUCTURE_ChemType>
defined organic

> <STRUCTURE_DefinedOrganicForm>
parent

> <STRUCTURE_IUPAC>
2-tert-butyl-4-ethylphenol

> <STRUCTURE_SMILES>
CC(C)(C)c1cc(ccc1O)CC

> <STRUCTURE_SMILES_Desalt>
CC(C)(C)c1cc(ccc1O)CC

> <Substance_modify_yyyymmdd>
20091116

$$$$
