96-84-4
ChemmineR-0915142007XD

 17 17  0  0  0  0  0  0  0  0  1 V2000
    1.1531   -1.3305    0.0000 C   0  0  0  0  0  0  0  0  0  0  0  0
    2.3061   -1.9997    0.0000 C   0  0  0  0  0  0  0  0  0  0  0  0
    2.3061   -3.3302    0.0000 C   0  0  0  0  0  0  0  0  0  0  0  0
    3.4592   -3.9914    0.0000 C   0  0  0  0  0  0  0  0  0  0  0  0
    4.6042   -3.3302    0.0000 C   0  0  0  0  0  0  0  0  0  0  0  0
    4.6042   -1.9997    0.0000 C   0  0  0  0  0  0  0  0  0  0  0  0
    3.4592   -1.3305    0.0000 I   0  0  0  0  0  0  0  0  0  0  0  0
    5.7573   -1.3305    0.0000 C   0  0  0  0  0  0  0  0  0  0  0  0
    6.9103   -1.9997    0.0000 C   0  0  0  0  0  0  0  0  0  0  0  0
    8.0634   -1.3305    0.0000 I   0  0  0  0  0  0  0  0  0  0  0  0
    6.9103   -3.3302    0.0000 C   0  0  0  0  0  0  0  0  0  0  0  0
    5.7573   -3.9914    0.0000 C   0  0  0  0  0  0  0  0  0  0  0  0
    5.7573   -5.3218    0.0000 I   0  0  0  0  0  0  0  0  0  0  0  0
    5.7573    0.0000    0.0000 O   0  0  0  0  0  0  0  0  0  0  0  0
    1.1531   -3.9914    0.0000 C   0  0  0  0  0  0  0  0  0  0  0  0
    0.0000   -3.3302    0.0000 O   0  0  0  0  0  0  0  0  0  0  0  0
    1.1531   -5.3218    0.0000 O   0  0  0  0  0  0  0  0  0  0  0  0
  1  2  1  0  0  0  0
  2  3  1  0  0  0  0
  3  4  1  0  0  0  0
  3 15  1  0  0  0  0
  4  5  1  0  0  0  0
  5  6  2  0  0  0  0
  5 12  1  0  0  0  0
  6  7  1  0  0  0  0
  6  8  1  0  0  0  0
  8  9  2  0  0  0  0
  8 14  1  0  0  0  0
  9 10  1  0  0  0  0
  9 11  1  0  0  0  0
 11 12  2  0  0  0  0
 12 13  1  0  0  0  0
 15 16  1  0  0  0  0
 15 17  2  0  0  0  0
M  END
> <ID>
11559

> <Formula>
C11H11I3O3

> <FW>
571.9167

> <DSSTox_CID>
26265

> <DSSTox_RID>
81492

> <DSSTox_GSID>
46265

> <DSSTox_FileID_Sort>
6173

> <TS_ChemName>
Iophenoxic acid

> <TS_ChemName_Synonyms>


> <TS_CASRN>
96-84-4

> <CASRN_ChemName_Relationship>
primary

> <TS_Description>
single chemical compound

> <ChemNote>


> <STRUCTURE_Shown>
tested chemical

> <STRUCTURE_Formula>
C11H11I3O3

> <STRUCTURE_MW>
571.9167

> <STRUCTURE_ChemType>
defined organic

> <STRUCTURE_DefinedOrganicForm>
parent

> <STRUCTURE_IUPAC>
2-(3-hydroxy-2,4,6-triiodobenzyl)butanoic acid

> <STRUCTURE_SMILES>
Ic1cc(I)c(O)c(I)c1CC(CC)C(=O)O

> <STRUCTURE_SMILES_Desalt>
Ic1cc(I)c(O)c(I)c1CC(CC)C(=O)O

> <Substance_modify_yyyymmdd>
20110816

$$$$
