96-82-2
ChemmineR-0915142007XD

 24 24  0  0  1  0  0  0  0  0  1 V2000
    4.6263   -3.9714    0.0000 C   0  0  0  0  0  0  0  0  0  0  0  0
    4.6263   -5.3229    0.0000 C   0  0  0  0  0  0  0  0  0  0  0  0
    3.4620   -3.3268    0.0000 O   0  0  0  0  0  0  0  0  0  0  0  0
    3.4620   -5.9778    0.0000 C   0  0  0  0  0  0  0  0  0  0  0  0
    2.3080   -3.9714    0.0000 C   0  0  0  0  0  0  0  0  0  0  0  0
    2.3080   -5.3229    0.0000 C   0  0  0  0  0  0  0  0  0  0  0  0
    5.8011   -3.3268    0.0000 O   0  0  0  0  0  0  0  0  0  0  0  0
    5.7699   -5.9778    0.0000 O   0  0  0  0  0  0  0  0  0  0  0  0
    3.4620   -7.2878    0.0000 O   0  0  0  0  0  0  0  0  0  0  0  0
    1.1332   -5.9778    0.0000 O   0  0  0  0  0  0  0  0  0  0  0  0
    1.1332   -3.3268    0.0000 C   0  0  0  0  0  0  0  0  0  0  0  0
    0.0000   -3.9714    0.0000 O   0  0  0  0  0  0  0  0  0  0  0  0
    4.6783   -1.3099    0.0000 C   0  0  0  0  0  0  0  0  0  0  0  0
    5.8011   -1.9961    0.0000 C   0  0  0  0  0  0  0  0  0  0  0  0
    6.9655   -1.3099    0.0000 C   0  0  0  0  0  0  0  0  0  0  0  0
    8.0883   -1.9961    0.0000 C   0  0  0  0  0  0  0  0  0  0  0  0
    9.2631   -1.3099    0.0000 C   0  0  0  0  0  0  0  0  0  0  0  0
    3.4931   -1.9961    0.0000 C   0  0  0  0  0  0  0  0  0  0  0  0
    6.9655    0.0000    0.0000 O   0  0  0  0  0  0  0  0  0  0  0  0
    8.0883   -3.3268    0.0000 O   0  0  0  0  0  0  0  0  0  0  0  0
   10.3962   -1.9961    0.0000 O   0  0  0  0  0  0  0  0  0  0  0  0
    2.3703   -1.3099    0.0000 O   0  0  0  0  0  0  0  0  0  0  0  0
    4.6783    0.0000    0.0000 O   0  0  0  0  0  0  0  0  0  0  0  0
    9.2631    0.0000    0.0000 O   0  0  0  0  0  0  0  0  0  0  0  0
  1  2  1  0  0  0  0
  1  3  1  0  0  0  0
  1  7  1  1  0  0  0
  2  4  1  0  0  0  0
  2  8  1  6  0  0  0
  3  5  1  0  0  0  0
  4  6  1  0  0  0  0
  4  9  1  1  0  0  0
  5  6  1  0  0  0  0
  5 11  1  1  0  0  0
  6 10  1  1  0  0  0
 14  7  1  6  0  0  0
 11 12  1  0  0  0  0
 13 14  1  0  0  0  0
 13 18  1  0  0  0  0
 13 23  1  1  0  0  0
 14 15  1  0  0  0  0
 15 16  1  0  0  0  0
 15 19  1  6  0  0  0
 16 17  1  0  0  0  0
 16 20  1  6  0  0  0
 17 21  1  0  0  0  0
 17 24  2  0  0  0  0
 18 22  1  0  0  0  0
M  END
> <ID>
13850

> <Formula>
C12H22O12

> <FW>
358.2959

> <DSSTox_CID>
28787

> <DSSTox_RID>
83056

> <DSSTox_GSID>
48861

> <DSSTox_FileID_Sort>
7733

> <TS_ChemName>
Lactobionic acid

> <TS_ChemName_Synonyms>


> <TS_CASRN>
96-82-2

> <CASRN_ChemName_Relationship>
primary

> <TS_Description>
single chemical compound

> <ChemNote>


> <STRUCTURE_Shown>
tested chemical

> <STRUCTURE_Formula>
C12H22O12

> <STRUCTURE_MW>
358.2959

> <STRUCTURE_ChemType>
defined organic

> <STRUCTURE_DefinedOrganicForm>
parent

> <STRUCTURE_IUPAC>
4-O-beta-D-galactopyranosyl-D-gluconic acid

> <STRUCTURE_SMILES>
O=C(O)[C@H](O)[C@@H](O)[C@H](O[C@@H]1O[C@H](CO)[C@H](O)[C@H](O)[C@H]1O)[C@H](O)CO

> <STRUCTURE_SMILES_Desalt>
O=C(O)[C@H](O)[C@@H](O)[C@H](O[C@@H]1O[C@H](CO)[C@H](O)[C@H](O)[C@H]1O)[C@H](O)CO

> <Substance_modify_yyyymmdd>
20111204

$$$$
