96-91-3
ChemmineR-0915142007XD

 14 14  0  0  0  0  0  0  0  0  2 V2000
    0.6643   -3.4532    0.0000 N   0  3  0  0  0  0  0  0  0  0  0  0
    0.0000   -2.3041    0.0000 O   0  0  0  0  0  0  0  0  0  0  0  0
    0.0000   -4.6083    0.0000 O   0  5  0  0  0  0  0  0  0  0  0  0
    1.9929   -3.4532    0.0000 C   0  0  0  0  0  0  0  0  0  0  0  0
    2.6572   -2.3041    0.0000 C   0  0  0  0  0  0  0  0  0  0  0  0
    3.9918   -2.3041    0.0000 C   0  0  0  0  0  0  0  0  0  0  0  0
    4.6561   -3.4532    0.0000 C   0  0  0  0  0  0  0  0  0  0  0  0
    3.9918   -4.6083    0.0000 C   0  0  0  0  0  0  0  0  0  0  0  0
    4.6561   -5.7573    0.0000 N   0  0  0  0  0  0  0  0  0  0  0  0
    2.6572   -4.6083    0.0000 C   0  0  0  0  0  0  0  0  0  0  0  0
    1.9929   -5.7573    0.0000 O   0  0  0  0  0  0  0  0  0  0  0  0
    4.6561   -1.1491    0.0000 N   0  3  0  0  0  0  0  0  0  0  0  0
    3.9918    0.0000    0.0000 O   0  0  0  0  0  0  0  0  0  0  0  0
    5.9848   -1.1491    0.0000 O   0  5  0  0  0  0  0  0  0  0  0  0
  1  2  2  0  0  0  0
  1  3  1  0  0  0  0
  1  4  1  0  0  0  0
  4  5  2  0  0  0  0
  4 10  1  0  0  0  0
  5  6  1  0  0  0  0
  6  7  2  0  0  0  0
  6 12  1  0  0  0  0
  7  8  1  0  0  0  0
  8  9  1  0  0  0  0
  8 10  2  0  0  0  0
 10 11  1  0  0  0  0
 12 13  2  0  0  0  0
 12 14  1  0  0  0  0
M  END
> <ID>
3702

> <Formula>
C6H5N3O5

> <FW>
199.121

> <DSSTox_CID>
4479

> <DSSTox_RID>
77418

> <DSSTox_GSID>
24479

> <DSSTox_FileID_Sort>
2101

> <TS_ChemName>
2-Amino-4,6-dinitrophenol

> <TS_ChemName_Synonyms>


> <TS_CASRN>
96-91-3

> <CASRN_ChemName_Relationship>
primary

> <TS_Description>
single chemical compound

> <ChemNote>


> <STRUCTURE_Shown>
tested chemical

> <STRUCTURE_Formula>
C6H5N3O5

> <STRUCTURE_MW>
199.121

> <STRUCTURE_ChemType>
defined organic

> <STRUCTURE_DefinedOrganicForm>
parent

> <STRUCTURE_IUPAC>
2-amino-4,6-dinitrophenol

> <STRUCTURE_SMILES>
Nc1cc(cc([N+]([O-])=O)c1O)[N+]([O-])=O

> <STRUCTURE_SMILES_Desalt>
Nc1cc(cc([N+]([O-])=O)c1O)[N+]([O-])=O

> <Substance_modify_yyyymmdd>
20080429

$$$$
