96020-91-6
ChemmineR-0915142007XD

 13 11  0  0  0  0  0  0  0  0  1 V2000
    1.9869   -2.3100    0.0000 C    0  0  0  0  0  0  0  0  0  0  0  0
    0.6583   -2.3100    0.0000 C    0  0  0  0  0  0  0  0  0  0  0  0
    1.9869   -0.9815    0.0000 C    0  0  0  0  0  0  0  0  0  0  0  0
    0.0000   -1.1550    0.0000 O    0  0  0  0  0  0  0  0  0  0  0  0
    1.9869   -3.6446    0.0000 N    0  0  0  0  0  0  0  0  0  0  0  0
    0.0000   -3.4710    0.0000 O    0  0  0  0  0  0  0  0  0  0  0  0
    0.8498   -0.3232    0.0000 F    0  0  0  0  0  0  0  0  0  0  0  0
    3.1419   -0.3232    0.0000 F    0  0  0  0  0  0  0  0  0  0  0  0
    3.3214   -2.3100    0.0000 C    0  0  0  0  0  0  0  0  0  0  0  0
    5.9845    0.0000    0.0000 N    0  0  0  0  0  0  0  0  0  0  0  0
    5.3262   -1.1550    0.0000 C    0  0  0  0  0  0  0  0  0  0  0  0
    3.9976   -1.1550    0.0000 C    0  0  0  0  0  0  0  0  0  0  0  0
    5.0210   -2.5554    0.0000 Cl   0  0  0  0  0  0  0  0  0  0  0  0
  1  2  1  0  0  0  0
  1  3  1  0  0  0  0
  1  5  1  0  0  0  0
  1  9  1  0  0  0  0
  2  4  2  0  0  0  0
  2  6  1  0  0  0  0
  3  7  1  0  0  0  0
  3  8  1  0  0  0  0
  9 12  1  0  0  0  0
 10 11  1  0  0  0  0
 11 12  1  0  0  0  0
M  END
> <ID>
11175

> <Formula>
C6H13ClF2N2O2

> <FW>
218.6294 (182.1685+36.4609)

> <DSSTox_CID>
25765

> <DSSTox_RID>
81107

> <DSSTox_GSID>
45765

> <DSSTox_FileID_Sort>
5788

> <TS_ChemName>
Eflornithine hydrochloride

> <TS_ChemName_Synonyms>


> <TS_CASRN>
96020-91-6

> <CASRN_ChemName_Relationship>
primary

> <TS_Description>
single chemical compound

> <ChemNote>
parent [70052-12-9]

> <STRUCTURE_Shown>
tested chemical

> <STRUCTURE_Formula>
C6H13ClF2N2O2

> <STRUCTURE_MW>
218.6294

> <STRUCTURE_ChemType>
defined organic

> <STRUCTURE_DefinedOrganicForm>
complex

> <STRUCTURE_IUPAC>
2-(difluoromethyl)ornithine hydrochloride (1:1)

> <STRUCTURE_SMILES>
Cl.FC(F)C(N)(CCCN)C(=O)O

> <STRUCTURE_SMILES_Desalt>
FC(F)C(N)(CCCN)C(=O)O

> <Substance_modify_yyyymmdd>
20110826

$$$$
