96036-03-2
ChemmineR-0915142007XD

 28 30  0  0  1  0  0  0  0  0  1 V2000
    3.4837   -3.1847    0.0000 N   0  0  0  0  0  0  0  0  0  0  0  0
    3.4837   -1.8328    0.0000 C   0  0  0  0  0  0  0  0  0  0  0  0
    2.0928   -3.1847    0.0000 C   0  0  0  0  0  0  0  0  0  0  0  0
    2.0928   -1.8328    0.0000 C   0  0  0  0  0  0  0  0  0  0  0  0
    4.7705   -3.5747    0.0000 C   0  0  0  0  0  0  0  0  0  0  0  0
    4.7835   -1.4299    0.0000 C   0  0  0  0  0  0  0  0  0  0  0  0
    5.5635   -2.4828    0.0000 C   0  0  0  0  0  0  0  0  0  0  0  0
    5.1995   -4.8875    0.0000 C   0  0  0  0  0  0  0  0  0  0  0  0
    1.3259   -4.0426    0.0000 O   0  0  0  0  0  0  0  0  0  0  0  0
    6.5514   -5.1865    0.0000 O   0  0  0  0  0  0  0  0  0  0  0  0
    4.3026   -5.9274    0.0000 O   0  0  0  0  0  0  0  0  0  0  0  0
    2.1188   -0.8319    0.0000 H   0  0  0  0  0  0  0  0  0  0  0  0
    3.4837   -0.8059    0.0000 H   0  0  0  0  0  0  0  0  0  0  0  0
    6.7723   -2.5088    0.0000 S   0  0  0  0  0  0  0  0  0  0  0  0
    5.1605   -0.2470    0.0000 C   0  0  0  0  0  0  0  0  0  0  0  0
    1.0529   -1.2089    0.0000 C   0  0  0  0  0  0  0  0  0  0  0  0
    1.0529    0.0000    0.0000 O   0  0  0  0  0  0  0  0  0  0  0  0
    0.0000   -1.8328    0.0000 C   0  0  0  0  0  0  0  0  0  0  0  0
    7.4353   -3.6526    0.0000 C   0  0  0  0  0  0  0  0  0  0  0  0
    8.7611   -3.6526    0.0000 C   0  0  0  0  0  0  0  0  0  0  0  0
    7.0323   -4.9135    0.0000 C   0  0  0  0  0  0  0  0  0  0  0  0
    9.1381   -4.9135    0.0000 C   0  0  0  0  0  0  0  0  0  0  0  0
    8.0982   -5.6804    0.0000 N   0  0  0  0  0  0  0  0  0  0  0  0
   10.6720   -4.9915    0.0000 C   0  0  0  0  0  0  0  0  0  0  0  0
   11.4519   -6.3434    0.0000 N   0  0  0  0  0  0  0  0  0  0  0  0
   11.4519   -3.6526    0.0000 O   0  0  0  0  0  0  0  0  0  0  0  0
   10.6720   -7.6822    0.0000 C   0  0  0  0  0  0  0  0  0  0  0  0
   12.9987   -6.3434    0.0000 C   0  0  0  0  0  0  0  0  0  0  0  0
  1  2  1  0  0  0  0
  1  3  1  0  0  0  0
  1  5  1  0  0  0  0
  2  6  1  0  0  0  0
  2 13  1  6  0  0  0
  2  4  1  0  0  0  0
  3  4  1  0  0  0  0
  3  9  2  0  0  0  0
  4 12  1  1  0  0  0
  4 16  1  0  0  0  0
  5  7  2  0  0  0  0
  5  8  1  0  0  0  0
  6  7  1  0  0  0  0
  6 15  1  1  0  0  0
  7 14  1  0  0  0  0
  8 10  2  0  0  0  0
  8 11  1  0  0  0  0
 19 14  1  1  0  0  0
 16 17  1  1  0  0  0
 16 18  1  0  0  0  0
 19 20  1  0  0  0  0
 19 21  1  0  0  0  0
 20 22  1  0  0  0  0
 21 23  1  0  0  0  0
 22 23  1  0  0  0  0
 22 24  1  1  0  0  0
 24 25  1  0  0  0  0
 24 26  2  0  0  0  0
 25 27  1  0  0  0  0
 25 28  1  0  0  0  0
M  END
> <ID>
10998

> <Formula>
C17H25N3O5S

> <FW>
383.4625

> <DSSTox_CID>
25526

> <DSSTox_RID>
80930

> <DSSTox_GSID>
45526

> <DSSTox_FileID_Sort>
5611

> <TS_ChemName>
Meropenem

> <TS_ChemName_Synonyms>


> <TS_CASRN>
96036-03-2

> <CASRN_ChemName_Relationship>
primary

> <TS_Description>
single chemical compound

> <ChemNote>
stereochem

> <STRUCTURE_Shown>
tested chemical

> <STRUCTURE_Formula>
C17H25N3O5S

> <STRUCTURE_MW>
383.4625

> <STRUCTURE_ChemType>
defined organic

> <STRUCTURE_DefinedOrganicForm>
parent

> <STRUCTURE_IUPAC>
(4R,5S,6S)-3-{[(3S,5S)-5-(dimethylcarbamoyl)pyrrolidin-3-yl]sulfanyl}-6-[(1R)-1-hydroxyethyl]-4-methyl-7-oxo-1-azabicyclo[3.2.0]hept-2-ene-2-carboxylic acid

> <STRUCTURE_SMILES>
O[C@H](C)[C@H]3C(=O)N2C(=C(S[C@H]1C[C@H](NC1)C(=O)N(C)C)[C@H](C)[C@@H]23)C(=O)O

> <STRUCTURE_SMILES_Desalt>
O[C@H](C)[C@H]3C(=O)N2C(=C(S[C@H]1C[C@H](NC1)C(=O)N(C)C)[C@H](C)[C@@H]23)C(=O)O

> <Substance_modify_yyyymmdd>
20100107

$$$$
