962-58-3
ChemmineR-0915142007XD

 19 19  0  0  0  0  0  0  0  0  1 V2000
    3.4625   -3.3173    0.0000 P   0  0  0  0  0  0  0  0  0  0  0  0
    4.1259   -2.1563    0.0000 O   0  0  0  0  0  0  0  0  0  0  0  0
    2.3014   -2.6331    0.0000 O   0  0  0  0  0  0  0  0  0  0  0  0
    2.7886   -4.4680    0.0000 O   0  0  0  0  0  0  0  0  0  0  0  0
    4.6235   -3.9704    0.0000 O   0  0  0  0  0  0  0  0  0  0  0  0
    1.1403   -3.3173    0.0000 C   0  0  0  0  0  0  0  0  0  0  0  0
    0.0000   -2.6331    0.0000 C   0  0  0  0  0  0  0  0  0  0  0  0
    3.4625   -5.5980    0.0000 C   0  0  0  0  0  0  0  0  0  0  0  0
    4.7790   -5.5980    0.0000 C   0  0  0  0  0  0  0  0  0  0  0  0
    8.0653   -1.9800    0.0000 N   0  0  0  0  0  0  0  0  0  0  0  0
    6.9042   -3.9704    0.0000 N   0  0  0  0  0  0  0  0  0  0  0  0
    8.0653   -3.3173    0.0000 C   0  0  0  0  0  0  0  0  0  0  0  0
    5.7431   -1.9800    0.0000 C   0  0  0  0  0  0  0  0  0  0  0  0
    6.9042   -1.3166    0.0000 C   0  0  0  0  0  0  0  0  0  0  0  0
    5.7431   -3.3173    0.0000 C   0  0  0  0  0  0  0  0  0  0  0  0
    6.9042    0.0000    0.0000 C   0  0  0  0  0  0  0  0  0  0  0  0
    9.2263   -3.9704    0.0000 C   0  0  0  0  0  0  0  0  0  0  0  0
   10.3667   -3.3173    0.0000 C   0  0  0  0  0  0  0  0  0  0  0  0
    9.2263   -5.3077    0.0000 C   0  0  0  0  0  0  0  0  0  0  0  0
  1  2  2  0  0  0  0
  1  3  1  0  0  0  0
  1  4  1  0  0  0  0
  1  5  1  0  0  0  0
  3  6  1  0  0  0  0
  4  8  1  0  0  0  0
  5 15  1  0  0  0  0
  6  7  1  0  0  0  0
  8  9  1  0  0  0  0
 10 12  2  0  0  0  0
 10 14  1  0  0  0  0
 11 12  1  0  0  0  0
 11 15  2  0  0  0  0
 12 17  1  0  0  0  0
 13 14  2  0  0  0  0
 13 15  1  0  0  0  0
 14 16  1  0  0  0  0
 17 18  1  0  0  0  0
 17 19  1  0  0  0  0
M  END
> <ID>
7320

> <Formula>
C12H21N2O4P

> <FW>
288.2799

> <DSSTox_CID>
17523

> <DSSTox_RID>
79329

> <DSSTox_GSID>
37523

> <DSSTox_FileID_Sort>
4011

> <TS_ChemName>
Diazoxon

> <TS_ChemName_Synonyms>
Diazoxon (Diazinon oxon)

> <TS_CASRN>
962-58-3

> <CASRN_ChemName_Relationship>
primary

> <TS_Description>
single chemical compound

> <ChemNote>


> <STRUCTURE_Shown>
tested chemical

> <STRUCTURE_Formula>
C12H21N2O4P

> <STRUCTURE_MW>
288.2799

> <STRUCTURE_ChemType>
defined organic

> <STRUCTURE_DefinedOrganicForm>
parent

> <STRUCTURE_IUPAC>
diethyl 6-methyl-2-(propan-2-yl)pyrimidin-4-yl phosphate

> <STRUCTURE_SMILES>
Cc1cc(OP(=O)(OCC)OCC)nc(n1)C(C)C

> <STRUCTURE_SMILES_Desalt>
Cc1cc(OP(=O)(OCC)OCC)nc(n1)C(C)C

> <Substance_modify_yyyymmdd>
20080429

$$$$
