963-39-3
ChemmineR-0915142007XD

 20 22  0  0  0  0  0  0  0  0  2 V2000
    3.5127   -3.9779    0.0000 C    0  0  0  0  0  0  0  0  0  0  0  0
    3.5127   -2.6519    0.0000 C    0  0  0  0  0  0  0  0  0  0  0  0
    2.2952   -4.5362    0.0000 C    0  0  0  0  0  0  0  0  0  0  0  0
    4.5440   -4.7921    0.0000 N    0  3  0  0  0  0  0  0  0  0  0  0
    4.5440   -1.8067    0.0000 C    0  0  0  0  0  0  0  0  0  0  0  0
    2.2642   -2.1557    0.0000 C    0  0  0  0  0  0  0  0  0  0  0  0
    2.2952   -5.8622    0.0000 C    0  0  0  0  0  0  0  0  0  0  0  0
    1.1476   -3.8771    0.0000 C    0  0  0  0  0  0  0  0  0  0  0  0
    5.8389   -4.5052    0.0000 C    0  0  0  0  0  0  0  0  0  0  0  0
    4.2416   -6.0793    0.0000 O    0  5  0  0  0  0  0  0  0  0  0  0
    5.8389   -2.1091    0.0000 N    0  0  0  0  0  0  0  0  0  0  0  0
    4.3424   -0.4963    0.0000 C    0  0  0  0  0  0  0  0  0  0  0  0
    2.0549   -0.8297    0.0000 C    0  0  0  0  0  0  0  0  0  0  0  0
    1.1476   -6.5446    0.0000 C    0  0  0  0  0  0  0  0  0  0  0  0
    0.0000   -4.5362    0.0000 C    0  0  0  0  0  0  0  0  0  0  0  0
    6.4127   -3.3033    0.0000 C    0  0  0  0  0  0  0  0  0  0  0  0
    3.1094    0.0000    0.0000 C    0  0  0  0  0  0  0  0  0  0  0  0
    0.8297   -0.3412    0.0000 Cl   0  0  0  0  0  0  0  0  0  0  0  0
    0.0000   -5.8622    0.0000 C    0  0  0  0  0  0  0  0  0  0  0  0
    7.7542   -3.3033    0.0000 O    0  0  0  0  0  0  0  0  0  0  0  0
  1  2  1  0  0  0  0
  1  3  1  0  0  0  0
  1  4  2  0  0  0  0
  2  5  2  0  0  0  0
  2  6  1  0  0  0  0
  3  7  1  0  0  0  0
  3  8  2  0  0  0  0
  4  9  1  0  0  0  0
  4 10  1  0  0  0  0
  5 11  1  0  0  0  0
  5 12  1  0  0  0  0
  6 13  2  0  0  0  0
  7 14  2  0  0  0  0
  8 15  1  0  0  0  0
  9 16  1  0  0  0  0
 11 16  1  0  0  0  0
 12 17  2  0  0  0  0
 13 18  1  0  0  0  0
 13 17  1  0  0  0  0
 14 19  1  0  0  0  0
 15 19  2  0  0  0  0
 16 20  2  0  0  0  0
M  END
> <ID>
11454

> <Formula>
C15H11ClN2O2

> <FW>
286.713

> <DSSTox_CID>
26155

> <DSSTox_RID>
81386

> <DSSTox_GSID>
46155

> <DSSTox_FileID_Sort>
6067

> <TS_ChemName>
Demoxepam

> <TS_ChemName_Synonyms>


> <TS_CASRN>
963-39-3

> <CASRN_ChemName_Relationship>
primary

> <TS_Description>
single chemical compound

> <ChemNote>
ammonium

> <STRUCTURE_Shown>
tested chemical

> <STRUCTURE_Formula>
C15H11ClN2O2

> <STRUCTURE_MW>
286.713

> <STRUCTURE_ChemType>
defined organic

> <STRUCTURE_DefinedOrganicForm>
parent

> <STRUCTURE_IUPAC>
7-chloro-5-phenyl-1,3-dihydro-2H-1,4-benzodiazepin-2-one 4-oxide

> <STRUCTURE_SMILES>
Clc1ccc2NC(=O)C[N+]([O-])=C(c2c1)c3ccccc3

> <STRUCTURE_SMILES_Desalt>
Clc1ccc2NC(=O)C[N+](O)=C(c2c1)c3ccccc3

> <Substance_modify_yyyymmdd>
20110817

$$$$
