964-52-3
ChemmineR-0915142007XD

 21 20  0  0  0  0  0  0  0  0  1 V2000
    3.4614   -1.9977    0.0000 C    0  0  0  0  0  0  0  0  0  0  0  0
    5.7629   -1.9977    0.0000 C    0  0  0  0  0  0  0  0  0  0  0  0
    4.6122   -1.3256    0.0000 C    0  0  0  0  0  0  0  0  0  0  0  0
    3.4614   -3.3325    0.0000 C    0  0  0  0  0  0  0  0  0  0  0  0
    5.7629   -3.3325    0.0000 C    0  0  0  0  0  0  0  0  0  0  0  0
    4.6122   -3.9862    0.0000 C    0  0  0  0  0  0  0  0  0  0  0  0
    6.9136   -1.3256    0.0000 O    0  0  0  0  0  0  0  0  0  0  0  0
    8.0552   -1.9977    0.0000 C    0  0  0  0  0  0  0  0  0  0  0  0
    9.2059   -1.3256    0.0000 O    0  0  0  0  0  0  0  0  0  0  0  0
    2.3015   -1.3256    0.0000 C    0  0  0  0  0  0  0  0  0  0  0  0
    2.3015   -3.9862    0.0000 O    0  0  0  0  0  0  0  0  0  0  0  0
    1.1507   -7.3187    0.0000 N    0  0  0  0  0  0  0  0  0  0  0  0
    2.3015   -5.3118    0.0000 C    0  0  0  0  0  0  0  0  0  0  0  0
    6.9136   -3.9862    0.0000 C    0  0  0  0  0  0  0  0  0  0  0  0
    8.0552   -3.3325    0.0000 C    0  0  0  0  0  0  0  0  0  0  0  0
    1.1507   -5.9838    0.0000 C    0  0  0  0  0  0  0  0  0  0  0  0
    2.3015   -7.9723    0.0000 C    0  0  0  0  0  0  0  0  0  0  0  0
    0.0000   -7.9723    0.0000 C    0  0  0  0  0  0  0  0  0  0  0  0
    1.1507   -1.9977    0.0000 C    0  0  0  0  0  0  0  0  0  0  0  0
    2.3015    0.0000    0.0000 C    0  0  0  0  0  0  0  0  0  0  0  0
    9.0770   -6.1127    0.0000 Cl   0  0  0  0  0  0  0  0  0  0  0  0
  1  3  1  0  0  0  0
  1  4  2  0  0  0  0
  1 10  1  0  0  0  0
  2  3  2  0  0  0  0
  2  7  1  0  0  0  0
  2  5  1  0  0  0  0
  4  6  1  0  0  0  0
  4 11  1  0  0  0  0
  5  6  2  0  0  0  0
  5 14  1  0  0  0  0
  7  8  1  0  0  0  0
  8  9  2  0  0  0  0
  8 15  1  0  0  0  0
 10 19  1  0  0  0  0
 10 20  1  0  0  0  0
 11 13  1  0  0  0  0
 12 16  1  0  0  0  0
 12 17  1  0  0  0  0
 12 18  1  0  0  0  0
 13 16  1  0  0  0  0
M  END
> <ID>
12105

> <Formula>
C16H26ClNO3

> <FW>
315.8355 (279.3746+36.4609)

> <DSSTox_CID>
26946

> <DSSTox_RID>
82025

> <DSSTox_GSID>
46946

> <DSSTox_FileID_Sort>
6706

> <TS_ChemName>
Moxisylyte hydrochloride

> <TS_ChemName_Synonyms>
Moxisylyte hydrochoride

> <TS_CASRN>
964-52-3

> <CASRN_ChemName_Relationship>
primary

> <TS_Description>
single chemical compound

> <ChemNote>
parent [54-32-0]

> <STRUCTURE_Shown>
tested chemical

> <STRUCTURE_Formula>
C16H26ClNO3

> <STRUCTURE_MW>
315.8355

> <STRUCTURE_ChemType>
defined organic

> <STRUCTURE_DefinedOrganicForm>
complex

> <STRUCTURE_IUPAC>
4-[2-(dimethylamino)ethoxy]-2-methyl-5-(propan-2-yl)phenyl acetate hydrochloride (1:1)

> <STRUCTURE_SMILES>
Cl.CC(=O)Oc1cc(C(C)C)c(OCCN(C)C)cc1C

> <STRUCTURE_SMILES_Desalt>
CC(=O)Oc1cc(C(C)C)c(OCCN(C)C)cc1C

> <Substance_modify_yyyymmdd>
20100107

$$$$
