96489-71-3
ChemmineR-0915142007XD

 24 25  0  0  0  0  0  0  0  0  1 V2000
    3.3396   -3.6331    0.0000 N    0  0  0  0  0  0  0  0  0  0  0  0
    2.6549   -2.4873    0.0000 N    0  0  0  0  0  0  0  0  0  0  0  0
    3.3396   -1.3275    0.0000 C    0  0  0  0  0  0  0  0  0  0  0  0
    4.6671   -3.6331    0.0000 C    0  0  0  0  0  0  0  0  0  0  0  0
    4.6671   -1.3275    0.0000 C    0  0  0  0  0  0  0  0  0  0  0  0
    5.3238   -2.4873    0.0000 C    0  0  0  0  0  0  0  0  0  0  0  0
    2.6549   -0.1817    0.0000 O    0  0  0  0  0  0  0  0  0  0  0  0
    5.3238   -0.1817    0.0000 Cl   0  0  0  0  0  0  0  0  0  0  0  0
    1.3275   -2.4873    0.0000 C    0  0  0  0  0  0  0  0  0  0  0  0
    1.3275   -3.8147    0.0000 C    0  0  0  0  0  0  0  0  0  0  0  0
    1.3275   -1.1598    0.0000 C    0  0  0  0  0  0  0  0  0  0  0  0
    0.0000   -2.4873    0.0000 C    0  0  0  0  0  0  0  0  0  0  0  0
    6.6513   -2.4873    0.0000 S    0  0  0  0  0  0  0  0  0  0  0  0
    7.3220   -1.3275    0.0000 C    0  0  0  0  0  0  0  0  0  0  0  0
    8.6495   -1.3275    0.0000 C    0  0  0  0  0  0  0  0  0  0  0  0
    9.3062   -0.1817    0.0000 C    0  0  0  0  0  0  0  0  0  0  0  0
    9.3062   -2.4873    0.0000 C    0  0  0  0  0  0  0  0  0  0  0  0
   10.6337   -0.1817    0.0000 C    0  0  0  0  0  0  0  0  0  0  0  0
   10.6337   -2.4873    0.0000 C    0  0  0  0  0  0  0  0  0  0  0  0
   11.3184   -1.3275    0.0000 C    0  0  0  0  0  0  0  0  0  0  0  0
   12.6459   -1.3275    0.0000 C    0  0  0  0  0  0  0  0  0  0  0  0
   12.6459    0.0000    0.0000 C    0  0  0  0  0  0  0  0  0  0  0  0
   12.6459   -2.6549    0.0000 C    0  0  0  0  0  0  0  0  0  0  0  0
   13.9733   -1.3275    0.0000 C    0  0  0  0  0  0  0  0  0  0  0  0
  1  2  1  0  0  0  0
  1  4  2  0  0  0  0
  2  3  1  0  0  0  0
  2  9  1  0  0  0  0
  3  5  1  0  0  0  0
  3  7  2  0  0  0  0
  4  6  1  0  0  0  0
  5  6  2  0  0  0  0
  5  8  1  0  0  0  0
  6 13  1  0  0  0  0
  9 10  1  0  0  0  0
  9 11  1  0  0  0  0
  9 12  1  0  0  0  0
 13 14  1  0  0  0  0
 14 15  1  0  0  0  0
 15 16  2  0  0  0  0
 15 17  1  0  0  0  0
 16 18  1  0  0  0  0
 17 19  2  0  0  0  0
 18 20  2  0  0  0  0
 19 20  1  0  0  0  0
 20 21  1  0  0  0  0
 21 22  1  0  0  0  0
 21 23  1  0  0  0  0
 21 24  1  0  0  0  0
M  END
> <ID>
6524

> <Formula>
C19H25ClN2OS

> <FW>
364.9326

> <DSSTox_CID>
12573

> <DSSTox_RID>
78991

> <DSSTox_GSID>
32573

> <DSSTox_FileID_Sort>
3673

> <TS_ChemName>
Pyridaben

> <TS_ChemName_Synonyms>
Pyridaben (3(2H)-Pyridazinone, 4-chloro-2-(1,1-dimethylethyl)-5-(((4-(1,1-dimethylethyl)phenyl)methyl)thio)-)

> <TS_CASRN>
96489-71-3

> <CASRN_ChemName_Relationship>
primary

> <TS_Description>
single chemical compound

> <ChemNote>


> <STRUCTURE_Shown>
tested chemical

> <STRUCTURE_Formula>
C19H25ClN2OS

> <STRUCTURE_MW>
364.9326

> <STRUCTURE_ChemType>
defined organic

> <STRUCTURE_DefinedOrganicForm>
parent

> <STRUCTURE_IUPAC>
2-tert-butyl-5-[(4-tert-butylbenzyl)sulfanyl]-4-chloropyridazin-3(2H)-one

> <STRUCTURE_SMILES>
CC(C)(C)N2N=CC(SCc1ccc(cc1)C(C)(C)C)=C(Cl)C2=O

> <STRUCTURE_SMILES_Desalt>
CC(C)(C)N2N=CC(SCc1ccc(cc1)C(C)(C)C)=C(Cl)C2=O

> <Substance_modify_yyyymmdd>
20080429

$$$$
