965-90-2
ChemmineR-0915142007XD

 25 28  0  0  1  0  0  0  0  0  1 V2000
    5.7644   -1.6949    0.0000 C   0  0  0  0  0  0  0  0  0  0  0  0
    5.7644   -3.0272    0.0000 C   0  0  0  0  0  0  0  0  0  0  0  0
    4.6133   -3.6979    0.0000 C   0  0  0  0  0  0  0  0  0  0  0  0
    3.4622   -3.0272    0.0000 C   0  0  0  0  0  0  0  0  0  0  0  0
    2.3021   -3.6979    0.0000 C   0  0  0  0  0  0  0  0  0  0  0  0
    7.0151   -1.2961    0.0000 C   0  0  0  0  0  0  0  0  0  0  0  0
    2.3021   -5.0302    0.0000 C   0  0  0  0  0  0  0  0  0  0  0  0
    4.6133   -1.0423    0.0000 C   0  0  0  0  0  0  0  0  0  0  0  0
    3.4622   -1.6949    0.0000 C   0  0  0  0  0  0  0  0  0  0  0  0
    7.0151   -3.4441    0.0000 C   0  0  0  0  0  0  0  0  0  0  0  0
    4.6133   -5.0302    0.0000 C   0  0  0  0  0  0  0  0  0  0  0  0
    3.4622   -5.7009    0.0000 C   0  0  0  0  0  0  0  0  0  0  0  0
    7.7946   -2.3384    0.0000 C   0  0  0  0  0  0  0  0  0  0  0  0
    1.1511   -5.7009    0.0000 C   0  0  0  0  0  0  0  0  0  0  0  0
    7.3052    0.0000    0.0000 O   0  0  0  0  0  0  0  0  0  0  0  0
    5.7644   -0.3716    0.0000 C   0  0  0  0  0  0  0  0  0  0  0  0
    1.1511   -3.0272    0.0000 C   0  0  0  0  0  0  0  0  0  0  0  0
    8.3565   -1.3595    0.0000 C   0  0  0  0  0  0  0  0  0  0  0  0
    0.0000   -5.0302    0.0000 C   0  0  0  0  0  0  0  0  0  0  0  0
    9.0635   -0.2266    0.0000 C   0  0  0  0  0  0  0  0  0  0  0  0
    0.0000   -3.6979    0.0000 C   0  0  0  0  0  0  0  0  0  0  0  0
    5.7644   -4.3595    0.0000 H   0  0  0  0  0  0  0  0  0  0  0  0
    4.6133   -2.3746    0.0000 H   0  0  0  0  0  0  0  0  0  0  0  0
    3.4622   -4.3595    0.0000 H   0  0  0  0  0  0  0  0  0  0  0  0
    2.3021   -2.3746    0.0000 H   0  0  0  0  0  0  0  0  0  0  0  0
  1  2  1  0  0  0  0
  1  6  1  0  0  0  0
  1  8  1  0  0  0  0
  1 16  1  1  0  0  0
  2  3  1  0  0  0  0
  2 10  1  0  0  0  0
  2 22  1  6  0  0  0
  3 11  1  0  0  0  0
  3  4  1  0  0  0  0
  3 23  1  1  0  0  0
  4  9  1  0  0  0  0
  4  5  1  0  0  0  0
  4 24  1  6  0  0  0
  5  7  1  0  0  0  0
  5 17  1  0  0  0  0
  5 25  1  1  0  0  0
  6 13  1  0  0  0  0
  6 15  1  0  0  0  0
  6 18  1  6  0  0  0
  7 14  2  0  0  0  0
  7 12  1  0  0  0  0
  8  9  1  0  0  0  0
 10 13  1  0  0  0  0
 11 12  1  0  0  0  0
 14 19  1  0  0  0  0
 17 21  1  0  0  0  0
 18 20  1  0  0  0  0
 19 21  1  0  0  0  0
M  END
> <ID>
2718

> <Formula>
C20H32O

> <FW>
288.4675

> <DSSTox_CID>
3024

> <DSSTox_RID>
76835

> <DSSTox_GSID>
23024

> <DSSTox_FileID_Sort>
1519

> <TS_ChemName>
Ethylestrenol

> <TS_ChemName_Synonyms>


> <TS_CASRN>
965-90-2

> <CASRN_ChemName_Relationship>
primary

> <TS_Description>
single chemical compound

> <ChemNote>
stereochem

> <STRUCTURE_Shown>
tested chemical

> <STRUCTURE_Formula>
C20H32O

> <STRUCTURE_MW>
288.4675

> <STRUCTURE_ChemType>
defined organic

> <STRUCTURE_DefinedOrganicForm>
parent

> <STRUCTURE_IUPAC>
(17beta)-17-ethylestr-4-en-17-ol

> <STRUCTURE_SMILES>
C[C@]32CC[C@@H]1[C@H]4CCCC=C4CC[C@H]1[C@@H]3CC[C@@]2(O)CC

> <STRUCTURE_SMILES_Desalt>
C[C@]32CC[C@@H]1[C@H]4CCCC=C4CC[C@H]1[C@@H]3CC[C@@]2(O)CC

> <Substance_modify_yyyymmdd>
20080429

$$$$
