965-52-6
ChemmineR-0915142007XD

 20 21  0  0  0  0  0  0  0  0  2 V2000
    0.0000   -5.6281    0.0000 O   0  0  0  0  0  0  0  0  0  0  0  0
    1.3312   -5.6149    0.0000 C   0  0  0  0  0  0  0  0  0  0  0  0
    1.9771   -4.4550    0.0000 C   0  0  0  0  0  0  0  0  0  0  0  0
    3.3083   -4.4419    0.0000 C   0  0  0  0  0  0  0  0  0  0  0  0
    3.9805   -5.6017    0.0000 C   0  0  0  0  0  0  0  0  0  0  0  0
    3.3215   -6.7485    0.0000 C   0  0  0  0  0  0  0  0  0  0  0  0
    2.0034   -6.7616    0.0000 C   0  0  0  0  0  0  0  0  0  0  0  0
    5.2986   -5.6149    0.0000 C   0  0  0  0  0  0  0  0  0  0  0  0
    5.9576   -6.7616    0.0000 O   0  0  0  0  0  0  0  0  0  0  0  0
    5.9708   -4.4419    0.0000 N   0  0  0  0  0  0  0  0  0  0  0  0
    7.3020   -4.4550    0.0000 N   0  0  0  0  0  0  0  0  0  0  0  0
    8.6333   -4.4550    0.0000 C   0  0  0  0  0  0  0  0  0  0  0  0
    9.2923   -3.3083    0.0000 C   0  0  0  0  0  0  0  0  0  0  0  0
    8.7519   -2.0957    0.0000 C   0  0  0  0  0  0  0  0  0  0  0  0
    9.7404   -1.1994    0.0000 C   0  0  0  0  0  0  0  0  0  0  0  0
   10.9003   -1.8716    0.0000 C   0  0  0  0  0  0  0  0  0  0  0  0
   10.6104   -3.1765    0.0000 O   0  0  0  0  0  0  0  0  0  0  0  0
   12.1129   -1.3312    0.0000 N   0  3  0  0  0  0  0  0  0  0  0  0
   12.2579    0.0000    0.0000 O   0  5  0  0  0  0  0  0  0  0  0  0
   13.1806   -2.1089    0.0000 O   0  0  0  0  0  0  0  0  0  0  0  0
  1  2  1  0  0  0  0
  2  3  2  0  0  0  0
  2  7  1  0  0  0  0
  3  4  1  0  0  0  0
  4  5  2  0  0  0  0
  5  6  1  0  0  0  0
  5  8  1  0  0  0  0
  6  7  2  0  0  0  0
  8  9  2  0  0  0  0
  8 10  1  0  0  0  0
 10 11  1  0  0  0  0
 11 12  2  0  0  0  0
 12 13  1  0  0  0  0
 13 14  2  0  0  0  0
 13 17  1  0  0  0  0
 14 15  1  0  0  0  0
 15 16  2  0  0  0  0
 16 17  1  0  0  0  0
 16 18  1  0  0  0  0
 18 19  1  0  0  0  0
 18 20  2  0  0  0  0
M  END
> <ID>
10881

> <Formula>
C12H9N3O5

> <FW>
275.217

> <DSSTox_CID>
25343

> <DSSTox_RID>
80811

> <DSSTox_GSID>
45343

> <DSSTox_FileID_Sort>
5492

> <TS_ChemName>
Nifuroxazide

> <TS_ChemName_Synonyms>


> <TS_CASRN>
965-52-6

> <CASRN_ChemName_Relationship>
primary

> <TS_Description>
single chemical compound

> <ChemNote>


> <STRUCTURE_Shown>
tested chemical

> <STRUCTURE_Formula>
C12H9N3O5

> <STRUCTURE_MW>
275.217

> <STRUCTURE_ChemType>
defined organic

> <STRUCTURE_DefinedOrganicForm>
parent

> <STRUCTURE_IUPAC>
4-hydroxy-N'-[(5-nitrofuran-2-yl)methylidene]benzohydrazide

> <STRUCTURE_SMILES>
O=[N+]([O-])c2ccc(\C=N/NC(=O)c1ccc(O)cc1)o2

> <STRUCTURE_SMILES_Desalt>
O=[N+]([O-])c2ccc(\C=N/NC(=O)c1ccc(O)cc1)o2

> <Substance_modify_yyyymmdd>
20100107

$$$$
