96686-51-0
ChemmineR-0915142007XD

 13 13  0  0  0  0  0  0  0  0  1 V2000
    5.7556   -1.9939    0.0000 C    0  0  0  0  0  0  0  0  0  0  0  0
    5.7556   -3.3258    0.0000 O    0  0  0  0  0  0  0  0  0  0  0  0
    6.9181   -1.3319    0.0000 C    0  0  0  0  0  0  0  0  0  0  0  0
    4.6174   -1.3319    0.0000 N    0  0  0  0  0  0  0  0  0  0  0  0
    8.0724   -1.9939    0.0000 Cl   0  0  0  0  0  0  0  0  0  0  0  0
    1.1544   -2.0100    0.0000 C    0  0  0  0  0  0  0  0  0  0  0  0
    1.1544   -3.3258    0.0000 C    0  0  0  0  0  0  0  0  0  0  0  0
    2.3168   -3.9878    0.0000 C    0  0  0  0  0  0  0  0  0  0  0  0
    3.4550   -3.3258    0.0000 C    0  0  0  0  0  0  0  0  0  0  0  0
    3.4550   -1.9939    0.0000 C    0  0  0  0  0  0  0  0  0  0  0  0
    2.3168   -1.3319    0.0000 C    0  0  0  0  0  0  0  0  0  0  0  0
    2.3168    0.0000    0.0000 C    0  0  0  0  0  0  0  0  0  0  0  0
    0.0000   -4.0039    0.0000 Br   0  0  0  0  0  0  0  0  0  0  0  0
  1  2  2  0  0  0  0
  1  4  1  0  0  0  0
  1  3  1  0  0  0  0
  3  5  1  0  0  0  0
  4 10  1  0  0  0  0
  6 11  2  0  0  0  0
  6  7  1  0  0  0  0
  7  8  2  0  0  0  0
  7 13  1  0  0  0  0
  8  9  1  0  0  0  0
  9 10  2  0  0  0  0
 10 11  1  0  0  0  0
 11 12  1  0  0  0  0
M  END
> <ID>
8377

> <Formula>
C9H9BrClNO

> <FW>
262.5309

> <DSSTox_CID>
21411

> <DSSTox_RID>
79718

> <DSSTox_GSID>
41411

> <DSSTox_FileID_Sort>
4400

> <TS_ChemName>
2-Chloro-N-(2-methyl-4-bromophenyl)acetamide

> <TS_ChemName_Synonyms>


> <TS_CASRN>
96686-51-0

> <CASRN_ChemName_Relationship>
primary

> <TS_Description>
single chemical compound

> <ChemNote>


> <STRUCTURE_Shown>
tested chemical

> <STRUCTURE_Formula>
C9H9BrClNO

> <STRUCTURE_MW>
262.5309

> <STRUCTURE_ChemType>
defined organic

> <STRUCTURE_DefinedOrganicForm>
parent

> <STRUCTURE_IUPAC>
N-(4-bromo-2-methylphenyl)-2-chloroacetamide

> <STRUCTURE_SMILES>
Brc1cc(C)c(NC(=O)CCl)cc1

> <STRUCTURE_SMILES_Desalt>
Brc1cc(C)c(NC(=O)CCl)cc1

> <Substance_modify_yyyymmdd>
20080825

$$$$
