96744-75-1
ChemmineR-0915142007XD

 26 29  0  0  1  0  0  0  0  0  1 V2000
    4.2609   -1.5025    0.0000 C   0  0  0  0  0  0  0  0  0  0  0  0
    4.2609   -2.8369    0.0000 C   0  0  0  0  0  0  0  0  0  0  0  0
    3.0948   -0.8298    0.0000 C   0  0  0  0  0  0  0  0  0  0  0  0
    3.0948   -3.4984    0.0000 C   0  0  0  0  0  0  0  0  0  0  0  0
    1.9398   -1.5025    0.0000 C   0  0  0  0  0  0  0  0  0  0  0  0
    1.9398   -2.8369    0.0000 C   0  0  0  0  0  0  0  0  0  0  0  0
    0.0000   -1.1437    0.0000 C   0  0  0  0  0  0  0  0  0  0  0  0
    0.9082   -2.1529    0.0000 O   0  0  0  0  0  0  0  0  0  0  0  0
    0.6728    0.0000    0.0000 C   0  0  0  0  0  0  0  0  0  0  0  0
    1.9847   -0.2803    0.0000 C   0  0  0  0  0  0  0  0  0  0  0  0
    3.0948   -4.8440    0.0000 N   0  0  0  0  0  0  0  0  0  0  0  0
    4.1824   -5.6289    0.0000 C   0  0  0  0  0  0  0  0  0  0  0  0
    2.0183   -5.6289    0.0000 C   0  0  0  0  0  0  0  0  0  0  0  0
    3.7563   -6.9071    0.0000 C   0  0  0  0  0  0  0  0  0  0  0  0
    2.4220   -6.9071    0.0000 C   0  0  0  0  0  0  0  0  0  0  0  0
    5.4046   -3.4984    0.0000 N   0  0  0  0  0  0  0  0  0  0  0  0
    5.4046   -4.8440    0.0000 C   0  0  0  0  0  0  0  0  0  0  0  0
    6.5707   -2.8369    0.0000 C   0  0  0  0  0  0  0  0  0  0  0  0
    7.7257   -3.4984    0.0000 C   0  0  0  0  0  0  0  0  0  0  0  0
    8.8918   -2.8369    0.0000 C   0  0  0  0  0  0  0  0  0  0  0  0
    8.8918   -1.5025    0.0000 C   0  0  0  0  0  0  0  0  0  0  0  0
   10.0467   -3.4984    0.0000 C   0  0  0  0  0  0  0  0  0  0  0  0
   10.0467   -0.8298    0.0000 C   0  0  0  0  0  0  0  0  0  0  0  0
   11.2129   -2.8369    0.0000 C   0  0  0  0  0  0  0  0  0  0  0  0
   11.2129   -1.5025    0.0000 C   0  0  0  0  0  0  0  0  0  0  0  0
    6.5707   -1.5025    0.0000 O   0  0  0  0  0  0  0  0  0  0  0  0
  1  2  1  0  0  0  0
  1  3  1  0  0  0  0
  2  4  1  0  0  0  0
  2 16  1  6  0  0  0
  3  5  1  0  0  0  0
  4  6  1  0  0  0  0
  4 11  1  1  0  0  0
  5  6  1  0  0  0  0
  5  8  1  1  0  0  0
  5 10  1  0  0  0  0
  7  8  1  0  0  0  0
  7  9  1  0  0  0  0
  9 10  1  0  0  0  0
 11 12  1  0  0  0  0
 11 13  1  0  0  0  0
 12 14  1  0  0  0  0
 13 15  1  0  0  0  0
 14 15  1  0  0  0  0
 16 17  1  0  0  0  0
 16 18  1  0  0  0  0
 18 19  1  0  0  0  0
 18 26  2  0  0  0  0
 19 20  1  0  0  0  0
 20 21  1  0  0  0  0
 20 22  2  0  0  0  0
 21 23  2  0  0  0  0
 22 24  1  0  0  0  0
 23 25  1  0  0  0  0
 24 25  2  0  0  0  0
M  END
> <ID>
11609

> <Formula>
C22H32N2O2

> <FW>
356.5017

> <DSSTox_CID>
26326

> <DSSTox_RID>
81542

> <DSSTox_GSID>
46326

> <DSSTox_FileID_Sort>
6223

> <TS_ChemName>
U-69593

> <TS_ChemName_Synonyms>


> <TS_CASRN>
96744-75-1

> <CASRN_ChemName_Relationship>
primary

> <TS_Description>
single chemical compound

> <ChemNote>
stereochem

> <STRUCTURE_Shown>
tested chemical

> <STRUCTURE_Formula>
C22H32N2O2

> <STRUCTURE_MW>
356.5017

> <STRUCTURE_ChemType>
defined organic

> <STRUCTURE_DefinedOrganicForm>
parent

> <STRUCTURE_IUPAC>
N-methyl-2-phenyl-N-[(5R,7S,8S)-7-(pyrrolidin-1-yl)-1-oxaspiro[4.5]dec-8-yl]acetamide

> <STRUCTURE_SMILES>
O=C(Cc1ccccc1)N(C)[C@H]2CC[C@]4(C[C@@H]2N3CCCC3)CCCO4

> <STRUCTURE_SMILES_Desalt>
O=C(Cc1ccccc1)N(C)[C@H]2CC[C@]4(C[C@@H]2N3CCCC3)CCCO4

> <Substance_modify_yyyymmdd>
20110815

$$$$
