968-61-6
ChemmineR-0915142007XD

 22 24  0  0  0  0  0  0  0  0  1 V2000
    2.6461   -3.9971    0.0000 C   0  0  0  0  0  0  0  0  0  0  0  0
    1.3350   -3.9971    0.0000 C   0  0  0  0  0  0  0  0  0  0  0  0
    1.3350   -2.6621    0.0000 C   0  0  0  0  0  0  0  0  0  0  0  0
    1.3350   -5.3321    0.0000 C   0  0  0  0  0  0  0  0  0  0  0  0
    0.0000   -3.9971    0.0000 O   0  0  0  0  0  0  0  0  0  0  0  0
    2.4862   -2.0066    0.0000 C   0  0  0  0  0  0  0  0  0  0  0  0
    2.4862   -0.6875    0.0000 C   0  0  0  0  0  0  0  0  0  0  0  0
    1.3350    0.0000    0.0000 C   0  0  0  0  0  0  0  0  0  0  0  0
    0.1759   -0.6875    0.0000 C   0  0  0  0  0  0  0  0  0  0  0  0
    0.1759   -2.0066    0.0000 C   0  0  0  0  0  0  0  0  0  0  0  0
    0.1759   -6.0037    0.0000 C   0  0  0  0  0  0  0  0  0  0  0  0
    0.1759   -7.3387    0.0000 C   0  0  0  0  0  0  0  0  0  0  0  0
    1.3350   -7.9942    0.0000 C   0  0  0  0  0  0  0  0  0  0  0  0
    2.4862   -7.3387    0.0000 C   0  0  0  0  0  0  0  0  0  0  0  0
    2.4862   -6.0037    0.0000 C   0  0  0  0  0  0  0  0  0  0  0  0
    3.9811   -3.9971    0.0000 C   0  0  0  0  0  0  0  0  0  0  0  0
    5.3162   -3.9971    0.0000 C   0  0  0  0  0  0  0  0  0  0  0  0
    5.9877   -2.8539    0.0000 N   0  0  0  0  0  0  0  0  0  0  0  0
    7.2907   -2.6941    0.0000 C   0  0  0  0  0  0  0  0  0  0  0  0
    7.5785   -1.4150    0.0000 C   0  0  0  0  0  0  0  0  0  0  0  0
    6.4354   -0.7355    0.0000 C   0  0  0  0  0  0  0  0  0  0  0  0
    5.4441   -1.6388    0.0000 C   0  0  0  0  0  0  0  0  0  0  0  0
  1  2  1  0  0  0  0
  1 16  3  0  0  0  0
  2  3  1  0  0  0  0
  2  4  1  0  0  0  0
  2  5  1  0  0  0  0
  3 10  1  0  0  0  0
  3  6  2  0  0  0  0
  4 11  2  0  0  0  0
  4 15  1  0  0  0  0
  6  7  1  0  0  0  0
  7  8  2  0  0  0  0
  8  9  1  0  0  0  0
  9 10  2  0  0  0  0
 11 12  1  0  0  0  0
 12 13  2  0  0  0  0
 13 14  1  0  0  0  0
 14 15  2  0  0  0  0
 16 17  1  0  0  0  0
 17 18  1  0  0  0  0
 18 19  1  0  0  0  0
 18 22  1  0  0  0  0
 19 20  1  0  0  0  0
 20 21  1  0  0  0  0
 21 22  1  0  0  0  0
M  END
> <ID>
11587

> <Formula>
C20H21NO

> <FW>
291.3868

> <DSSTox_CID>
26295

> <DSSTox_RID>
81520

> <DSSTox_GSID>
46295

> <DSSTox_FileID_Sort>
6201

> <TS_ChemName>
Butinoline

> <TS_ChemName_Synonyms>


> <TS_CASRN>
968-61-6

> <CASRN_ChemName_Relationship>
primary

> <TS_Description>
single chemical compound

> <ChemNote>


> <STRUCTURE_Shown>
tested chemical

> <STRUCTURE_Formula>
C20H21NO

> <STRUCTURE_MW>
291.3868

> <STRUCTURE_ChemType>
defined organic

> <STRUCTURE_DefinedOrganicForm>
parent

> <STRUCTURE_IUPAC>
1,1-diphenyl-4-(pyrrolidin-1-yl)but-2-yn-1-ol

> <STRUCTURE_SMILES>
OC(C#CCN1CCCC1)(c2ccccc2)c3ccccc3

> <STRUCTURE_SMILES_Desalt>
OC(C#CCN1CCCC1)(c2ccccc2)c3ccccc3

> <Substance_modify_yyyymmdd>
20110815

$$$$
