96829-58-2
ChemmineR-0915142007XD

 35 35  0  0  1  0  0  0  0  0  1 V2000
    2.9301   -9.8620    0.0000 C   0  0  0  0  0  0  0  0  0  0  0  0
    1.9925   -8.9243    0.0000 C   0  0  0  0  0  0  0  0  0  0  0  0
    0.6697   -8.9243    0.0000 C   0  0  0  0  0  0  0  0  0  0  0  0
    0.0000   -7.7690    0.0000 C   0  0  0  0  0  0  0  0  0  0  0  0
    0.6697   -6.6137    0.0000 C   0  0  0  0  0  0  0  0  0  0  0  0
    0.0000   -5.4584    0.0000 C   0  0  0  0  0  0  0  0  0  0  0  0
    0.6697   -4.3199    0.0000 C   0  0  0  0  0  0  0  0  0  0  0  0
    0.0000   -3.1645    0.0000 C   0  0  0  0  0  0  0  0  0  0  0  0
    2.9301   -7.9700    0.0000 C   0  0  0  0  0  0  0  0  0  0  0  0
    2.9301   -6.6472    0.0000 C   0  0  0  0  0  0  0  0  0  0  0  0
    4.0854   -5.9775    0.0000 C   0  0  0  0  0  0  0  0  0  0  0  0
    4.0854   -4.6547    0.0000 O   0  0  0  0  0  0  0  0  0  0  0  0
    5.2408   -3.9850    0.0000 C   0  0  0  0  0  0  0  0  0  0  0  0
    6.3793   -4.6547    0.0000 O   0  0  0  0  0  0  0  0  0  0  0  0
    5.2408   -2.6622    0.0000 C   0  0  0  0  0  0  0  0  0  0  0  0
    4.0854   -1.9925    0.0000 C   0  0  0  0  0  0  0  0  0  0  0  0
    4.0854   -0.6697    0.0000 C   0  0  0  0  0  0  0  0  0  0  0  0
    2.9301    0.0000    0.0000 C   0  0  0  0  0  0  0  0  0  0  0  0
    5.2408    0.0000    0.0000 C   0  0  0  0  0  0  0  0  0  0  0  0
    6.3793   -1.9925    0.0000 N   0  0  0  0  0  0  0  0  0  0  0  0
    6.3793   -0.6697    0.0000 C   0  0  0  0  0  0  0  0  0  0  0  0
    7.5346    0.0000    0.0000 O   0  0  0  0  0  0  0  0  0  0  0  0
    5.2408   -6.6472    0.0000 C   0  0  0  0  0  0  0  0  0  0  0  0
    6.3793   -5.9775    0.0000 C   0  0  0  0  0  0  0  0  0  0  0  0
    7.5346   -6.6472    0.0000 C   0  0  0  0  0  0  0  0  0  0  0  0
    8.6899   -5.9775    0.0000 C   0  0  0  0  0  0  0  0  0  0  0  0
    9.8452   -6.6472    0.0000 C   0  0  0  0  0  0  0  0  0  0  0  0
   10.9838   -5.9775    0.0000 C   0  0  0  0  0  0  0  0  0  0  0  0
   12.1391   -6.6472    0.0000 C   0  0  0  0  0  0  0  0  0  0  0  0
   13.2944   -5.9775    0.0000 C   0  0  0  0  0  0  0  0  0  0  0  0
   14.4497   -6.6472    0.0000 C   0  0  0  0  0  0  0  0  0  0  0  0
   15.5883   -5.9775    0.0000 C   0  0  0  0  0  0  0  0  0  0  0  0
   16.7436   -6.6472    0.0000 C   0  0  0  0  0  0  0  0  0  0  0  0
    3.8678   -8.9243    0.0000 O   0  0  0  0  0  0  0  0  0  0  0  0
    2.9301  -11.1847    0.0000 O   0  0  0  0  0  0  0  0  0  0  0  0
  1  2  1  0  0  0  0
  1 34  1  0  0  0  0
  1 35  2  0  0  0  0
  2  3  1  1  0  0  0
  2  9  1  0  0  0  0
  3  4  1  0  0  0  0
  4  5  1  0  0  0  0
  5  6  1  0  0  0  0
  6  7  1  0  0  0  0
  7  8  1  0  0  0  0
  9 10  1  6  0  0  0
  9 34  1  0  0  0  0
 10 11  1  0  0  0  0
 11 12  1  1  0  0  0
 11 23  1  0  0  0  0
 12 13  1  0  0  0  0
 13 14  2  0  0  0  0
 13 15  1  0  0  0  0
 15 16  1  0  0  0  0
 15 20  1  0  0  0  0
 16 17  1  0  0  0  0
 17 18  1  0  0  0  0
 17 19  1  0  0  0  0
 20 21  1  0  0  0  0
 21 22  2  0  0  0  0
 23 24  1  0  0  0  0
 24 25  1  0  0  0  0
 25 26  1  0  0  0  0
 26 27  1  0  0  0  0
 27 28  1  0  0  0  0
 28 29  1  0  0  0  0
 29 30  1  0  0  0  0
 30 31  1  0  0  0  0
 31 32  1  0  0  0  0
 32 33  1  0  0  0  0
M  END
> <ID>
3044

> <Formula>
C29H53NO5

> <FW>
495.7348

> <DSSTox_CID>
3395

> <DSSTox_RID>
77012

> <DSSTox_GSID>
23395

> <DSSTox_FileID_Sort>
1696

> <TS_ChemName>
Orlistat

> <TS_ChemName_Synonyms>


> <TS_CASRN>
96829-58-2

> <CASRN_ChemName_Relationship>
primary

> <TS_Description>
single chemical compound

> <ChemNote>
stereochem

> <STRUCTURE_Shown>
tested chemical

> <STRUCTURE_Formula>
C29H53NO5

> <STRUCTURE_MW>
495.7348

> <STRUCTURE_ChemType>
defined organic

> <STRUCTURE_DefinedOrganicForm>
parent

> <STRUCTURE_IUPAC>
(2S)-1-[(2S,3S)-3-hexyl-4-oxooxetan-2-yl]tridecan-2-yl N-formylleucinate

> <STRUCTURE_SMILES>
O=C(O[C@H](C[C@@H]1OC(=O)[C@H]1CCCCCC)CCCCCCCCCCC)C(CC(C)C)NC=O

> <STRUCTURE_SMILES_Desalt>
O=C(O[C@H](C[C@@H]1OC(=O)[C@H]1CCCCCC)CCCCCCCCCCC)C(CC(C)C)NC=O

> <Substance_modify_yyyymmdd>
20080429

$$$$
