96850-13-4
ChemmineR-0915142007XD

 20 21  0  0  1  0  0  0  0  0  1 V2000
    2.3062   -1.9372    0.0000 C    0  0  0  0  0  0  0  0  0  0  0  0
    2.3062   -3.2622    0.0000 C    0  0  0  0  0  0  0  0  0  0  0  0
    1.1489   -1.2663    0.0000 C    0  0  0  0  0  0  0  0  0  0  0  0
    1.1489   -3.9331    0.0000 C    0  0  0  0  0  0  0  0  0  0  0  0
    0.0000   -1.9372    0.0000 C    0  0  0  0  0  0  0  0  0  0  0  0
    0.0000   -3.2622    0.0000 C    0  0  0  0  0  0  0  0  0  0  0  0
    3.5725   -1.5347    0.0000 C    0  0  0  0  0  0  0  0  0  0  0  0
    4.3524   -2.5913    0.0000 C    0  0  0  0  0  0  0  0  0  0  0  0
    3.5725   -3.6648    0.0000 C    0  0  0  0  0  0  0  0  0  0  0  0
    3.9667   -0.2600    0.0000 N    0  0  0  0  0  0  0  0  0  0  0  0
    5.2833    0.0000    0.0000 C    0  0  0  0  0  0  0  0  0  0  0  0
    3.9667   -4.9479    0.0000 C    0  0  0  0  0  0  0  0  0  0  0  0
    5.3001   -4.9479    0.0000 C    0  0  0  0  0  0  0  0  0  0  0  0
    3.3126   -6.0968    0.0000 C    0  0  0  0  0  0  0  0  0  0  0  0
    5.9710   -6.0968    0.0000 C    0  0  0  0  0  0  0  0  0  0  0  0
    3.9667   -7.2541    0.0000 C    0  0  0  0  0  0  0  0  0  0  0  0
    5.3001   -7.2541    0.0000 C    0  0  0  0  0  0  0  0  0  0  0  0
    5.9710   -8.3862    0.0000 Cl   0  0  0  0  0  0  0  0  0  0  0  0
    7.2960   -6.0968    0.0000 Cl   0  0  0  0  0  0  0  0  0  0  0  0
    6.6586   -2.3817    0.0000 Cl   0  0  0  0  0  0  0  0  0  0  0  0
  1  3  2  0  0  0  0
  1  7  1  0  0  0  0
  1  2  1  0  0  0  0
  2  4  2  0  0  0  0
  2  9  1  0  0  0  0
  3  5  1  0  0  0  0
  4  6  1  0  0  0  0
  5  6  2  0  0  0  0
  7  8  1  0  0  0  0
  7 10  1  6  0  0  0
  8  9  1  0  0  0  0
  9 12  1  1  0  0  0
 10 11  1  0  0  0  0
 12 13  1  0  0  0  0
 12 14  2  0  0  0  0
 13 15  2  0  0  0  0
 14 16  1  0  0  0  0
 15 17  1  0  0  0  0
 15 19  1  0  0  0  0
 16 17  2  0  0  0  0
 17 18  1  0  0  0  0
M  END
> <ID>
9499

> <Formula>
C16H16Cl3N

> <FW>
328.6639 (292.2030+36.4609)

> <DSSTox_CID>
22631

> <DSSTox_RID>
80062

> <DSSTox_GSID>
42631

> <DSSTox_FileID_Sort>
4744

> <TS_ChemName>
Indatraline hydrochloride

> <TS_ChemName_Synonyms>


> <TS_CASRN>
96850-13-4

> <CASRN_ChemName_Relationship>
primary

> <TS_Description>
single chemical compound

> <ChemNote>
stereochem; parent [86939-10-8]

> <STRUCTURE_Shown>
tested chemical

> <STRUCTURE_Formula>
C16H16Cl3N

> <STRUCTURE_MW>
328.6639

> <STRUCTURE_ChemType>
defined organic

> <STRUCTURE_DefinedOrganicForm>
complex

> <STRUCTURE_IUPAC>
(1R,3S)-3-(3,4-dichlorophenyl)-N-methyl-2,3-dihydro-1H-inden-1-amine hydrochloride (1:1)

> <STRUCTURE_SMILES>
Cl.Clc1ccc(cc1Cl)[C@@H]3C[C@@H](NC)c2ccccc23

> <STRUCTURE_SMILES_Desalt>
Clc1ccc(cc1Cl)[C@@H]3C[C@@H](NC)c2ccccc23

> <Substance_modify_yyyymmdd>
20130911

$$$$
