97-17-6
ChemmineR-0915142007XD

 17 17  0  0  0  0  0  0  0  0  1 V2000
    3.4561   -2.3040    0.0000 P    0  0  0  0  0  0  0  0  0  0  0  0
    5.7601   -2.3040    0.0000 C    0  0  0  0  0  0  0  0  0  0  0  0
    4.5989   -1.6405    0.0000 O    0  0  0  0  0  0  0  0  0  0  0  0
    6.9121   -1.6405    0.0000 C    0  0  0  0  0  0  0  0  0  0  0  0
    4.1196   -3.4561    0.0000 S    0  0  0  0  0  0  0  0  0  0  0  0
    8.0641   -2.3040    0.0000 C    0  0  0  0  0  0  0  0  0  0  0  0
    5.7601   -3.6312    0.0000 C    0  0  0  0  0  0  0  0  0  0  0  0
    2.7833   -1.1520    0.0000 O    0  0  0  0  0  0  0  0  0  0  0  0
    2.2948   -2.9676    0.0000 O    0  0  0  0  0  0  0  0  0  0  0  0
    8.0641   -3.6312    0.0000 C    0  0  0  0  0  0  0  0  0  0  0  0
    6.9121   -0.3133    0.0000 Cl   0  0  0  0  0  0  0  0  0  0  0  0
    6.9121   -4.3039    0.0000 C    0  0  0  0  0  0  0  0  0  0  0  0
    9.2161   -4.3039    0.0000 Cl   0  0  0  0  0  0  0  0  0  0  0  0
    1.4562   -1.1520    0.0000 C    0  0  0  0  0  0  0  0  0  0  0  0
    1.1520   -2.3040    0.0000 C    0  0  0  0  0  0  0  0  0  0  0  0
    0.7926    0.0000    0.0000 C    0  0  0  0  0  0  0  0  0  0  0  0
    0.0000   -2.9676    0.0000 C    0  0  0  0  0  0  0  0  0  0  0  0
  1  3  1  0  0  0  0
  1  5  2  0  0  0  0
  1  8  1  0  0  0  0
  1  9  1  0  0  0  0
  2  3  1  0  0  0  0
  2  4  1  0  0  0  0
  2  7  2  0  0  0  0
  4  6  2  0  0  0  0
  4 11  1  0  0  0  0
  6 10  1  0  0  0  0
  7 12  1  0  0  0  0
  8 14  1  0  0  0  0
  9 15  1  0  0  0  0
 10 12  2  0  0  0  0
 10 13  1  0  0  0  0
 14 16  1  0  0  0  0
 15 17  1  0  0  0  0
M  END
> <ID>
7653

> <Formula>
C10H13Cl2O3PS

> <FW>
315.1532

> <DSSTox_CID>
20274

> <DSSTox_RID>
79465

> <DSSTox_GSID>
40274

> <DSSTox_FileID_Sort>
4147

> <TS_ChemName>
Dichlofenthion

> <TS_ChemName_Synonyms>


> <TS_CASRN>
97-17-6

> <CASRN_ChemName_Relationship>
primary

> <TS_Description>
single chemical compound

> <ChemNote>


> <STRUCTURE_Shown>
tested chemical

> <STRUCTURE_Formula>
C10H13Cl2O3PS

> <STRUCTURE_MW>
315.1532

> <STRUCTURE_ChemType>
defined organic

> <STRUCTURE_DefinedOrganicForm>
parent

> <STRUCTURE_IUPAC>
O-(2,4-dichlorophenyl) O,O-diethyl phosphorothioate

> <STRUCTURE_SMILES>
Clc1cc(Cl)ccc1OP(=S)(OCC)OCC

> <STRUCTURE_SMILES_Desalt>
Clc1cc(Cl)ccc1OP(=S)(OCC)OCC

> <Substance_modify_yyyymmdd>
20080429

$$$$
