97-32-5
ChemmineR-0915142007XD

 20 21  0  0  0  0  0  0  0  0  2 V2000
    5.9886   -3.4570    0.0000 C   0  0  0  0  0  0  0  0  0  0  0  0
    6.6481   -4.6058    0.0000 O   0  0  0  0  0  0  0  0  0  0  0  0
    6.6481   -2.2976    0.0000 N   0  0  0  0  0  0  0  0  0  0  0  0
    7.9777   -2.2976    0.0000 C   0  0  0  0  0  0  0  0  0  0  0  0
    8.6372   -1.1488    0.0000 C   0  0  0  0  0  0  0  0  0  0  0  0
    9.9669   -1.1488    0.0000 C   0  0  0  0  0  0  0  0  0  0  0  0
   10.6370   -2.2976    0.0000 C   0  0  0  0  0  0  0  0  0  0  0  0
    9.9669   -3.4570    0.0000 C   0  0  0  0  0  0  0  0  0  0  0  0
    8.6372   -3.4570    0.0000 C   0  0  0  0  0  0  0  0  0  0  0  0
    4.6590   -3.4570    0.0000 C   0  0  0  0  0  0  0  0  0  0  0  0
    3.9889   -4.6058    0.0000 C   0  0  0  0  0  0  0  0  0  0  0  0
    2.6592   -4.6058    0.0000 C   0  0  0  0  0  0  0  0  0  0  0  0
    1.9998   -3.4570    0.0000 C   0  0  0  0  0  0  0  0  0  0  0  0
    0.6701   -3.4570    0.0000 O   0  0  0  0  0  0  0  0  0  0  0  0
    0.0000   -4.6058    0.0000 C   0  0  0  0  0  0  0  0  0  0  0  0
    2.6592   -2.2976    0.0000 C   0  0  0  0  0  0  0  0  0  0  0  0
    3.9889   -2.2976    0.0000 C   0  0  0  0  0  0  0  0  0  0  0  0
    1.9998   -1.1488    0.0000 N   0  3  0  0  0  0  0  0  0  0  0  0
    0.6701   -1.1488    0.0000 O   0  0  0  0  0  0  0  0  0  0  0  0
    2.6592    0.0000    0.0000 O   0  5  0  0  0  0  0  0  0  0  0  0
  1  2  2  0  0  0  0
  1  3  1  0  0  0  0
  1 10  1  0  0  0  0
  3  4  1  0  0  0  0
  4  5  2  0  0  0  0
  4  9  1  0  0  0  0
  5  6  1  0  0  0  0
  6  7  2  0  0  0  0
  7  8  1  0  0  0  0
  8  9  2  0  0  0  0
 10 11  2  0  0  0  0
 10 17  1  0  0  0  0
 11 12  1  0  0  0  0
 12 13  2  0  0  0  0
 13 14  1  0  0  0  0
 13 16  1  0  0  0  0
 14 15  1  0  0  0  0
 16 17  2  0  0  0  0
 16 18  1  0  0  0  0
 18 19  2  0  0  0  0
 18 20  1  0  0  0  0
M  END
> <ID>
4265

> <Formula>
C14H12N2O4

> <FW>
272.2561

> <DSSTox_CID>
5558

> <DSSTox_RID>
77829

> <DSSTox_GSID>
25558

> <DSSTox_FileID_Sort>
2512

> <TS_ChemName>
4-Methoxy-3-nitro-N-phenylbenzamide

> <TS_ChemName_Synonyms>


> <TS_CASRN>
97-32-5

> <CASRN_ChemName_Relationship>
primary

> <TS_Description>
single chemical compound

> <ChemNote>


> <STRUCTURE_Shown>
tested chemical

> <STRUCTURE_Formula>
C14H12N2O4

> <STRUCTURE_MW>
272.2561

> <STRUCTURE_ChemType>
defined organic

> <STRUCTURE_DefinedOrganicForm>
parent

> <STRUCTURE_IUPAC>
4-methoxy-3-nitro-N-phenylbenzamide

> <STRUCTURE_SMILES>
COc1ccc(cc1[N+]([O-])=O)C(=O)Nc2ccccc2

> <STRUCTURE_SMILES_Desalt>
COc1ccc(cc1[N+]([O-])=O)C(=O)Nc2ccccc2

> <Substance_modify_yyyymmdd>
20080429

$$$$
