97-30-3
ChemmineR-0915142007XD

 13 13  0  0  1  0  0  0  0  0  1 V2000
    3.9999   -2.3157    0.0000 C   0  0  0  0  0  0  0  0  0  0  0  0
    5.3292   -2.3157    0.0000 O   0  0  0  0  0  0  0  0  0  0  0  0
    3.3262   -3.4525    0.0000 C   0  0  0  0  0  0  0  0  0  0  0  0
    3.9999   -4.6375    0.0000 O   0  0  0  0  0  0  0  0  0  0  0  0
    1.9969   -3.4525    0.0000 C   0  0  0  0  0  0  0  0  0  0  0  0
    1.3594   -4.5893    0.0000 O   0  0  0  0  0  0  0  0  0  0  0  0
    1.3413   -2.3157    0.0000 C   0  0  0  0  0  0  0  0  0  0  0  0
    0.0301   -2.3037    0.0000 O   0  0  0  0  0  0  0  0  0  0  0  0
    2.0150   -1.1669    0.0000 C   0  0  0  0  0  0  0  0  0  0  0  0
    3.3443   -1.1669    0.0000 O   0  0  0  0  0  0  0  0  0  0  0  0
    1.3293    0.0000    0.0000 C   0  0  0  0  0  0  0  0  0  0  0  0
    0.0000    0.0000    0.0000 O   0  0  0  0  0  0  0  0  0  0  0  0
    6.0149   -1.1488    0.0000 C   0  0  0  0  0  0  0  0  0  0  0  0
  1  2  1  6  0  0  0
  1  3  1  0  0  0  0
  1 10  1  0  0  0  0
  2 13  1  0  0  0  0
  3  4  1  6  0  0  0
  3  5  1  0  0  0  0
  5  6  1  1  0  0  0
  5  7  1  0  0  0  0
  7  8  1  6  0  0  0
  7  9  1  0  0  0  0
  9 10  1  0  0  0  0
  9 11  1  1  0  0  0
 11 12  1  0  0  0  0
M  END
> <ID>
4735

> <Formula>
C7H14O6

> <FW>
194.1825

> <DSSTox_CID>
6605

> <DSSTox_RID>
78159

> <DSSTox_GSID>
26605

> <DSSTox_FileID_Sort>
2842

> <TS_ChemName>
Methyl alpha-D-glucopyranoside

> <TS_ChemName_Synonyms>


> <TS_CASRN>
97-30-3

> <CASRN_ChemName_Relationship>
primary

> <TS_Description>
single chemical compound

> <ChemNote>
stereochem

> <STRUCTURE_Shown>
tested chemical

> <STRUCTURE_Formula>
C7H14O6

> <STRUCTURE_MW>
194.1825

> <STRUCTURE_ChemType>
defined organic

> <STRUCTURE_DefinedOrganicForm>
parent

> <STRUCTURE_IUPAC>
methyl alpha-D-glucopyranoside

> <STRUCTURE_SMILES>
O[C@@H]1[C@@H](O)[C@H](O)[C@@H](CO)O[C@@H]1OC

> <STRUCTURE_SMILES_Desalt>
O[C@@H]1[C@@H](O)[C@H](O)[C@@H](CO)O[C@@H]1OC

> <Substance_modify_yyyymmdd>
20080429

$$$$
