97-36-9
ChemmineR-0915142007XD

 15 15  0  0  0  0  0  0  0  0  1 V2000
    5.7811   -2.0285    0.0000 C   0  0  0  0  0  0  0  0  0  0  0  0
    6.9429   -2.6739    0.0000 C   0  0  0  0  0  0  0  0  0  0  0  0
    8.0862   -2.0285    0.0000 C   0  0  0  0  0  0  0  0  0  0  0  0
    9.2203   -2.6739    0.0000 C   0  0  0  0  0  0  0  0  0  0  0  0
    5.7811   -0.6731    0.0000 O   0  0  0  0  0  0  0  0  0  0  0  0
    4.6378   -2.6739    0.0000 N   0  0  0  0  0  0  0  0  0  0  0  0
    2.3327   -0.0277    0.0000 C   0  0  0  0  0  0  0  0  0  0  0  0
    1.1710   -0.6731    0.0000 C   0  0  0  0  0  0  0  0  0  0  0  0
    1.1710   -2.0285    0.0000 C   0  0  0  0  0  0  0  0  0  0  0  0
    2.3051   -2.6739    0.0000 C   0  0  0  0  0  0  0  0  0  0  0  0
    3.4761   -2.0285    0.0000 C   0  0  0  0  0  0  0  0  0  0  0  0
    3.4761   -0.6731    0.0000 C   0  0  0  0  0  0  0  0  0  0  0  0
    4.6101    0.0000    0.0000 C   0  0  0  0  0  0  0  0  0  0  0  0
    0.0000   -0.0277    0.0000 C   0  0  0  0  0  0  0  0  0  0  0  0
    8.0862   -0.6731    0.0000 O   0  0  0  0  0  0  0  0  0  0  0  0
  1  2  1  0  0  0  0
  1  6  1  0  0  0  0
  1  5  2  0  0  0  0
  2  3  1  0  0  0  0
  3  4  1  0  0  0  0
  3 15  2  0  0  0  0
  6 11  1  0  0  0  0
  7 12  2  0  0  0  0
  7  8  1  0  0  0  0
  8  9  2  0  0  0  0
  8 14  1  0  0  0  0
  9 10  1  0  0  0  0
 10 11  2  0  0  0  0
 11 12  1  0  0  0  0
 12 13  1  0  0  0  0
M  END
> <ID>
7915

> <Formula>
C12H15NO2

> <FW>
205.253

> <DSSTox_CID>
20719

> <DSSTox_RID>
79566

> <DSSTox_GSID>
40719

> <DSSTox_FileID_Sort>
4248

> <TS_ChemName>
Butanamide, N-(2,4-dimethylphenyl)-3-oxo-

> <TS_ChemName_Synonyms>


> <TS_CASRN>
97-36-9

> <CASRN_ChemName_Relationship>
primary

> <TS_Description>
single chemical compound

> <ChemNote>


> <STRUCTURE_Shown>
tested chemical

> <STRUCTURE_Formula>
C12H15NO2

> <STRUCTURE_MW>
205.253

> <STRUCTURE_ChemType>
defined organic

> <STRUCTURE_DefinedOrganicForm>
parent

> <STRUCTURE_IUPAC>
N-(2,4-dimethylphenyl)-3-oxobutanamide

> <STRUCTURE_SMILES>
O=C(Nc1ccc(C)cc1C)CC(C)=O

> <STRUCTURE_SMILES_Desalt>
O=C(Nc1ccc(C)cc1C)CC(C)=O

> <Substance_modify_yyyymmdd>
20080429

$$$$
