97-44-9
ChemmineR-0915142007XD

 15 15  0  0  0  0  0  0  0  0  1 V2000
    0.0000   -2.6612    0.0000 C    0  0  0  0  0  0  0  0  0  0  0  0
    1.1532   -1.9999    0.0000 C    0  0  0  0  0  0  0  0  0  0  0  0
    1.1532   -0.6693    0.0000 O    0  0  0  0  0  0  0  0  0  0  0  0
    2.3064   -2.6612    0.0000 N    0  0  0  0  0  0  0  0  0  0  0  0
    3.4596   -1.9999    0.0000 C    0  0  0  0  0  0  0  0  0  0  0  0
    3.4596   -0.6693    0.0000 C    0  0  0  0  0  0  0  0  0  0  0  0
    2.3064    0.0000    0.0000 O    0  0  0  0  0  0  0  0  0  0  0  0
    4.6047    0.0000    0.0000 C    0  0  0  0  0  0  0  0  0  0  0  0
    5.7579   -0.6693    0.0000 C    0  0  0  0  0  0  0  0  0  0  0  0
    5.7579   -1.9999    0.0000 C    0  0  0  0  0  0  0  0  0  0  0  0
    4.6047   -2.6612    0.0000 C    0  0  0  0  0  0  0  0  0  0  0  0
    6.9111   -2.6612    0.0000 As   0  0  0  0  0  0  0  0  0  0  0  0
    7.5804   -1.5080    0.0000 O    0  0  0  0  0  0  0  0  0  0  0  0
    8.0643   -3.3305    0.0000 O    0  0  0  0  0  0  0  0  0  0  0  0
    6.2498   -3.8144    0.0000 O    0  0  0  0  0  0  0  0  0  0  0  0
  1  2  1  0  0  0  0
  2  3  2  0  0  0  0
  2  4  1  0  0  0  0
  4  5  1  0  0  0  0
  5  6  2  0  0  0  0
  5 11  1  0  0  0  0
  6  7  1  0  0  0  0
  6  8  1  0  0  0  0
  8  9  2  0  0  0  0
  9 10  1  0  0  0  0
 10 11  2  0  0  0  0
 10 12  1  0  0  0  0
 12 13  1  0  0  0  0
 12 14  1  0  0  0  0
 12 15  2  0  0  0  0
M  END
> <ID>
11237

> <Formula>
C8H10AsNO5

> <FW>
275.0903

> <DSSTox_CID>
25847

> <DSSTox_RID>
81169

> <DSSTox_GSID>
45847

> <DSSTox_FileID_Sort>
5850

> <TS_ChemName>
Acetarsol

> <TS_ChemName_Synonyms>


> <TS_CASRN>
97-44-9

> <CASRN_ChemName_Relationship>
primary

> <TS_Description>
single chemical compound

> <ChemNote>


> <STRUCTURE_Shown>
tested chemical

> <STRUCTURE_Formula>
C8H10AsNO5

> <STRUCTURE_MW>
275.0903

> <STRUCTURE_ChemType>
organometallic

> <STRUCTURE_DefinedOrganicForm>


> <STRUCTURE_IUPAC>
[3-(acetylamino)-4-hydroxyphenyl]arsonic acid

> <STRUCTURE_SMILES>
Oc1ccc(cc1NC(C)=O)[As](O)(O)=O

> <STRUCTURE_SMILES_Desalt>
Oc1ccc(cc1NC(C)=O)[As](O)(O)=O

> <Substance_modify_yyyymmdd>
20110922

$$$$
