97-54-1
ChemmineR-0915142007XD

 12 12  0  0  0  0  0  0  0  0  1 V2000
    5.7430   -1.9948    0.0000 C   0  0  0  0  0  0  0  0  0  0  0  0
    5.7430   -0.6757    0.0000 C   0  0  0  0  0  0  0  0  0  0  0  0
    4.5848   -2.6865    0.0000 C   0  0  0  0  0  0  0  0  0  0  0  0
    2.2843   -2.6865    0.0000 C   0  0  0  0  0  0  0  0  0  0  0  0
    4.5848   -0.0161    0.0000 C   0  0  0  0  0  0  0  0  0  0  0  0
    1.1261   -2.0109    0.0000 C   0  0  0  0  0  0  0  0  0  0  0  0
    3.4265   -2.0109    0.0000 C   0  0  0  0  0  0  0  0  0  0  0  0
    3.4265   -0.6757    0.0000 C   0  0  0  0  0  0  0  0  0  0  0  0
    6.9013   -2.6704    0.0000 O   0  0  0  0  0  0  0  0  0  0  0  0
    6.9013    0.0000    0.0000 O   0  0  0  0  0  0  0  0  0  0  0  0
    0.0000   -2.6383    0.0000 C   0  0  0  0  0  0  0  0  0  0  0  0
    8.0435   -2.0270    0.0000 C   0  0  0  0  0  0  0  0  0  0  0  0
  1  2  1  0  0  0  0
  1  3  2  0  0  0  0
  1  9  1  0  0  0  0
  2  5  2  0  0  0  0
  2 10  1  0  0  0  0
  3  7  1  0  0  0  0
  4  7  1  0  0  0  0
  4  6  2  3  0  0  0
  5  8  1  0  0  0  0
  6 11  1  0  0  0  0
  7  8  2  0  0  0  0
  9 12  1  0  0  0  0
M  END
> <ID>
2212

> <Formula>
C10H12O2

> <FW>
164.2011

> <DSSTox_CID>
2413

> <DSSTox_RID>
76581

> <DSSTox_GSID>
22413

> <DSSTox_FileID_Sort>
1265

> <TS_ChemName>
Isoeugenol

> <TS_ChemName_Synonyms>


> <TS_CASRN>
97-54-1

> <CASRN_ChemName_Relationship>
primary

> <TS_Description>
mixture of Z,E isomers

> <ChemNote>
mixture of Z,E isomers

> <STRUCTURE_Shown>
representative isomer in mixture

> <STRUCTURE_Formula>
C10H12O2

> <STRUCTURE_MW>
164.2011

> <STRUCTURE_ChemType>
defined organic

> <STRUCTURE_DefinedOrganicForm>
parent

> <STRUCTURE_IUPAC>
2-methoxy-4-(prop-1-en-1-yl)phenol

> <STRUCTURE_SMILES>
Oc1ccc(cc1OC)C=CC

> <STRUCTURE_SMILES_Desalt>
Oc1ccc(cc1OC)C=CC

> <Substance_modify_yyyymmdd>
20110429

$$$$
