97-52-9
ChemmineR-0915142007XD

 12 12  0  0  0  0  0  0  0  0  2 V2000
    3.3295   -1.1521    0.0000 C   0  0  0  0  0  0  0  0  0  0  0  0
    3.9862   -2.3041    0.0000 C   0  0  0  0  0  0  0  0  0  0  0  0
    3.3295   -3.4562    0.0000 C   0  0  0  0  0  0  0  0  0  0  0  0
    1.9988   -3.4562    0.0000 C   0  0  0  0  0  0  0  0  0  0  0  0
    1.3306   -2.3041    0.0000 C   0  0  0  0  0  0  0  0  0  0  0  0
    1.9988   -1.1521    0.0000 C   0  0  0  0  0  0  0  0  0  0  0  0
    3.9862    0.0000    0.0000 N   0  0  0  0  0  0  0  0  0  0  0  0
    1.3306    0.0000    0.0000 O   0  0  0  0  0  0  0  0  0  0  0  0
    0.0000    0.0000    0.0000 C   0  0  0  0  0  0  0  0  0  0  0  0
    1.3306   -4.6083    0.0000 N   0  3  0  0  0  0  0  0  0  0  0  0
    1.9988   -5.7604    0.0000 O   0  5  0  0  0  0  0  0  0  0  0  0
    0.0000   -4.6083    0.0000 O   0  0  0  0  0  0  0  0  0  0  0  0
  1  2  2  0  0  0  0
  1  6  1  0  0  0  0
  1  7  1  0  0  0  0
  2  3  1  0  0  0  0
  3  4  2  0  0  0  0
  4  5  1  0  0  0  0
  4 10  1  0  0  0  0
  5  6  2  0  0  0  0
  6  8  1  0  0  0  0
  8  9  1  0  0  0  0
 10 11  1  0  0  0  0
 10 12  2  0  0  0  0
M  END
> <ID>
7474

> <Formula>
C7H8N2O3

> <FW>
168.15

> <DSSTox_CID>
18700

> <DSSTox_RID>
79387

> <DSSTox_GSID>
38700

> <DSSTox_FileID_Sort>
4069

> <TS_ChemName>
2-Methoxy-4-nitroaniline

> <TS_ChemName_Synonyms>
2-Methoxy-4-nitroaniline (Benzenamine, 2-methoxy-4-nitro-)

> <TS_CASRN>
97-52-9

> <CASRN_ChemName_Relationship>
primary

> <TS_Description>
single chemical compound

> <ChemNote>


> <STRUCTURE_Shown>
tested chemical

> <STRUCTURE_Formula>
C7H8N2O3

> <STRUCTURE_MW>
168.15

> <STRUCTURE_ChemType>
defined organic

> <STRUCTURE_DefinedOrganicForm>
parent

> <STRUCTURE_IUPAC>
2-methoxy-4-nitroaniline

> <STRUCTURE_SMILES>
Nc1ccc(cc1OC)[N+]([O-])=O

> <STRUCTURE_SMILES_Desalt>
Nc1ccc(cc1OC)[N+]([O-])=O

> <Substance_modify_yyyymmdd>
20080429

$$$$
