97-61-0
ChemmineR-0915142007XD

  8  7  0  0  0  0  0  0  0  0  1 V2000
    3.4577    0.0000    0.0000 C   0  0  0  0  0  0  0  0  0  0  0  0
    3.4577   -1.3312    0.0000 C   0  0  0  0  0  0  0  0  0  0  0  0
    4.6103   -1.9939    0.0000 C   0  0  0  0  0  0  0  0  0  0  0  0
    5.7628   -1.3312    0.0000 O   0  0  0  0  0  0  0  0  0  0  0  0
    4.6103   -3.3252    0.0000 O   0  0  0  0  0  0  0  0  0  0  0  0
    2.3051   -1.9939    0.0000 C   0  0  0  0  0  0  0  0  0  0  0  0
    1.1526   -1.3312    0.0000 C   0  0  0  0  0  0  0  0  0  0  0  0
    0.0000   -1.9939    0.0000 C   0  0  0  0  0  0  0  0  0  0  0  0
  1  2  1  0  0  0  0
  2  3  1  0  0  0  0
  2  6  1  0  0  0  0
  3  4  1  0  0  0  0
  3  5  2  0  0  0  0
  6  7  1  0  0  0  0
  7  8  1  0  0  0  0
M  END
> <ID>
1570

> <Formula>
C6H12O2

> <FW>
116.1583

> <DSSTox_CID>
1633

> <DSSTox_RID>
76247

> <DSSTox_GSID>
21633

> <DSSTox_FileID_Sort>
931

> <TS_ChemName>
2-Methylpentanoic acid

> <TS_ChemName_Synonyms>


> <TS_CASRN>
97-61-0

> <CASRN_ChemName_Relationship>
primary

> <TS_Description>
single chemical compound

> <ChemNote>


> <STRUCTURE_Shown>
tested chemical

> <STRUCTURE_Formula>
C6H12O2

> <STRUCTURE_MW>
116.1583

> <STRUCTURE_ChemType>
defined organic

> <STRUCTURE_DefinedOrganicForm>
parent

> <STRUCTURE_IUPAC>
2-methylpentanoic acid

> <STRUCTURE_SMILES>
CC(CCC)C(=O)O

> <STRUCTURE_SMILES_Desalt>
CC(CCC)C(=O)O

> <Substance_modify_yyyymmdd>
20080429

$$$$
