97-65-4
ChemmineR-0915142007XD

  9  8  0  0  0  0  0  0  0  0  1 V2000
    1.1509   -1.3293    0.0000 C   0  0  0  0  0  0  0  0  0  0  0  0
    2.3018   -1.9968    0.0000 C   0  0  0  0  0  0  0  0  0  0  0  0
    3.4526   -1.3293    0.0000 C   0  0  0  0  0  0  0  0  0  0  0  0
    4.6035   -1.9968    0.0000 C   0  0  0  0  0  0  0  0  0  0  0  0
    1.1509    0.0000    0.0000 O   0  0  0  0  0  0  0  0  0  0  0  0
    0.0000   -1.9968    0.0000 O   0  0  0  0  0  0  0  0  0  0  0  0
    4.6035   -3.3260    0.0000 O   0  0  0  0  0  0  0  0  0  0  0  0
    5.7544   -1.3293    0.0000 O   0  0  0  0  0  0  0  0  0  0  0  0
    2.3018   -3.3260    0.0000 C   0  0  0  0  0  0  0  0  0  0  0  0
  1  2  1  0  0  0  0
  1  6  1  0  0  0  0
  1  5  2  0  0  0  0
  2  3  1  0  0  0  0
  2  9  2  0  0  0  0
  3  4  1  0  0  0  0
  4  8  1  0  0  0  0
  4  7  2  0  0  0  0
M  END
> <ID>
4737

> <Formula>
C5H6O4

> <FW>
130.0987

> <DSSTox_CID>
6608

> <DSSTox_RID>
78161

> <DSSTox_GSID>
26608

> <DSSTox_FileID_Sort>
2844

> <TS_ChemName>
Methylenebutanedioic acid

> <TS_ChemName_Synonyms>
2-Methylidenebutanedioic acid (Methylenebutanedioic acid) (Itaconic acid)

> <TS_CASRN>
97-65-4

> <CASRN_ChemName_Relationship>
primary

> <TS_Description>
single chemical compound

> <ChemNote>


> <STRUCTURE_Shown>
tested chemical

> <STRUCTURE_Formula>
C5H6O4

> <STRUCTURE_MW>
130.0987

> <STRUCTURE_ChemType>
defined organic

> <STRUCTURE_DefinedOrganicForm>
parent

> <STRUCTURE_IUPAC>
2-methylidenebutanedioic acid

> <STRUCTURE_SMILES>
O=C(O)C(=C)CC(=O)O

> <STRUCTURE_SMILES_Desalt>
O=C(O)C(=C)CC(=O)O

> <Substance_modify_yyyymmdd>
20080429

$$$$
