97-72-3
ChemmineR-0915142007XD

 11 10  0  0  0  0  0  0  0  0  1 V2000
    4.6083   -1.3265    0.0000 C   0  0  0  0  0  0  0  0  0  0  0  0
    5.7552   -1.9967    0.0000 C   0  0  0  0  0  0  0  0  0  0  0  0
    6.9090   -1.3265    0.0000 C   0  0  0  0  0  0  0  0  0  0  0  0
    4.6083    0.0000    0.0000 O   0  0  0  0  0  0  0  0  0  0  0  0
    3.4545   -1.9967    0.0000 O   0  0  0  0  0  0  0  0  0  0  0  0
    5.7552   -3.3232    0.0000 C   0  0  0  0  0  0  0  0  0  0  0  0
    2.3007   -1.3265    0.0000 C   0  0  0  0  0  0  0  0  0  0  0  0
    1.1538   -1.9967    0.0000 C   0  0  0  0  0  0  0  0  0  0  0  0
    0.0000   -1.3265    0.0000 C   0  0  0  0  0  0  0  0  0  0  0  0
    2.3007    0.0000    0.0000 O   0  0  0  0  0  0  0  0  0  0  0  0
    1.1538   -3.3232    0.0000 C   0  0  0  0  0  0  0  0  0  0  0  0
  1  2  1  0  0  0  0
  1  5  1  0  0  0  0
  1  4  2  0  0  0  0
  2  3  1  0  0  0  0
  2  6  1  0  0  0  0
  5  7  1  0  0  0  0
  7  8  1  0  0  0  0
  7 10  2  0  0  0  0
  8  9  1  0  0  0  0
  8 11  1  0  0  0  0
M  END
> <ID>
4738

> <Formula>
C8H14O3

> <FW>
158.195

> <DSSTox_CID>
6609

> <DSSTox_RID>
78162

> <DSSTox_GSID>
26609

> <DSSTox_FileID_Sort>
2845

> <TS_ChemName>
Isobutyric anhydride

> <TS_ChemName_Synonyms>
Isobutyric anhydride (Propanoic acid, 2-methyl-, anhydride)

> <TS_CASRN>
97-72-3

> <CASRN_ChemName_Relationship>
primary

> <TS_Description>
single chemical compound

> <ChemNote>


> <STRUCTURE_Shown>
tested chemical

> <STRUCTURE_Formula>
C8H14O3

> <STRUCTURE_MW>
158.195

> <STRUCTURE_ChemType>
defined organic

> <STRUCTURE_DefinedOrganicForm>
parent

> <STRUCTURE_IUPAC>
2-methylpropanoic anhydride

> <STRUCTURE_SMILES>
CC(C)C(=O)OC(=O)C(C)C

> <STRUCTURE_SMILES_Desalt>
CC(C)C(=O)OC(=O)C(C)C

> <Substance_modify_yyyymmdd>
20080429

$$$$
