97-78-9
ChemmineR-0915142007XD

 19 18  0  0  0  0  0  0  0  0  1 V2000
    2.3094   -3.9890    0.0000 C   0  0  0  0  0  0  0  0  0  0  0  0
    3.4641   -3.3142    0.0000 O   0  0  0  0  0  0  0  0  0  0  0  0
    1.1547   -3.3142    0.0000 C   0  0  0  0  0  0  0  0  0  0  0  0
    2.3094   -5.3236    0.0000 O   0  0  0  0  0  0  0  0  0  0  0  0
    1.1547   -1.9795    0.0000 N   0  0  0  0  0  0  0  0  0  0  0  0
    0.0000   -1.3197    0.0000 C   0  0  0  0  0  0  0  0  0  0  0  0
    2.3094   -1.3197    0.0000 C   0  0  0  0  0  0  0  0  0  0  0  0
    3.4641   -1.9795    0.0000 C   0  0  0  0  0  0  0  0  0  0  0  0
    4.6188   -1.3197    0.0000 C   0  0  0  0  0  0  0  0  0  0  0  0
    5.7585   -1.9795    0.0000 C   0  0  0  0  0  0  0  0  0  0  0  0
    6.9132   -1.3197    0.0000 C   0  0  0  0  0  0  0  0  0  0  0  0
    8.0829   -1.9795    0.0000 C   0  0  0  0  0  0  0  0  0  0  0  0
    9.2376   -1.3197    0.0000 C   0  0  0  0  0  0  0  0  0  0  0  0
   10.3923   -1.9795    0.0000 C   0  0  0  0  0  0  0  0  0  0  0  0
   11.5470   -1.3197    0.0000 C   0  0  0  0  0  0  0  0  0  0  0  0
   12.7017   -1.9795    0.0000 C   0  0  0  0  0  0  0  0  0  0  0  0
   13.8564   -1.3197    0.0000 C   0  0  0  0  0  0  0  0  0  0  0  0
   14.9962   -1.9795    0.0000 C   0  0  0  0  0  0  0  0  0  0  0  0
    2.3094    0.0000    0.0000 O   0  0  0  0  0  0  0  0  0  0  0  0
  1  3  1  0  0  0  0
  1  2  2  0  0  0  0
  1  4  1  0  0  0  0
  3  5  1  0  0  0  0
  5  6  1  0  0  0  0
  5  7  1  0  0  0  0
  7  8  1  0  0  0  0
  7 19  2  0  0  0  0
  8  9  1  0  0  0  0
  9 10  1  0  0  0  0
 10 11  1  0  0  0  0
 11 12  1  0  0  0  0
 12 13  1  0  0  0  0
 13 14  1  0  0  0  0
 14 15  1  0  0  0  0
 15 16  1  0  0  0  0
 16 17  1  0  0  0  0
 17 18  1  0  0  0  0
M  END
> <ID>
8945

> <Formula>
C15H29NO3

> <FW>
271.3957

> <DSSTox_CID>
22011

> <DSSTox_RID>
79902

> <DSSTox_GSID>
42011

> <DSSTox_FileID_Sort>
4584

> <TS_ChemName>
N-Dodecanoyl-N-methylglycine

> <TS_ChemName_Synonyms>
N-dodecanoyl-N-methylglycine; Glycine, N-methyl-N-(1-oxododecyl)-; N-Lauroylsarcosine

> <TS_CASRN>
97-78-9

> <CASRN_ChemName_Relationship>
primary

> <TS_Description>
single chemical compound

> <ChemNote>


> <STRUCTURE_Shown>
tested chemical

> <STRUCTURE_Formula>
C15H29NO3

> <STRUCTURE_MW>
271.3957

> <STRUCTURE_ChemType>
defined organic

> <STRUCTURE_DefinedOrganicForm>
parent

> <STRUCTURE_IUPAC>
N-dodecanoyl-N-methylglycine

> <STRUCTURE_SMILES>
O=C(CCCCCCCCCCC)N(C)CC(=O)O

> <STRUCTURE_SMILES_Desalt>
O=C(CCCCCCCCCCC)N(C)CC(=O)O

> <Substance_modify_yyyymmdd>
20080825

$$$$
