97-85-8
ChemmineR-0915142007XD

 10  9  0  0  0  0  0  0  0  0  1 V2000
    4.6515   -1.3399    0.0000 C   0  0  0  0  0  0  0  0  0  0  0  0
    5.8109   -1.9856    0.0000 C   0  0  0  0  0  0  0  0  0  0  0  0
    6.9425   -1.3399    0.0000 C   0  0  0  0  0  0  0  0  0  0  0  0
    4.6515    0.0000    0.0000 O   0  0  0  0  0  0  0  0  0  0  0  0
    3.4852   -1.9856    0.0000 O   0  0  0  0  0  0  0  0  0  0  0  0
    5.8109   -3.3255    0.0000 C   0  0  0  0  0  0  0  0  0  0  0  0
    2.3119   -1.3399    0.0000 C   0  0  0  0  0  0  0  0  0  0  0  0
    1.1594   -1.9995    0.0000 C   0  0  0  0  0  0  0  0  0  0  0  0
    1.1802   -3.3255    0.0000 C   0  0  0  0  0  0  0  0  0  0  0  0
    0.0000   -1.3399    0.0000 C   0  0  0  0  0  0  0  0  0  0  0  0
  1  2  1  0  0  0  0
  1  5  1  0  0  0  0
  1  4  2  0  0  0  0
  2  3  1  0  0  0  0
  2  6  1  0  0  0  0
  5  7  1  0  0  0  0
  7  8  1  0  0  0  0
  8  9  1  0  0  0  0
  8 10  1  0  0  0  0
M  END
> <ID>
4739

> <Formula>
C8H16O2

> <FW>
144.2114

> <DSSTox_CID>
6612

> <DSSTox_RID>
78163

> <DSSTox_GSID>
26612

> <DSSTox_FileID_Sort>
2846

> <TS_ChemName>
Isobutyl isobutyrate

> <TS_ChemName_Synonyms>
Isobutyl isobutyrate (Propanoic acid, 2-methyl-, 2-methylpropyl ester)

> <TS_CASRN>
97-85-8

> <CASRN_ChemName_Relationship>
primary

> <TS_Description>
single chemical compound

> <ChemNote>


> <STRUCTURE_Shown>
tested chemical

> <STRUCTURE_Formula>
C8H16O2

> <STRUCTURE_MW>
144.2114

> <STRUCTURE_ChemType>
defined organic

> <STRUCTURE_DefinedOrganicForm>
parent

> <STRUCTURE_IUPAC>
2-methylpropyl 2-methylpropanoate

> <STRUCTURE_SMILES>
CC(C)C(=O)OCC(C)C

> <STRUCTURE_SMILES_Desalt>
CC(C)C(=O)OCC(C)C

> <Substance_modify_yyyymmdd>
20080429

$$$$
