97-86-9
ChemmineR-0915142007XD

 10  9  0  0  0  0  0  0  0  0  1 V2000
    4.6069   -1.3261    0.0000 C   0  0  0  0  0  0  0  0  0  0  0  0
    4.6069    0.0000    0.0000 O   0  0  0  0  0  0  0  0  0  0  0  0
    3.4535   -1.9961    0.0000 O   0  0  0  0  0  0  0  0  0  0  0  0
    2.3000   -1.3261    0.0000 C   0  0  0  0  0  0  0  0  0  0  0  0
    1.1535   -1.9961    0.0000 C   0  0  0  0  0  0  0  0  0  0  0  0
    1.1535   -3.3223    0.0000 C   0  0  0  0  0  0  0  0  0  0  0  0
    0.0000   -1.3261    0.0000 C   0  0  0  0  0  0  0  0  0  0  0  0
    5.7535   -1.9961    0.0000 C   0  0  0  0  0  0  0  0  0  0  0  0
    6.9070   -1.3261    0.0000 C   0  0  0  0  0  0  0  0  0  0  0  0
    5.7535   -3.3223    0.0000 C   0  0  0  0  0  0  0  0  0  0  0  0
  1  2  2  0  0  0  0
  1  3  1  0  0  0  0
  1  8  1  0  0  0  0
  3  4  1  0  0  0  0
  4  5  1  0  0  0  0
  5  6  1  0  0  0  0
  5  7  1  0  0  0  0
  8  9  1  0  0  0  0
  8 10  2  0  0  0  0
M  END
> <ID>
4210

> <Formula>
C8H14O2

> <FW>
142.1956

> <DSSTox_CID>
5461

> <DSSTox_RID>
77795

> <DSSTox_GSID>
25461

> <DSSTox_FileID_Sort>
2478

> <TS_ChemName>
Isobutyl methacrylate

> <TS_ChemName_Synonyms>
Isobutyl methacrylate (2-Propenoic acid, 2-methyl-, 2-methylpropyl ester)

> <TS_CASRN>
97-86-9

> <CASRN_ChemName_Relationship>
primary

> <TS_Description>
single chemical compound

> <ChemNote>


> <STRUCTURE_Shown>
tested chemical

> <STRUCTURE_Formula>
C8H14O2

> <STRUCTURE_MW>
142.1956

> <STRUCTURE_ChemType>
defined organic

> <STRUCTURE_DefinedOrganicForm>
parent

> <STRUCTURE_IUPAC>
2-methylpropyl 2-methylprop-2-enoate

> <STRUCTURE_SMILES>
CC(=C)C(=O)OCC(C)C

> <STRUCTURE_SMILES_Desalt>
CC(=C)C(=O)OCC(C)C

> <Substance_modify_yyyymmdd>
20080429

$$$$
