97-95-0
ChemmineR-0915142007XD

  7  6  0  0  0  0  0  0  0  0  1 V2000
    1.1561    0.0000    0.0000 C   0  0  0  0  0  0  0  0  0  0  0  0
    2.2939   -0.6698    0.0000 C   0  0  0  0  0  0  0  0  0  0  0  0
    3.4501    0.0000    0.0000 C   0  0  0  0  0  0  0  0  0  0  0  0
    4.5878   -0.6698    0.0000 C   0  0  0  0  0  0  0  0  0  0  0  0
    0.0000   -0.6698    0.0000 O   0  0  0  0  0  0  0  0  0  0  0  0
    2.2939   -1.9865    0.0000 C   0  0  0  0  0  0  0  0  0  0  0  0
    3.4638   -2.6609    0.0000 C   0  0  0  0  0  0  0  0  0  0  0  0
  1  2  1  0  0  0  0
  1  5  1  0  0  0  0
  2  3  1  0  0  0  0
  2  6  1  0  0  0  0
  3  4  1  0  0  0  0
  6  7  1  0  0  0  0
M  END
> <ID>
8382

> <Formula>
C6H14O

> <FW>
102.1748

> <DSSTox_CID>
21416

> <DSSTox_RID>
79721

> <DSSTox_GSID>
41416

> <DSSTox_FileID_Sort>
4403

> <TS_ChemName>
2-Ethyl-1-butanol

> <TS_ChemName_Synonyms>


> <TS_CASRN>
97-95-0

> <CASRN_ChemName_Relationship>
primary

> <TS_Description>
single chemical compound

> <ChemNote>


> <STRUCTURE_Shown>
tested chemical

> <STRUCTURE_Formula>
C6H14O

> <STRUCTURE_MW>
102.1748

> <STRUCTURE_ChemType>
defined organic

> <STRUCTURE_DefinedOrganicForm>
parent

> <STRUCTURE_IUPAC>
2-ethylbutan-1-ol

> <STRUCTURE_SMILES>
CCC(CC)CO

> <STRUCTURE_SMILES_Desalt>
CCC(CC)CO

> <Substance_modify_yyyymmdd>
20080825

$$$$
