97-96-1
ChemmineR-0915142007XD

  7  6  0  0  0  0  0  0  0  0  1 V2000
    0.0000   -2.3038    0.0000 C   0  0  0  0  0  0  0  0  0  0  0  0
    3.9928    0.0000    0.0000 C   0  0  0  0  0  0  0  0  0  0  0  0
    1.3296   -2.3038    0.0000 C   0  0  0  0  0  0  0  0  0  0  0  0
    3.3260   -1.1499    0.0000 C   0  0  0  0  0  0  0  0  0  0  0  0
    1.3296    0.0000    0.0000 C   0  0  0  0  0  0  0  0  0  0  0  0
    1.9964   -1.1499    0.0000 C   0  0  0  0  0  0  0  0  0  0  0  0
    0.0000    0.0000    0.0000 O   0  0  0  0  0  0  0  0  0  0  0  0
  1  3  1  0  0  0  0
  2  4  1  0  0  0  0
  3  6  1  0  0  0  0
  4  6  1  0  0  0  0
  5  6  1  0  0  0  0
  5  7  2  0  0  0  0
M  END
> <ID>
14244

> <Formula>
C6H12O

> <FW>
100.1589

> <DSSTox_CID>
29339

> <DSSTox_RID>
83455

> <DSSTox_GSID>
49380

> <DSSTox_FileID_Sort>
8130

> <TS_ChemName>
2-Ethylbutyraldehyde

> <TS_ChemName_Synonyms>


> <TS_CASRN>
97-96-1

> <CASRN_ChemName_Relationship>
primary

> <TS_Description>
single chemical compound

> <ChemNote>


> <STRUCTURE_Shown>
tested chemical

> <STRUCTURE_Formula>
C6H12O

> <STRUCTURE_MW>
100.1589

> <STRUCTURE_ChemType>
defined organic

> <STRUCTURE_DefinedOrganicForm>
parent

> <STRUCTURE_IUPAC>
2-ethylbutanal

> <STRUCTURE_SMILES>
CCC(CC)C=O

> <STRUCTURE_SMILES_Desalt>
CCC(CC)C=O

> <Substance_modify_yyyymmdd>
20111204

$$$$
