97-99-4
ChemmineR-0915142007XD

  7  7  0  0  0  0  0  0  0  0  1 V2000
    2.2247   -2.7880    0.0000 O   0  0  0  0  0  0  0  0  0  0  0  0
    1.8276   -4.0523    0.0000 C   0  0  0  0  0  0  0  0  0  0  0  0
    1.1549   -2.0018    0.0000 C   0  0  0  0  0  0  0  0  0  0  0  0
    0.4984   -4.0523    0.0000 C   0  0  0  0  0  0  0  0  0  0  0  0
    0.0810   -2.7880    0.0000 C   0  0  0  0  0  0  0  0  0  0  0  0
    1.1549   -0.6727    0.0000 C   0  0  0  0  0  0  0  0  0  0  0  0
    0.0000    0.0000    0.0000 O   0  0  0  0  0  0  0  0  0  0  0  0
  1  2  1  0  0  0  0
  1  3  1  0  0  0  0
  2  4  1  0  0  0  0
  3  5  1  0  0  0  0
  3  6  1  0  0  0  0
  4  5  1  0  0  0  0
  6  7  1  0  0  0  0
M  END
> <ID>
5804

> <Formula>
C5H10O2

> <FW>
102.1317

> <DSSTox_CID>
9128

> <DSSTox_RID>
78677

> <DSSTox_GSID>
29128

> <DSSTox_FileID_Sort>
3359

> <TS_ChemName>
Tetrahydrofurfuryl alcohol

> <TS_ChemName_Synonyms>
Tetrahydrofurfuryl alcohol (2-Furanmethanol, tetrahydro-)

> <TS_CASRN>
97-99-4

> <CASRN_ChemName_Relationship>
primary

> <TS_Description>
single chemical compound

> <ChemNote>


> <STRUCTURE_Shown>
tested chemical

> <STRUCTURE_Formula>
C5H10O2

> <STRUCTURE_MW>
102.1317

> <STRUCTURE_ChemType>
defined organic

> <STRUCTURE_DefinedOrganicForm>
parent

> <STRUCTURE_IUPAC>
tetrahydrofuran-2-ylmethanol

> <STRUCTURE_SMILES>
OCC1CCCO1

> <STRUCTURE_SMILES_Desalt>
OCC1CCCO1

> <Substance_modify_yyyymmdd>
20080429

$$$$
