97-90-5
ChemmineR-0915142007XD

 14 13  0  0  0  0  0  0  0  0  1 V2000
    2.3143   -1.3284    0.0000 C   0  0  0  0  0  0  0  0  0  0  0  0
    1.1520   -1.9926    0.0000 C   0  0  0  0  0  0  0  0  0  0  0  0
    2.3143    0.0000    0.0000 O   0  0  0  0  0  0  0  0  0  0  0  0
    0.0000   -1.3284    0.0000 C   0  0  0  0  0  0  0  0  0  0  0  0
    3.4662   -1.9926    0.0000 O   0  0  0  0  0  0  0  0  0  0  0  0
    1.1520   -3.3210    0.0000 C   0  0  0  0  0  0  0  0  0  0  0  0
    8.0844   -1.9926    0.0000 C   0  0  0  0  0  0  0  0  0  0  0  0
    9.2260   -1.3284    0.0000 C   0  0  0  0  0  0  0  0  0  0  0  0
    8.0844   -3.3210    0.0000 O   0  0  0  0  0  0  0  0  0  0  0  0
   10.3780   -1.9926    0.0000 C   0  0  0  0  0  0  0  0  0  0  0  0
    6.9325   -1.3284    0.0000 O   0  0  0  0  0  0  0  0  0  0  0  0
    9.2260    0.0000    0.0000 C   0  0  0  0  0  0  0  0  0  0  0  0
    5.7702   -1.9926    0.0000 C   0  0  0  0  0  0  0  0  0  0  0  0
    4.6182   -1.3284    0.0000 C   0  0  0  0  0  0  0  0  0  0  0  0
  1  2  1  0  0  0  0
  1  3  2  0  0  0  0
  1  5  1  0  0  0  0
  2  4  2  0  0  0  0
  2  6  1  0  0  0  0
  5 14  1  0  0  0  0
  7  8  1  0  0  0  0
  7  9  2  0  0  0  0
  7 11  1  0  0  0  0
  8 10  2  0  0  0  0
  8 12  1  0  0  0  0
 11 13  1  0  0  0  0
 13 14  1  0  0  0  0
M  END
> <ID>
4740

> <Formula>
C10H14O4

> <FW>
198.2158

> <DSSTox_CID>
6615

> <DSSTox_RID>
78164

> <DSSTox_GSID>
26615

> <DSSTox_FileID_Sort>
2847

> <TS_ChemName>
Ethylene glycol dimethacrylate

> <TS_ChemName_Synonyms>
Ethylene glycol dimethacrylate (2-Propenoic acid, 2-methyl-, 1,2-ethanediyl ester)

> <TS_CASRN>
97-90-5

> <CASRN_ChemName_Relationship>
primary

> <TS_Description>
single chemical compound

> <ChemNote>


> <STRUCTURE_Shown>
tested chemical

> <STRUCTURE_Formula>
C10H14O4

> <STRUCTURE_MW>
198.2158

> <STRUCTURE_ChemType>
defined organic

> <STRUCTURE_DefinedOrganicForm>
parent

> <STRUCTURE_IUPAC>
ethane-1,2-diyl bis(2-methylprop-2-enoate)

> <STRUCTURE_SMILES>
O=C(OCCOC(=O)C(=C)C)C(=C)C

> <STRUCTURE_SMILES_Desalt>
O=C(OCCOC(=O)C(=C)C)C(=C)C

> <Substance_modify_yyyymmdd>
20080429

$$$$
