973-21-7
ChemmineR-0915142007XD

 23 23  0  0  0  0  0  0  0  0  2 V2000
    2.3535   -5.9037    0.0000 C   0  0  0  0  0  0  0  0  0  0  0  0
    3.5203   -5.2256    0.0000 C   0  0  0  0  0  0  0  0  0  0  0  0
    1.1668   -5.2256    0.0000 N   0  3  0  0  0  0  0  0  0  0  0  0
    3.5203   -9.2943    0.0000 N   0  3  0  0  0  0  0  0  0  0  0  0
    2.3535   -7.2599    0.0000 C   0  0  0  0  0  0  0  0  0  0  0  0
    3.5203   -7.9381    0.0000 C   0  0  0  0  0  0  0  0  0  0  0  0
    4.6970   -5.9037    0.0000 C   0  0  0  0  0  0  0  0  0  0  0  0
    4.7269   -3.2211    0.0000 C   0  0  0  0  0  0  0  0  0  0  0  0
    4.6970   -7.2599    0.0000 C   0  0  0  0  0  0  0  0  0  0  0  0
    3.5203   -3.8693    0.0000 O   0  0  0  0  0  0  0  0  0  0  0  0
    0.0000   -5.9037    0.0000 O   0  5  0  0  0  0  0  0  0  0  0  0
    2.3535   -9.9724    0.0000 O   0  5  0  0  0  0  0  0  0  0  0  0
    1.1668   -3.8693    0.0000 O   0  0  0  0  0  0  0  0  0  0  0  0
    4.6970   -9.9724    0.0000 O   0  0  0  0  0  0  0  0  0  0  0  0
    5.5048   -3.7097    0.0000 O   0  0  0  0  0  0  0  0  0  0  0  0
    4.7269   -1.9446    0.0000 O   0  0  0  0  0  0  0  0  0  0  0  0
    5.8638   -5.2256    0.0000 C   0  0  0  0  0  0  0  0  0  0  0  0
    3.6200   -1.3762    0.0000 C   0  0  0  0  0  0  0  0  0  0  0  0
    5.8638   -3.8693    0.0000 C   0  0  0  0  0  0  0  0  0  0  0  0
    7.0505   -5.9037    0.0000 C   0  0  0  0  0  0  0  0  0  0  0  0
    2.4532   -2.0344    0.0000 C   0  0  0  0  0  0  0  0  0  0  0  0
    3.6200    0.0000    0.0000 C   0  0  0  0  0  0  0  0  0  0  0  0
    7.0505   -3.1812    0.0000 C   0  0  0  0  0  0  0  0  0  0  0  0
  1  2  2  0  0  0  0
  1  3  1  0  0  0  0
  1  5  1  0  0  0  0
  2  7  1  0  0  0  0
  2 10  1  0  0  0  0
  3 11  1  0  0  0  0
  3 13  2  0  0  0  0
  4  6  1  0  0  0  0
  4 12  1  0  0  0  0
  4 14  2  0  0  0  0
  5  6  2  0  0  0  0
  6  9  1  0  0  0  0
  7 17  1  0  0  0  0
  7  9  2  0  0  0  0
  8 10  1  0  0  0  0
  8 15  2  0  0  0  0
  8 16  1  0  0  0  0
 16 18  1  0  0  0  0
 17 19  1  0  0  0  0
 17 20  1  0  0  0  0
 18 21  1  0  0  0  0
 18 22  1  0  0  0  0
 19 23  1  0  0  0  0
M  END
> <ID>
7647

> <Formula>
C14H18N2O7

> <FW>
326.3019

> <DSSTox_CID>
20268

> <DSSTox_RID>
79461

> <DSSTox_GSID>
40268

> <DSSTox_FileID_Sort>
4143

> <TS_ChemName>
Dinobuton

> <TS_ChemName_Synonyms>


> <TS_CASRN>
973-21-7

> <CASRN_ChemName_Relationship>
primary

> <TS_Description>
single chemical compound

> <ChemNote>


> <STRUCTURE_Shown>
tested chemical

> <STRUCTURE_Formula>
C14H18N2O7

> <STRUCTURE_MW>
326.3019

> <STRUCTURE_ChemType>
defined organic

> <STRUCTURE_DefinedOrganicForm>
parent

> <STRUCTURE_IUPAC>
2-(butan-2-yl)-4,6-dinitrophenyl propan-2-yl carbonate

> <STRUCTURE_SMILES>
CC(CC)c1cc(cc([N+]([O-])=O)c1OC(=O)OC(C)C)[N+]([O-])=O

> <STRUCTURE_SMILES_Desalt>
CC(CC)c1cc(cc([N+]([O-])=O)c1OC(=O)OC(C)C)[N+]([O-])=O

> <Substance_modify_yyyymmdd>
20080429

$$$$
