97322-87-7
ChemmineR-0915142007XD

 31 34  0  0  0  0  0  0  0  0  1 V2000
    1.1480   -3.3240    0.0000 C   0  0  0  0  0  0  0  0  0  0  0  0
    0.0000   -3.9922    0.0000 C   0  0  0  0  0  0  0  0  0  0  0  0
    1.1480   -2.0047    0.0000 C   0  0  0  0  0  0  0  0  0  0  0  0
    0.0000   -1.3364    0.0000 O   0  0  0  0  0  0  0  0  0  0  0  0
    2.2959   -1.3364    0.0000 C   0  0  0  0  0  0  0  0  0  0  0  0
    2.2959    0.0000    0.0000 C   0  0  0  0  0  0  0  0  0  0  0  0
    3.4610   -2.0047    0.0000 C   0  0  0  0  0  0  0  0  0  0  0  0
    3.4610   -3.3240    0.0000 C   0  0  0  0  0  0  0  0  0  0  0  0
    2.2959   -3.9922    0.0000 C   0  0  0  0  0  0  0  0  0  0  0  0
    2.2959   -5.3286    0.0000 C   0  0  0  0  0  0  0  0  0  0  0  0
    4.6090   -3.9922    0.0000 O   0  0  0  0  0  0  0  0  0  0  0  0
    5.7570   -3.3240    0.0000 C   0  0  0  0  0  0  0  0  0  0  0  0
    6.2196   -4.5747    0.0000 C   0  0  0  0  0  0  0  0  0  0  0  0
    7.0763   -3.1012    0.0000 C   0  0  0  0  0  0  0  0  0  0  0  0
    7.9158   -4.1121    0.0000 O   0  0  0  0  0  0  0  0  0  0  0  0
    9.2351   -3.8894    0.0000 C   0  0  0  0  0  0  0  0  0  0  0  0
    9.6806   -2.6386    0.0000 C   0  0  0  0  0  0  0  0  0  0  0  0
   10.9999   -2.3987    0.0000 C   0  0  0  0  0  0  0  0  0  0  0  0
   11.8566   -3.4268    0.0000 C   0  0  0  0  0  0  0  0  0  0  0  0
   13.1588   -3.1869    0.0000 C   0  0  0  0  0  0  0  0  0  0  0  0
   14.0155   -4.2149    0.0000 C   0  0  0  0  0  0  0  0  0  0  0  0
   15.3519   -4.1121    0.0000 S   0  0  0  0  0  0  0  0  0  0  0  0
   15.8488   -5.3458    0.0000 C   0  0  0  0  0  0  0  0  0  0  0  0
   17.1338   -5.6713    0.0000 O   0  0  0  0  0  0  0  0  0  0  0  0
   14.8379   -6.1853    0.0000 N   0  0  0  0  0  0  0  0  0  0  0  0
   13.6899   -5.5171    0.0000 C   0  0  0  0  0  0  0  0  0  0  0  0
   12.4563   -5.9968    0.0000 O   0  0  0  0  0  0  0  0  0  0  0  0
   11.3940   -4.6775    0.0000 C   0  0  0  0  0  0  0  0  0  0  0  0
   10.0918   -4.9003    0.0000 C   0  0  0  0  0  0  0  0  0  0  0  0
    5.7570   -2.0047    0.0000 C   0  0  0  0  0  0  0  0  0  0  0  0
    4.6090   -1.3364    0.0000 C   0  0  0  0  0  0  0  0  0  0  0  0
  1  2  1  0  0  0  0
  1  3  2  0  0  0  0
  1  9  1  0  0  0  0
  3  4  1  0  0  0  0
  3  5  1  0  0  0  0
  5  6  1  0  0  0  0
  5  7  2  0  0  0  0
  7  8  1  0  0  0  0
  7 31  1  0  0  0  0
  8  9  2  0  0  0  0
  8 11  1  0  0  0  0
  9 10  1  0  0  0  0
 11 12  1  0  0  0  0
 12 13  1  0  0  0  0
 12 14  1  0  0  0  0
 12 30  1  0  0  0  0
 14 15  1  0  0  0  0
 15 16  1  0  0  0  0
 16 17  2  0  0  0  0
 16 29  1  0  0  0  0
 17 18  1  0  0  0  0
 18 19  2  0  0  0  0
 19 20  1  0  0  0  0
 19 28  1  0  0  0  0
 20 21  1  0  0  0  0
 21 22  1  0  0  0  0
 21 26  1  0  0  0  0
 22 23  1  0  0  0  0
 23 24  2  0  0  0  0
 23 25  1  0  0  0  0
 25 26  1  0  0  0  0
 26 27  2  0  0  0  0
 28 29  2  0  0  0  0
 30 31  1  0  0  0  0
M  END
> <ID>
3323

> <Formula>
C24H27NO5S

> <FW>
441.5399

> <DSSTox_CID>
3719

> <DSSTox_RID>
77162

> <DSSTox_GSID>
23719

> <DSSTox_FileID_Sort>
1845

> <TS_ChemName>
Troglitazone

> <TS_ChemName_Synonyms>


> <TS_CASRN>
97322-87-7

> <CASRN_ChemName_Relationship>
primary

> <TS_Description>
single chemical compound

> <ChemNote>


> <STRUCTURE_Shown>
tested chemical

> <STRUCTURE_Formula>
C24H27NO5S

> <STRUCTURE_MW>
441.5399

> <STRUCTURE_ChemType>
defined organic

> <STRUCTURE_DefinedOrganicForm>
parent

> <STRUCTURE_IUPAC>
5-{4-[(6-hydroxy-2,5,7,8-tetramethyl-3,4-dihydro-2H-chromen-2-yl)methoxy]benzyl}-1,3-thiazolidine-2,4-dione

> <STRUCTURE_SMILES>
Cc1c(O)c(C)c(C)c2OC(C)(CCc12)COc4ccc(CC3SC(=O)NC3=O)cc4

> <STRUCTURE_SMILES_Desalt>
Cc1c(O)c(C)c(C)c2OC(C)(CCc12)COc4ccc(CC3SC(=O)NC3=O)cc4

> <Substance_modify_yyyymmdd>
20130910

$$$$
