97466-90-5
ChemmineR-0915142007XD

 20 22  0  0  1  0  0  0  0  0  1 V2000
    3.4449   -2.6527    0.0000 C   0  0  0  0  0  0  0  0  0  0  0  0
    3.4449   -1.3356    0.0000 C   0  0  0  0  0  0  0  0  0  0  0  0
    2.2843   -3.3344    0.0000 N   0  0  0  0  0  0  0  0  0  0  0  0
    4.5870   -3.3344    0.0000 C   0  0  0  0  0  0  0  0  0  0  0  0
    4.5870   -0.6540    0.0000 C   0  0  0  0  0  0  0  0  0  0  0  0
    2.2843   -0.6540    0.0000 C   0  0  0  0  0  0  0  0  0  0  0  0
    1.1606   -2.6527    0.0000 C   0  0  0  0  0  0  0  0  0  0  0  0
    2.2843   -4.6515    0.0000 C   0  0  0  0  0  0  0  0  0  0  0  0
    5.7660   -2.6527    0.0000 C   0  0  0  0  0  0  0  0  0  0  0  0
    5.7660   -1.3356    0.0000 C   0  0  0  0  0  0  0  0  0  0  0  0
    1.1606   -1.3356    0.0000 C   0  0  0  0  0  0  0  0  0  0  0  0
    1.1606   -5.3055    0.0000 C   0  0  0  0  0  0  0  0  0  0  0  0
    6.9266   -3.3344    0.0000 C   0  0  0  0  0  0  0  0  0  0  0  0
    6.9266   -0.6540    0.0000 N   0  0  0  0  0  0  0  0  0  0  0  0
    0.0000   -4.6515    0.0000 C   0  0  0  0  0  0  0  0  0  0  0  0
    8.0504   -2.6527    0.0000 N   0  0  0  0  0  0  0  0  0  0  0  0
    8.0504   -1.3356    0.0000 C   0  0  0  0  0  0  0  0  0  0  0  0
    9.2109   -0.6540    0.0000 N   0  0  0  0  0  0  0  0  0  0  0  0
    3.4449   -3.9883    0.0000 H   0  0  0  0  0  0  0  0  0  0  0  0
    3.4449    0.0000    0.0000 H   0  0  0  0  0  0  0  0  0  0  0  0
  1  2  1  0  0  0  0
  1  3  1  0  0  0  0
  1  4  1  0  0  0  0
  1 19  1  6  0  0  0
  2  5  1  0  0  0  0
  2  6  1  0  0  0  0
  2 20  1  1  0  0  0
  3  7  1  0  0  0  0
  3  8  1  0  0  0  0
  4  9  1  0  0  0  0
  5 10  1  0  0  0  0
  6 11  1  0  0  0  0
  7 11  1  0  0  0  0
  8 12  1  0  0  0  0
  9 13  1  0  0  0  0
  9 10  2  0  0  0  0
 10 14  1  0  0  0  0
 12 15  1  0  0  0  0
 13 16  2  0  0  0  0
 14 17  2  0  0  0  0
 16 17  1  0  0  0  0
 17 18  1  0  0  0  0
M  END
> <ID>
11600

> <Formula>
C14H22N4

> <FW>
246.3513

> <DSSTox_CID>
26315

> <DSSTox_RID>
81533

> <DSSTox_GSID>
46315

> <DSSTox_FileID_Sort>
6214

> <TS_ChemName>
Quinelorane

> <TS_ChemName_Synonyms>


> <TS_CASRN>
97466-90-5

> <CASRN_ChemName_Relationship>
primary

> <TS_Description>
single chemical compound

> <ChemNote>
stereochem

> <STRUCTURE_Shown>
tested chemical

> <STRUCTURE_Formula>
C14H22N4

> <STRUCTURE_MW>
246.3513

> <STRUCTURE_ChemType>
defined organic

> <STRUCTURE_DefinedOrganicForm>
parent

> <STRUCTURE_IUPAC>
(5aR,9aR)-6-propyl-5,5a,6,7,8,9,9a,10-octahydropyrido[2,3-g]quinazolin-2-amine

> <STRUCTURE_SMILES>
Nc1ncc2C[C@H]3N(CCC[C@@H]3Cc2n1)CCC

> <STRUCTURE_SMILES_Desalt>
Nc1ncc2C[C@H]3N(CCC[C@@H]3Cc2n1)CCC

> <Substance_modify_yyyymmdd>
20110815

$$$$
