97519-39-6
ChemmineR-0915142007XD

 30 32  0  0  1  0  0  0  0  0  1 V2000
    8.2212   -5.6998    0.0000 N   0  0  0  0  0  0  0  0  0  0  0  0
    6.7486   -5.6998    0.0000 C   0  0  0  0  0  0  0  0  0  0  0  0
    6.7486   -4.2589    0.0000 C   0  0  0  0  0  0  0  0  0  0  0  0
    8.2212   -4.2589    0.0000 C   0  0  0  0  0  0  0  0  0  0  0  0
    3.4855   -4.1318    0.0000 C   0  0  0  0  0  0  0  0  0  0  0  0
    9.3760   -6.3566    0.0000 C   0  0  0  0  0  0  0  0  0  0  0  0
    3.4855   -5.4137    0.0000 C   0  0  0  0  0  0  0  0  0  0  0  0
    5.6362   -4.2589    0.0000 N   0  0  0  0  0  0  0  0  0  0  0  0
    2.3413   -6.1023    0.0000 N   0  0  0  0  0  0  0  0  0  0  0  0
    4.5238   -3.4961    0.0000 C   0  0  0  0  0  0  0  0  0  0  0  0
    2.7651   -7.4902    0.0000 C   0  0  0  0  0  0  0  0  0  0  0  0
    2.3096   -3.5385    0.0000 C   0  0  0  0  0  0  0  0  0  0  0  0
    4.1000   -7.4796    0.0000 S   0  0  0  0  0  0  0  0  0  0  0  0
    4.5662   -6.2930    0.0000 C   0  0  0  0  0  0  0  0  0  0  0  0
    9.3760   -7.6703    0.0000 C   0  0  0  0  0  0  0  0  0  0  0  0
    9.3760   -3.6021    0.0000 S   0  0  0  0  0  0  0  0  0  0  0  0
   10.5943   -5.6680    0.0000 C   0  0  0  0  0  0  0  0  0  0  0  0
    5.9328   -6.6109    0.0000 O   0  0  0  0  0  0  0  0  0  0  0  0
    1.1548   -1.3455    0.0000 C   0  0  0  0  0  0  0  0  0  0  0  0
    4.5238   -2.1295    0.0000 O   0  0  0  0  0  0  0  0  0  0  0  0
   10.5308   -8.3377    0.0000 O   0  0  0  0  0  0  0  0  0  0  0  0
    2.3096   -2.0023    0.0000 C   0  0  0  0  0  0  0  0  0  0  0  0
    0.0000   -1.9705    0.0000 O   0  0  0  0  0  0  0  0  0  0  0  0
    1.9494   -8.5496    0.0000 N   0  0  0  0  0  0  0  0  0  0  0  0
   10.5943   -4.2589    0.0000 C   0  0  0  0  0  0  0  0  0  0  0  0
    8.3166   -8.3377    0.0000 O   0  0  0  0  0  0  0  0  0  0  0  0
    1.1548    0.0000    0.0000 O   0  0  0  0  0  0  0  0  0  0  0  0
    8.2212   -3.2207    0.0000 H   0  0  0  0  0  0  0  0  0  0  0  0
    6.7486   -3.1677    0.0000 H   0  0  0  0  0  0  0  0  0  0  0  0
    1.2501   -4.3543    0.0000 H   0  0  0  0  0  0  0  0  0  0  0  0
  1  2  1  0  0  0  0
  1  4  1  0  0  0  0
  1  6  1  0  0  0  0
  2 18  2  0  0  0  0
  2  3  1  0  0  0  0
  3  4  1  0  0  0  0
  3  8  1  1  0  0  0
  3 29  1  6  0  0  0
  4 16  1  0  0  0  0
  4 28  1  6  0  0  0
  5 10  1  0  0  0  0
  5  7  1  0  0  0  0
  5 12  2  0  0  0  0
  6 15  1  0  0  0  0
  6 17  2  0  0  0  0
  7  9  1  0  0  0  0
  7 14  2  0  0  0  0
  8 10  1  0  0  0  0
  9 11  2  0  0  0  0
 10 20  2  0  0  0  0
 11 24  1  0  0  0  0
 11 13  1  0  0  0  0
 12 22  1  0  0  0  0
 12 30  1  0  0  0  0
 13 14  1  0  0  0  0
 15 21  2  0  0  0  0
 15 26  1  0  0  0  0
 16 25  1  0  0  0  0
 17 25  1  0  0  0  0
 19 22  1  0  0  0  0
 19 23  2  0  0  0  0
 19 27  1  0  0  0  0
M  END
> <ID>
11295

> <Formula>
C15H14N4O6S2

> <FW>
410.4249

> <DSSTox_CID>
25925

> <DSSTox_RID>
81227

> <DSSTox_GSID>
45925

> <DSSTox_FileID_Sort>
5908

> <TS_ChemName>
Ceftibuten

> <TS_ChemName_Synonyms>


> <TS_CASRN>
97519-39-6

> <CASRN_ChemName_Relationship>
primary

> <TS_Description>
single chemical compound

> <ChemNote>
stereochem

> <STRUCTURE_Shown>
tested chemical

> <STRUCTURE_Formula>
C15H14N4O6S2

> <STRUCTURE_MW>
410.4249

> <STRUCTURE_ChemType>
defined organic

> <STRUCTURE_DefinedOrganicForm>
parent

> <STRUCTURE_IUPAC>
(6R,7R)-7-{[(2Z)-2-(2-amino-1,3-thiazol-4-yl)-4-carboxybut-2-enoyl]amino}-8-oxo-5-thia-1-azabicyclo[4.2.0]oct-2-ene-2-carboxylic acid

> <STRUCTURE_SMILES>
O=C(O)C\C=C(\c1csc(N)n1)C(=O)N[C@@H]3C(=O)N2C(=CCS[C@@H]23)C(=O)O

> <STRUCTURE_SMILES_Desalt>
O=C(O)C\C=C(\c1csc(N)n1)C(=O)N[C@@H]3C(=O)N2C(=CCS[C@@H]23)C(=O)O

> <Substance_modify_yyyymmdd>
20110930

$$$$
