976-71-6
ChemmineR-0915142007XD

 28 32  0  0  1  0  0  0  0  0  1 V2000
    6.8670   -4.2749    0.0000 C   0  0  0  0  0  0  0  0  0  0  0  0
    5.7173   -4.9439    0.0000 C   0  0  0  0  0  0  0  0  0  0  0  0
    6.8670   -2.9475    0.0000 C   0  0  0  0  0  0  0  0  0  0  0  0
    8.1004   -4.6721    0.0000 C   0  0  0  0  0  0  0  0  0  0  0  0
    4.5676   -4.2749    0.0000 C   0  0  0  0  0  0  0  0  0  0  0  0
    5.7173   -6.2713    0.0000 C   0  0  0  0  0  0  0  0  0  0  0  0
    8.1004   -2.5294    0.0000 C   0  0  0  0  0  0  0  0  0  0  0  0
    5.7173   -2.2890    0.0000 C   0  0  0  0  0  0  0  0  0  0  0  0
    8.9052   -3.6164    0.0000 C   0  0  0  0  0  0  0  0  0  0  0  0
    3.4178   -4.9439    0.0000 C   0  0  0  0  0  0  0  0  0  0  0  0
    4.5676   -2.9475    0.0000 C   0  0  0  0  0  0  0  0  0  0  0  0
    4.5676   -6.9089    0.0000 C   0  0  0  0  0  0  0  0  0  0  0  0
    3.4178   -6.2713    0.0000 C   0  0  0  0  0  0  0  0  0  0  0  0
    2.2890   -4.2749    0.0000 C   0  0  0  0  0  0  0  0  0  0  0  0
    3.4178   -3.4074    0.0000 C   0  0  0  0  0  0  0  0  0  0  0  0
    2.2890   -6.9089    0.0000 C   0  0  0  0  0  0  0  0  0  0  0  0
    1.1393   -4.9439    0.0000 C   0  0  0  0  0  0  0  0  0  0  0  0
    1.1393   -6.2713    0.0000 C   0  0  0  0  0  0  0  0  0  0  0  0
    0.0000   -6.9089    0.0000 O   0  0  0  0  0  0  0  0  0  0  0  0
    6.7730   -1.6201    0.0000 C   0  0  0  0  0  0  0  0  0  0  0  0
    5.7173   -3.6164    0.0000 H   0  0  0  0  0  0  0  0  0  0  0  0
    6.8670   -5.6023    0.0000 H   0  0  0  0  0  0  0  0  0  0  0  0
    4.5676   -5.6023    0.0000 H   0  0  0  0  0  0  0  0  0  0  0  0
    7.3478   -1.4633    0.0000 C   0  0  0  0  0  0  0  0  0  0  0  0
    9.3860   -2.1113    0.0000 O   0  0  0  0  0  0  0  0  0  0  0  0
    8.1004   -0.3867    0.0000 C   0  0  0  0  0  0  0  0  0  0  0  0
    9.3860   -0.7839    0.0000 C   0  0  0  0  0  0  0  0  0  0  0  0
   10.4521    0.0000    0.0000 O   0  0  0  0  0  0  0  0  0  0  0  0
  1  4  1  0  0  0  0
  1  2  1  0  0  0  0
  1  3  1  0  0  0  0
  1 22  1  6  0  0  0
  2  5  1  0  0  0  0
  2  6  1  0  0  0  0
  2 21  1  1  0  0  0
  3  7  1  0  0  0  0
  3  8  1  0  0  0  0
  3 20  1  1  0  0  0
  4  9  1  0  0  0  0
  5 10  1  0  0  0  0
  5 11  1  0  0  0  0
  5 23  1  6  0  0  0
  6 12  2  0  0  0  0
  7  9  1  0  0  0  0
  7 24  1  6  0  0  0
  7 25  1  0  0  0  0
  8 11  1  0  0  0  0
 10 13  1  0  0  0  0
 10 14  1  0  0  0  0
 10 15  1  1  0  0  0
 12 13  1  0  0  0  0
 13 16  2  0  0  0  0
 14 17  1  0  0  0  0
 16 18  1  0  0  0  0
 17 18  1  0  0  0  0
 18 19  2  0  0  0  0
 24 26  1  0  0  0  0
 25 27  1  0  0  0  0
 26 27  1  0  0  0  0
 27 28  2  0  0  0  0
M  END
> <ID>
11299

> <Formula>
C22H28O3

> <FW>
340.4559

> <DSSTox_CID>
25930

> <DSSTox_RID>
81231

> <DSSTox_GSID>
45930

> <DSSTox_FileID_Sort>
5912

> <TS_ChemName>
Canrenone

> <TS_ChemName_Synonyms>


> <TS_CASRN>
976-71-6

> <CASRN_ChemName_Relationship>
primary

> <TS_Description>
single chemical compound

> <ChemNote>
stereochem

> <STRUCTURE_Shown>
tested chemical

> <STRUCTURE_Formula>
C22H28O3

> <STRUCTURE_MW>
340.4559

> <STRUCTURE_ChemType>
defined organic

> <STRUCTURE_DefinedOrganicForm>
parent

> <STRUCTURE_IUPAC>
(8R,9S,10R,13S,14S,17R)-10,13-dimethyl-1,8,9,10,11,12,13,14,15,16-decahydro-3'H-spiro[cyclopenta[a]phenanthrene-17,2'-furan]-3,5'(2H,4'H)-dione

> <STRUCTURE_SMILES>
O=C5CC[C@@]3(CC[C@H]2[C@@H]4C=CC1=CC(=O)CC[C@]1(C)[C@H]4CC[C@@]23C)O5

> <STRUCTURE_SMILES_Desalt>
O=C5CC[C@@]3(CC[C@H]2[C@@H]4C=CC1=CC(=O)CC[C@]1(C)[C@H]4CC[C@@]23C)O5

> <Substance_modify_yyyymmdd>
20110930

$$$$
