97612-24-3
ChemmineR-0915142007XD

 24 24  0  0  1  0  0  0  0  0  1 V2000
   11.2586   -4.8381    0.0000 Cl   0  0  0  0  0  0  0  0  0  0  0  0
    0.4326   -4.0185    0.0000 C    0  0  0  0  0  0  0  0  0  0  0  0
    1.7645   -4.0185    0.0000 C    0  0  0  0  0  0  0  0  0  0  0  0
    2.1629   -2.7663    0.0000 C    0  0  0  0  0  0  0  0  0  0  0  0
    1.0928   -1.9808    0.0000 N    0  0  0  0  0  0  0  0  0  0  0  0
    0.0000   -2.7663    0.0000 C    0  0  0  0  0  0  0  0  0  0  0  0
    1.0928   -0.6716    0.0000 C    0  0  0  0  0  0  0  0  0  0  0  0
    2.2312    0.0000    0.0000 C    0  0  0  0  0  0  0  0  0  0  0  0
    3.3241   -2.0946    0.0000 C    0  0  0  0  0  0  0  0  0  0  0  0
    4.4624   -2.7663    0.0000 N    0  0  0  0  0  0  0  0  0  0  0  0
    5.6122   -2.0946    0.0000 C    0  0  0  0  0  0  0  0  0  0  0  0
    6.7620   -2.7663    0.0000 C    0  0  0  0  0  0  0  0  0  0  0  0
    5.6122   -0.7627    0.0000 O    0  0  0  0  0  0  0  0  0  0  0  0
    6.7620   -4.0982    0.0000 C    0  0  0  0  0  0  0  0  0  0  0  0
    7.9231   -4.7584    0.0000 C    0  0  0  0  0  0  0  0  0  0  0  0
    9.0729   -4.0982    0.0000 C    0  0  0  0  0  0  0  0  0  0  0  0
    9.0729   -2.7663    0.0000 C    0  0  0  0  0  0  0  0  0  0  0  0
    7.9231   -2.0946    0.0000 C    0  0  0  0  0  0  0  0  0  0  0  0
    5.6122   -4.7584    0.0000 O    0  0  0  0  0  0  0  0  0  0  0  0
    4.4624   -4.0982    0.0000 C    0  0  0  0  0  0  0  0  0  0  0  0
    7.9231   -0.7627    0.0000 O    0  0  0  0  0  0  0  0  0  0  0  0
   10.2340   -2.0946    0.0000 C    0  0  0  0  0  0  0  0  0  0  0  0
   11.3838   -2.7663    0.0000 C    0  0  0  0  0  0  0  0  0  0  0  0
    7.9231   -6.0903    0.0000 Cl   0  0  0  0  0  0  0  0  0  0  0  0
  2  3  1  0  0  0  0
  2  6  1  0  0  0  0
  3  4  1  0  0  0  0
  4  9  1  6  0  0  0
  4  5  1  0  0  0  0
  5  7  1  0  0  0  0
  5  6  1  0  0  0  0
  7  8  1  0  0  0  0
  9 10  1  0  0  0  0
 10 11  1  0  0  0  0
 11 13  2  0  0  0  0
 11 12  1  0  0  0  0
 12 14  2  0  0  0  0
 12 18  1  0  0  0  0
 14 15  1  0  0  0  0
 14 19  1  0  0  0  0
 15 16  2  0  0  0  0
 15 24  1  0  0  0  0
 16 17  1  0  0  0  0
 17 18  2  0  0  0  0
 17 22  1  0  0  0  0
 18 21  1  0  0  0  0
 19 20  1  0  0  0  0
 22 23  1  0  0  0  0
M  END
> <ID>
11179

> <Formula>
C17H26Cl2N2O3

> <FW>
377.3059 (36.4609+340.8450)

> <DSSTox_CID>
25769

> <DSSTox_RID>
81111

> <DSSTox_GSID>
45769

> <DSSTox_FileID_Sort>
5792

> <TS_ChemName>
Eticlopride hydrochloride

> <TS_ChemName_Synonyms>


> <TS_CASRN>
97612-24-3

> <CASRN_ChemName_Relationship>
primary

> <TS_Description>
single chemical compound

> <ChemNote>
stereochem; parent [84226-12-0]

> <STRUCTURE_Shown>
tested chemical

> <STRUCTURE_Formula>
C17H26Cl2N2O3

> <STRUCTURE_MW>
377.3059

> <STRUCTURE_ChemType>
defined organic

> <STRUCTURE_DefinedOrganicForm>
complex

> <STRUCTURE_IUPAC>
3-chloro-5-ethyl-N-{[(2S)-1-ethylpyrrolidin-2-yl]methyl}-6-hydroxy-2-methoxybenzamide hydrochloride (1:1)

> <STRUCTURE_SMILES>
Cl.CCN2CCC[C@H]2CNC(=O)c1c(O)c(CC)cc(Cl)c1OC

> <STRUCTURE_SMILES_Desalt>
CCN2CCC[C@H]2CNC(=O)c1c(O)c(CC)cc(Cl)c1OC

> <Substance_modify_yyyymmdd>
20110826

$$$$
