97683-31-3
ChemmineR-0915142007XD

 20 20  0  0  0  0  0  0  0  0  2 V2000
    2.1258   -0.9306    0.0000 C    0  0  0  0  0  0  0  0  0  0  0  0
    2.3137   -2.2795    0.0000 C    0  0  0  0  0  0  0  0  0  0  0  0
    3.0564    0.0000    0.0000 C    0  0  0  0  0  0  0  0  0  0  0  0
    3.4491   -2.9625    0.0000 C    0  0  0  0  0  0  0  0  0  0  0  0
    4.3712   -0.1110    0.0000 C    0  0  0  0  0  0  0  0  0  0  0  0
    5.1139   -1.2379    0.0000 C    0  0  0  0  0  0  0  0  0  0  0  0
    4.6871   -2.5186    0.0000 C    0  0  0  0  0  0  0  0  0  0  0  0
    6.4287   -1.2379    0.0000 C    0  0  0  0  0  0  0  0  0  0  0  0
    6.8385   -2.4673    0.0000 C    0  0  0  0  0  0  0  0  0  0  0  0
    5.7628   -3.2955    0.0000 C    0  0  0  0  0  0  0  0  0  0  0  0
    5.7628   -4.6102    0.0000 S    0  0  0  0  0  0  0  0  0  0  0  0
    4.4480   -4.6102    0.0000 O    0  0  0  0  0  0  0  0  0  0  0  0
    7.1117   -4.6102    0.0000 O    0  0  0  0  0  0  0  0  0  0  0  0
    5.7969   -5.9250    0.0000 O    0  5  0  0  0  0  0  0  0  0  0  0
    1.1867   -3.0052    0.0000 C    0  0  0  0  0  0  0  0  0  0  0  0
    1.2635   -4.3200    0.0000 C    0  0  0  0  0  0  0  0  0  0  0  0
    0.0000   -2.4246    0.0000 C    0  0  0  0  0  0  0  0  0  0  0  0
    7.2056   -0.1281    0.0000 C    0  0  0  0  0  0  0  0  0  0  0  0
    8.5375   -0.2817    0.0000 C    0  0  0  0  0  0  0  0  0  0  0  0
    7.2398   -6.5568    0.0000 Na   0  3  0  0  0  0  0  0  0  0  0  0
  1  2  1  0  0  0  0
  1  3  2  0  0  0  0
  2  4  2  0  0  0  0
  2 15  1  0  0  0  0
  3  5  1  0  0  0  0
  4  7  1  0  0  0  0
  5  6  2  0  0  0  0
  6  8  1  0  0  0  0
  6  7  1  0  0  0  0
  7 10  2  0  0  0  0
  8  9  2  0  0  0  0
  8 18  1  0  0  0  0
  9 10  1  0  0  0  0
 10 11  1  0  0  0  0
 11 12  2  0  0  0  0
 11 13  2  0  0  0  0
 11 14  1  0  0  0  0
 15 16  1  0  0  0  0
 15 17  1  0  0  0  0
 18 19  1  0  0  0  0
M  END
> <ID>
13776

> <Formula>
C15H17NaO3S

> <FW>
300.3484 (277.3592+22.9892)

> <DSSTox_CID>
28713

> <DSSTox_RID>
82982

> <DSSTox_GSID>
48787

> <DSSTox_FileID_Sort>
7659

> <TS_ChemName>
Egualen sodium

> <TS_ChemName_Synonyms>


> <TS_CASRN>
97683-31-3

> <CASRN_ChemName_Relationship>
primary

> <TS_Description>
single chemical compound

> <ChemNote>


> <STRUCTURE_Shown>
tested chemical

> <STRUCTURE_Formula>
C15H17NaO3S

> <STRUCTURE_MW>
300.3484

> <STRUCTURE_ChemType>
defined organic

> <STRUCTURE_DefinedOrganicForm>
salt

> <STRUCTURE_IUPAC>
sodium 3-ethyl-7-(propan-2-yl)azulene-1-sulfonate

> <STRUCTURE_SMILES>
[Na+].CC(C)c1cccc2c(cc(c2c1)S([O-])(=O)=O)CC

> <STRUCTURE_SMILES_Desalt>
CC(C)c1cccc2c(cc(c2c1)S(=O)(=O)O)CC

> <Substance_modify_yyyymmdd>
20111204

$$$$
