97886-45-8
ChemmineR-0915142007XD

 25 25  0  0  0  0  0  0  0  0  1 V2000
    5.2621   -5.5619    0.0000 N   0  0  0  0  0  0  0  0  0  0  0  0
    3.9446   -5.5619    0.0000 C   0  0  0  0  0  0  0  0  0  0  0  0
    5.9248   -4.4180    0.0000 C   0  0  0  0  0  0  0  0  0  0  0  0
    5.2621   -3.2819    0.0000 C   0  0  0  0  0  0  0  0  0  0  0  0
    3.2977   -4.4180    0.0000 C   0  0  0  0  0  0  0  0  0  0  0  0
    3.9446   -3.2819    0.0000 C   0  0  0  0  0  0  0  0  0  0  0  0
    5.9248   -2.1380    0.0000 C   0  0  0  0  0  0  0  0  0  0  0  0
    5.2621   -1.0019    0.0000 O   0  0  0  0  0  0  0  0  0  0  0  0
    7.2423   -2.1380    0.0000 S   0  0  0  0  0  0  0  0  0  0  0  0
    1.9802   -4.4180    0.0000 C   0  0  0  0  0  0  0  0  0  0  0  0
    1.3175   -3.2819    0.0000 O   0  0  0  0  0  0  0  0  0  0  0  0
    1.3175   -5.5619    0.0000 S   0  0  0  0  0  0  0  0  0  0  0  0
    7.2423   -4.4180    0.0000 C   0  0  0  0  0  0  0  0  0  0  0  0
    7.8892   -5.5619    0.0000 F   0  0  0  0  0  0  0  0  0  0  0  0
    7.8892   -3.2819    0.0000 F   0  0  0  0  0  0  0  0  0  0  0  0
    3.2977   -2.1380    0.0000 C   0  0  0  0  0  0  0  0  0  0  0  0
    3.9446   -1.0019    0.0000 C   0  0  0  0  0  0  0  0  0  0  0  0
    2.7376    0.0000    0.0000 C   0  0  0  0  0  0  0  0  0  0  0  0
    5.1832   -0.2682    0.0000 C   0  0  0  0  0  0  0  0  0  0  0  0
    3.2977   -6.6822    0.0000 C   0  0  0  0  0  0  0  0  0  0  0  0
    2.1538   -6.0353    0.0000 F   0  0  0  0  0  0  0  0  0  0  0  0
    4.4338   -7.3528    0.0000 F   0  0  0  0  0  0  0  0  0  0  0  0
    2.6271   -7.8261    0.0000 F   0  0  0  0  0  0  0  0  0  0  0  0
    7.8892   -1.0019    0.0000 C   0  0  0  0  0  0  0  0  0  0  0  0
    0.0000   -5.5619    0.0000 C   0  0  0  0  0  0  0  0  0  0  0  0
  1  2  2  0  0  0  0
  1  3  1  0  0  0  0
  2  5  1  0  0  0  0
  2 20  1  0  0  0  0
  3  4  2  0  0  0  0
  3 13  1  0  0  0  0
  4  6  1  0  0  0  0
  4  7  1  0  0  0  0
  5  6  2  0  0  0  0
  5 10  1  0  0  0  0
  6 16  1  0  0  0  0
  7  8  2  0  0  0  0
  7  9  1  0  0  0  0
  9 24  1  0  0  0  0
 10 11  2  0  0  0  0
 10 12  1  0  0  0  0
 12 25  1  0  0  0  0
 13 14  1  0  0  0  0
 13 15  1  0  0  0  0
 16 17  1  0  0  0  0
 17 18  1  0  0  0  0
 17 19  1  0  0  0  0
 20 21  1  0  0  0  0
 20 22  1  0  0  0  0
 20 23  1  0  0  0  0
M  END
> <ID>
6442

> <Formula>
C15H16F5NO2S2

> <FW>
401.4151

> <DSSTox_CID>
12379

> <DSSTox_RID>
78932

> <DSSTox_GSID>
32379

> <DSSTox_FileID_Sort>
3614

> <TS_ChemName>
Dithiopyr

> <TS_ChemName_Synonyms>


> <TS_CASRN>
97886-45-8

> <CASRN_ChemName_Relationship>
primary

> <TS_Description>
single chemical compound

> <ChemNote>


> <STRUCTURE_Shown>
tested chemical

> <STRUCTURE_Formula>
C15H16F5NO2S2

> <STRUCTURE_MW>
401.4151

> <STRUCTURE_ChemType>
defined organic

> <STRUCTURE_DefinedOrganicForm>
parent

> <STRUCTURE_IUPAC>
S~3~,S~5~-dimethyl 2-(difluoromethyl)-4-(2-methylpropyl)-6-(trifluoromethyl)pyridine-3,5-dicarbothioate

> <STRUCTURE_SMILES>
FC(F)(F)c1nc(c(c(CC(C)C)c1C(=O)SC)C(=O)SC)C(F)F

> <STRUCTURE_SMILES_Desalt>
FC(F)(F)c1nc(c(c(CC(C)C)c1C(=O)SC)C(=O)SC)C(F)F

> <Substance_modify_yyyymmdd>
20080429

$$$$
