979-02-2
ChemmineR-0915142007XD

 30 33  0  0  1  0  0  0  0  0  1 V2000
    1.9913   -3.6808    0.0000 C   0  0  0  0  0  0  0  0  0  0  0  0
    1.3275   -4.8393    0.0000 C   0  0  0  0  0  0  0  0  0  0  0  0
    0.0000   -4.8393    0.0000 O   0  0  0  0  0  0  0  0  0  0  0  0
    1.9913   -5.9858    0.0000 O   0  0  0  0  0  0  0  0  0  0  0  0
    3.3188   -5.9858    0.0000 C   0  0  0  0  0  0  0  0  0  0  0  0
    2.6671   -7.1444    0.0000 H   0  0  0  0  0  0  0  0  0  0  0  0
    3.3188   -4.6583    0.0000 C   0  0  0  0  0  0  0  0  0  0  0  0
    4.4773   -3.9946    0.0000 C   0  0  0  0  0  0  0  0  0  0  0  0
    5.6358   -4.6583    0.0000 C   0  0  0  0  0  0  0  0  0  0  0  0
    5.1893   -3.4153    0.0000 C   0  0  0  0  0  0  0  0  0  0  0  0
    6.7703   -3.9946    0.0000 C   0  0  0  0  0  0  0  0  0  0  0  0
    5.9255   -2.9929    0.0000 H   0  0  0  0  0  0  0  0  0  0  0  0
    6.7703   -2.6671    0.0000 C   0  0  0  0  0  0  0  0  0  0  0  0
    7.9288   -2.0033    0.0000 C   0  0  0  0  0  0  0  0  0  0  0  0
    9.0873   -2.6671    0.0000 C   0  0  0  0  0  0  0  0  0  0  0  0
    9.0873   -1.3396    0.0000 C   0  0  0  0  0  0  0  0  0  0  0  0
    9.0873   -3.9946    0.0000 C   0  0  0  0  0  0  0  0  0  0  0  0
    9.7390   -5.1531    0.0000 H   0  0  0  0  0  0  0  0  0  0  0  0
   10.3545   -4.4170    0.0000 C   0  0  0  0  0  0  0  0  0  0  0  0
   11.1389   -3.3429    0.0000 C   0  0  0  0  0  0  0  0  0  0  0  0
   10.3545   -2.2688    0.0000 C   0  0  0  0  0  0  0  0  0  0  0  0
   10.7648   -1.0017    0.0000 C   0  0  0  0  0  0  0  0  0  0  0  0
    9.8718    0.0000    0.0000 C   0  0  0  0  0  0  0  0  0  0  0  0
   12.0682   -0.7241    0.0000 O   0  0  0  0  0  0  0  0  0  0  0  0
    7.9288   -4.6583    0.0000 C   0  0  0  0  0  0  0  0  0  0  0  0
    8.9546   -5.5272    0.0000 H   0  0  0  0  0  0  0  0  0  0  0  0
    7.9288   -5.9858    0.0000 C   0  0  0  0  0  0  0  0  0  0  0  0
    6.7703   -6.6496    0.0000 C   0  0  0  0  0  0  0  0  0  0  0  0
    5.6358   -5.9858    0.0000 C   0  0  0  0  0  0  0  0  0  0  0  0
    4.4773   -6.6496    0.0000 C   0  0  0  0  0  0  0  0  0  0  0  0
  1  2  1  0  0  0  0
  2  3  2  0  0  0  0
  2  4  1  0  0  0  0
  4  5  1  0  0  0  0
  5  6  1  6  0  0  0
  5  7  1  0  0  0  0
  5 30  1  0  0  0  0
  7  8  1  0  0  0  0
  8  9  1  0  0  0  0
  9 10  1  1  0  0  0
  9 11  1  0  0  0  0
  9 29  1  0  0  0  0
 11 12  1  6  0  0  0
 11 13  1  0  0  0  0
 11 25  1  0  0  0  0
 13 14  1  0  0  0  0
 14 15  1  0  0  0  0
 15 16  1  1  0  0  0
 15 17  1  0  0  0  0
 15 21  1  0  0  0  0
 17 18  1  6  0  0  0
 17 19  1  0  0  0  0
 17 25  1  0  0  0  0
 19 20  1  0  0  0  0
 20 21  2  0  0  0  0
 21 22  1  0  0  0  0
 22 23  1  0  0  0  0
 22 24  2  0  0  0  0
 25 26  1  1  0  0  0
 25 27  1  0  0  0  0
 27 28  1  0  0  0  0
 28 29  2  0  0  0  0
 29 30  1  0  0  0  0
M  END
> <ID>
16255

> <Formula>
C23H32O3

> <FW>
356.4984

> <DSSTox_CID>
31646

> <DSSTox_RID>
97530

> <DSSTox_GSID>
57857

> <DSSTox_FileID_Sort>
8597

> <TS_ChemName>
Dehydropregnenolone acetate

> <TS_ChemName_Synonyms>


> <TS_CASRN>
979-02-2

> <CASRN_ChemName_Relationship>
primary

> <TS_Description>
single chemical compound

> <ChemNote>


> <STRUCTURE_Shown>
tested chemical

> <STRUCTURE_Formula>
C23H32O3

> <STRUCTURE_MW>
356.4984

> <STRUCTURE_ChemType>
defined organic

> <STRUCTURE_DefinedOrganicForm>
parent

> <STRUCTURE_IUPAC>
(3beta)-20-oxopregna-5,16-dien-3-yl acetate

> <STRUCTURE_SMILES>
CC(=O)C4=CC[C@@H]3[C@]4(C)CC[C@H]2[C@H]3CC=C1C[C@H](CC[C@@]12C)OC(C)=O

> <STRUCTURE_SMILES_Desalt>
CC(=O)C4=CC[C@@H]3[C@]4(C)CC[C@H]2[C@H]3CC=C1C[C@H](CC[C@@]12C)OC(C)=O

> <Substance_modify_yyyymmdd>
20131018

$$$$
