979-32-8
ChemmineR-0915142007XD

 29 32  0  0  1  0  0  0  0  0  1 V2000
    6.9405   -3.8236    0.0000 C   0  0  0  0  0  0  0  0  0  0  0  0
    6.9405   -5.1445    0.0000 C   0  0  0  0  0  0  0  0  0  0  0  0
    5.7818   -5.7934    0.0000 C   0  0  0  0  0  0  0  0  0  0  0  0
    4.6463   -5.1445    0.0000 C   0  0  0  0  0  0  0  0  0  0  0  0
    3.4992   -5.7934    0.0000 C   0  0  0  0  0  0  0  0  0  0  0  0
    8.1339   -3.3949    0.0000 C   0  0  0  0  0  0  0  0  0  0  0  0
    3.4992   -7.1375    0.0000 C   0  0  0  0  0  0  0  0  0  0  0  0
    5.7818   -3.1748    0.0000 C   0  0  0  0  0  0  0  0  0  0  0  0
    4.6463   -3.8236    0.0000 C   0  0  0  0  0  0  0  0  0  0  0  0
    8.2150   -5.5385    0.0000 C   0  0  0  0  0  0  0  0  0  0  0  0
    5.7818   -7.1375    0.0000 C   0  0  0  0  0  0  0  0  0  0  0  0
    8.1339   -1.9813    0.0000 O   0  0  0  0  0  0  0  0  0  0  0  0
    2.3405   -5.1445    0.0000 C   0  0  0  0  0  0  0  0  0  0  0  0
    9.2810   -1.3093    0.0000 C   0  0  0  0  0  0  0  0  0  0  0  0
    4.6463   -7.8095    0.0000 C   0  0  0  0  0  0  0  0  0  0  0  0
    8.9913   -4.4841    0.0000 C   0  0  0  0  0  0  0  0  0  0  0  0
    2.3405   -7.8095    0.0000 C   0  0  0  0  0  0  0  0  0  0  0  0
    9.2810    0.0000    0.0000 O   0  0  0  0  0  0  0  0  0  0  0  0
    1.2050   -7.1375    0.0000 C   0  0  0  0  0  0  0  0  0  0  0  0
    1.2050   -5.7934    0.0000 C   0  0  0  0  0  0  0  0  0  0  0  0
    6.9405   -2.4796    0.0000 C   0  0  0  0  0  0  0  0  0  0  0  0
    0.0000   -7.8442    0.0000 O   0  0  0  0  0  0  0  0  0  0  0  0
   10.4397   -1.9813    0.0000 C   0  0  0  0  0  0  0  0  0  0  0  0
   10.4397   -3.3138    0.0000 C   0  0  0  0  0  0  0  0  0  0  0  0
   11.5868   -3.9858    0.0000 C   0  0  0  0  0  0  0  0  0  0  0  0
   11.5868   -5.2952    0.0000 C   0  0  0  0  0  0  0  0  0  0  0  0
    4.6463   -6.4654    0.0000 H   0  0  0  0  0  0  0  0  0  0  0  0
    6.9405   -6.4654    0.0000 H   0  0  0  0  0  0  0  0  0  0  0  0
    5.7818   -4.4841    0.0000 H   0  0  0  0  0  0  0  0  0  0  0  0
  1  2  1  0  0  0  0
  1  6  1  0  0  0  0
  1  8  1  0  0  0  0
  1 21  1  1  0  0  0
  2  3  1  0  0  0  0
  2 10  1  0  0  0  0
  2 28  1  6  0  0  0
  3 11  1  0  0  0  0
  3  4  1  0  0  0  0
  3 29  1  1  0  0  0
  4  9  1  0  0  0  0
  4  5  1  0  0  0  0
  4 27  1  6  0  0  0
  5  7  1  0  0  0  0
  5 13  2  0  0  0  0
  6 12  1  1  0  0  0
  6 16  1  0  0  0  0
  7 17  2  0  0  0  0
  7 15  1  0  0  0  0
  8  9  1  0  0  0  0
 10 16  1  0  0  0  0
 11 15  1  0  0  0  0
 12 14  1  0  0  0  0
 13 20  1  0  0  0  0
 14 18  2  0  0  0  0
 14 23  1  0  0  0  0
 17 19  1  0  0  0  0
 19 20  2  0  0  0  0
 19 22  1  0  0  0  0
 23 24  1  0  0  0  0
 24 25  1  0  0  0  0
 25 26  1  0  0  0  0
M  END
> <ID>
2703

> <Formula>
C23H32O3

> <FW>
356.4984

> <DSSTox_CID>
3004

> <DSSTox_RID>
76827

> <DSSTox_GSID>
23004

> <DSSTox_FileID_Sort>
1511

> <TS_ChemName>
Estradiol valerate

> <TS_ChemName_Synonyms>


> <TS_CASRN>
979-32-8

> <CASRN_ChemName_Relationship>
primary

> <TS_Description>
single chemical compound

> <ChemNote>
stereochem

> <STRUCTURE_Shown>
tested chemical

> <STRUCTURE_Formula>
C23H32O3

> <STRUCTURE_MW>
356.4984

> <STRUCTURE_ChemType>
defined organic

> <STRUCTURE_DefinedOrganicForm>
parent

> <STRUCTURE_IUPAC>
(17beta)-3-hydroxyestra-1(10),2,4-trien-17-yl pentanoate

> <STRUCTURE_SMILES>
CCCCC(=O)O[C@H]2CC[C@H]3[C@@H]4CCc1cc(O)ccc1[C@H]4CC[C@]23C

> <STRUCTURE_SMILES_Desalt>
CCCCC(=O)O[C@H]2CC[C@H]3[C@@H]4CCc1cc(O)ccc1[C@H]4CC[C@]23C

> <Substance_modify_yyyymmdd>
20080429

$$$$
