98-06-6
ChemmineR-0915142007XD

 10 10  0  0  0  0  0  0  0  0  1 V2000
    1.3291   -2.6582    0.0000 C   0  0  0  0  0  0  0  0  0  0  0  0
    2.4827   -3.3333    0.0000 C   0  0  0  0  0  0  0  0  0  0  0  0
    2.4827   -4.6624    0.0000 C   0  0  0  0  0  0  0  0  0  0  0  0
    1.3291   -5.3163    0.0000 C   0  0  0  0  0  0  0  0  0  0  0  0
    0.1754   -4.6624    0.0000 C   0  0  0  0  0  0  0  0  0  0  0  0
    0.1754   -3.3333    0.0000 C   0  0  0  0  0  0  0  0  0  0  0  0
    1.3291   -1.3291    0.0000 C   0  0  0  0  0  0  0  0  0  0  0  0
    0.0000   -1.3291    0.0000 C   0  0  0  0  0  0  0  0  0  0  0  0
    2.6582   -1.3291    0.0000 C   0  0  0  0  0  0  0  0  0  0  0  0
    1.3291    0.0000    0.0000 C   0  0  0  0  0  0  0  0  0  0  0  0
  1  2  2  0  0  0  0
  1  6  1  0  0  0  0
  1  7  1  0  0  0  0
  2  3  1  0  0  0  0
  3  4  2  0  0  0  0
  4  5  1  0  0  0  0
  5  6  2  0  0  0  0
  7  8  1  0  0  0  0
  7  9  1  0  0  0  0
  7 10  1  0  0  0  0
M  END
> <ID>
12288

> <Formula>
C10H14

> <FW>
134.2182

> <DSSTox_CID>
27138

> <DSSTox_RID>
82145

> <DSSTox_GSID>
47138

> <DSSTox_FileID_Sort>
6826

> <TS_ChemName>
tert-Butylbenzene

> <TS_ChemName_Synonyms>


> <TS_CASRN>
98-06-6

> <CASRN_ChemName_Relationship>
primary

> <TS_Description>
single chemical compound

> <ChemNote>


> <STRUCTURE_Shown>
tested chemical

> <STRUCTURE_Formula>
C10H14

> <STRUCTURE_MW>
134.2182

> <STRUCTURE_ChemType>
defined organic

> <STRUCTURE_DefinedOrganicForm>
parent

> <STRUCTURE_IUPAC>
tert-butylbenzene

> <STRUCTURE_SMILES>
CC(C)(C)c1ccccc1

> <STRUCTURE_SMILES_Desalt>
CC(C)(C)c1ccccc1

> <Substance_modify_yyyymmdd>
20100502

$$$$
