98-00-0
ChemmineR-0915142007XD

  7  7  0  0  0  0  0  0  0  0  1 V2000
    3.5169   -2.1419    0.0000 C   0  0  0  0  0  0  0  0  0  0  0  0
    2.3050   -1.5998    0.0000 C   0  0  0  0  0  0  0  0  0  0  0  0
    1.1503   -2.2653    0.0000 C   0  0  0  0  0  0  0  0  0  0  0  0
    0.0000   -1.5998    0.0000 O   0  0  0  0  0  0  0  0  0  0  0  0
    2.4416   -0.2777    0.0000 O   0  0  0  0  0  0  0  0  0  0  0  0
    3.7417    0.0000    0.0000 C   0  0  0  0  0  0  0  0  0  0  0  0
    4.4072   -1.1547    0.0000 C   0  0  0  0  0  0  0  0  0  0  0  0
  1  2  2  0  0  0  0
  1  7  1  0  0  0  0
  2  3  1  0  0  0  0
  2  5  1  0  0  0  0
  3  4  1  0  0  0  0
  5  6  1  0  0  0  0
  6  7  2  0  0  0  0
M  END
> <ID>
4156

> <Formula>
C5H6O2

> <FW>
98.0999

> <DSSTox_CID>
5347

> <DSSTox_RID>
77760

> <DSSTox_GSID>
25347

> <DSSTox_FileID_Sort>
2443

> <TS_ChemName>
Furfuryl alcohol

> <TS_ChemName_Synonyms>
Furfuryl alcohol (2-Furanmethanol)

> <TS_CASRN>
98-00-0

> <CASRN_ChemName_Relationship>
primary

> <TS_Description>
single chemical compound

> <ChemNote>


> <STRUCTURE_Shown>
tested chemical

> <STRUCTURE_Formula>
C5H6O2

> <STRUCTURE_MW>
98.0999

> <STRUCTURE_ChemType>
defined organic

> <STRUCTURE_DefinedOrganicForm>
parent

> <STRUCTURE_IUPAC>
furan-2-ylmethanol

> <STRUCTURE_SMILES>
OCc1ccco1

> <STRUCTURE_SMILES_Desalt>
OCc1ccco1

> <Substance_modify_yyyymmdd>
20080429

$$$$
