98-09-9
ChemmineR-0915142007XD

 10 10  0  0  0  0  0  0  0  0  1 V2000
    3.9872    0.0000    0.0000 Cl   0  0  0  0  0  0  0  0  0  0  0  0
    2.6582   -1.3291    0.0000 C    0  0  0  0  0  0  0  0  0  0  0  0
    2.0042   -2.4827    0.0000 C    0  0  0  0  0  0  0  0  0  0  0  0
    0.6752   -2.4827    0.0000 C    0  0  0  0  0  0  0  0  0  0  0  0
    0.0000   -1.3291    0.0000 C    0  0  0  0  0  0  0  0  0  0  0  0
    0.6752   -0.1754    0.0000 C    0  0  0  0  0  0  0  0  0  0  0  0
    2.0042   -0.1754    0.0000 C    0  0  0  0  0  0  0  0  0  0  0  0
    3.9872   -1.3291    0.0000 S    0  0  0  0  0  0  0  0  0  0  0  0
    3.9872   -2.6582    0.0000 O    0  0  0  0  0  0  0  0  0  0  0  0
    5.3163   -1.3291    0.0000 O    0  0  0  0  0  0  0  0  0  0  0  0
  1  8  1  0  0  0  0
  2  3  2  0  0  0  0
  2  7  1  0  0  0  0
  2  8  1  0  0  0  0
  3  4  1  0  0  0  0
  4  5  2  0  0  0  0
  5  6  1  0  0  0  0
  6  7  2  0  0  0  0
  8  9  2  0  0  0  0
  8 10  2  0  0  0  0
M  END
> <ID>
4742

> <Formula>
C6H5ClO2S

> <FW>
176.6207

> <DSSTox_CID>
6619

> <DSSTox_RID>
78165

> <DSSTox_GSID>
26619

> <DSSTox_FileID_Sort>
2848

> <TS_ChemName>
Benzenesulfonyl chloride

> <TS_ChemName_Synonyms>


> <TS_CASRN>
98-09-9

> <CASRN_ChemName_Relationship>
primary

> <TS_Description>
single chemical compound

> <ChemNote>


> <STRUCTURE_Shown>
tested chemical

> <STRUCTURE_Formula>
C6H5ClO2S

> <STRUCTURE_MW>
176.6207

> <STRUCTURE_ChemType>
defined organic

> <STRUCTURE_DefinedOrganicForm>
parent

> <STRUCTURE_IUPAC>
benzenesulfonyl chloride

> <STRUCTURE_SMILES>
O=S(=O)(Cl)c1ccccc1

> <STRUCTURE_SMILES_Desalt>
O=S(=O)(Cl)c1ccccc1

> <Substance_modify_yyyymmdd>
20080429

$$$$
