98-37-3
ChemmineR-0915142007XD

 12 12  0  0  0  0  0  0  0  0  1 V2000
    3.6322   -5.3220    0.0000 N   0  0  0  0  0  0  0  0  0  0  0  0
    2.4814   -4.6567    0.0000 C   0  0  0  0  0  0  0  0  0  0  0  0
    2.4814   -3.3262    0.0000 C   0  0  0  0  0  0  0  0  0  0  0  0
    1.3305   -2.6610    0.0000 C   0  0  0  0  0  0  0  0  0  0  0  0
    0.1796   -3.3262    0.0000 C   0  0  0  0  0  0  0  0  0  0  0  0
    0.1796   -4.6567    0.0000 C   0  0  0  0  0  0  0  0  0  0  0  0
    1.3305   -5.3220    0.0000 C   0  0  0  0  0  0  0  0  0  0  0  0
    1.3305   -6.6525    0.0000 O   0  0  0  0  0  0  0  0  0  0  0  0
    1.3305   -1.3305    0.0000 S   0  0  0  0  0  0  0  0  0  0  0  0
    1.3305    0.0000    0.0000 O   0  0  0  0  0  0  0  0  0  0  0  0
    2.6610   -1.3305    0.0000 O   0  0  0  0  0  0  0  0  0  0  0  0
    0.0000   -1.3305    0.0000 O   0  0  0  0  0  0  0  0  0  0  0  0
  1  2  1  0  0  0  0
  2  3  2  0  0  0  0
  2  7  1  0  0  0  0
  3  4  1  0  0  0  0
  4  5  2  0  0  0  0
  4  9  1  0  0  0  0
  5  6  1  0  0  0  0
  6  7  2  0  0  0  0
  7  8  1  0  0  0  0
  9 10  1  0  0  0  0
  9 11  2  0  0  0  0
  9 12  2  0  0  0  0
M  END
> <ID>
3716

> <Formula>
C6H7NO4S

> <FW>
189.1891

> <DSSTox_CID>
4500

> <DSSTox_RID>
77430

> <DSSTox_GSID>
24500

> <DSSTox_FileID_Sort>
2113

> <TS_ChemName>
2-Amino-1-phenol-4-sulfonic acid

> <TS_ChemName_Synonyms>


> <TS_CASRN>
98-37-3

> <CASRN_ChemName_Relationship>
primary

> <TS_Description>
single chemical compound

> <ChemNote>


> <STRUCTURE_Shown>
tested chemical

> <STRUCTURE_Formula>
C6H7NO4S

> <STRUCTURE_MW>
189.1891

> <STRUCTURE_ChemType>
defined organic

> <STRUCTURE_DefinedOrganicForm>
parent

> <STRUCTURE_IUPAC>
3-amino-4-hydroxybenzenesulfonic acid

> <STRUCTURE_SMILES>
Oc1ccc(cc1N)S(O)(=O)=O

> <STRUCTURE_SMILES_Desalt>
Oc1ccc(cc1N)S(O)(=O)=O

> <Substance_modify_yyyymmdd>
20080429

$$$$
