98-46-4
ChemmineR-0915142007XD

 13 13  0  0  0  0  0  0  0  0  2 V2000
    1.1537   -2.6598    0.0000 C   0  0  0  0  0  0  0  0  0  0  0  0
    0.4836   -1.5061    0.0000 F   0  0  0  0  0  0  0  0  0  0  0  0
    1.8170   -3.8066    0.0000 F   0  0  0  0  0  0  0  0  0  0  0  0
    0.0000   -3.3230    0.0000 F   0  0  0  0  0  0  0  0  0  0  0  0
    2.3006   -1.9897    0.0000 C   0  0  0  0  0  0  0  0  0  0  0  0
    2.3006   -0.6632    0.0000 C   0  0  0  0  0  0  0  0  0  0  0  0
    3.4543    0.0000    0.0000 C   0  0  0  0  0  0  0  0  0  0  0  0
    4.6080   -0.6632    0.0000 C   0  0  0  0  0  0  0  0  0  0  0  0
    4.6080   -1.9897    0.0000 C   0  0  0  0  0  0  0  0  0  0  0  0
    3.4543   -2.6598    0.0000 C   0  0  0  0  0  0  0  0  0  0  0  0
    5.7549   -2.6598    0.0000 N   0  3  0  0  0  0  0  0  0  0  0  0
    5.7549   -3.9863    0.0000 O   0  0  0  0  0  0  0  0  0  0  0  0
    6.9086   -1.9897    0.0000 O   0  5  0  0  0  0  0  0  0  0  0  0
  1  2  1  0  0  0  0
  1  3  1  0  0  0  0
  1  4  1  0  0  0  0
  1  5  1  0  0  0  0
  5  6  2  0  0  0  0
  5 10  1  0  0  0  0
  6  7  1  0  0  0  0
  7  8  2  0  0  0  0
  8  9  1  0  0  0  0
  9 10  2  0  0  0  0
  9 11  1  0  0  0  0
 11 12  2  0  0  0  0
 11 13  1  0  0  0  0
M  END
> <ID>
4404

> <Formula>
C7H4F3NO2

> <FW>
191.1074

> <DSSTox_CID>
5794

> <DSSTox_RID>
77925

> <DSSTox_GSID>
25794

> <DSSTox_FileID_Sort>
2608

> <TS_ChemName>
1-Nitro-3-(trifluoromethyl)benzene

> <TS_ChemName_Synonyms>


> <TS_CASRN>
98-46-4

> <CASRN_ChemName_Relationship>
primary

> <TS_Description>
single chemical compound

> <ChemNote>


> <STRUCTURE_Shown>
tested chemical

> <STRUCTURE_Formula>
C7H4F3NO2

> <STRUCTURE_MW>
191.1074

> <STRUCTURE_ChemType>
defined organic

> <STRUCTURE_DefinedOrganicForm>
parent

> <STRUCTURE_IUPAC>
1-nitro-3-(trifluoromethyl)benzene

> <STRUCTURE_SMILES>
O=[N+]([O-])c1cc(ccc1)C(F)(F)F

> <STRUCTURE_SMILES_Desalt>
O=[N+]([O-])c1cc(ccc1)C(F)(F)F

> <Substance_modify_yyyymmdd>
20080429

$$$$
