98-57-7
ChemmineR-0915142007XD

 11 11  0  0  0  0  0  0  0  0  1 V2000
    1.3304   -2.6609    0.0000 O    0  0  0  0  0  0  0  0  0  0  0  0
    1.3304   -1.3304    0.0000 S    0  0  0  0  0  0  0  0  0  0  0  0
    4.6631   -2.4812    0.0000 C    0  0  0  0  0  0  0  0  0  0  0  0
    3.3327   -2.4812    0.0000 C    0  0  0  0  0  0  0  0  0  0  0  0
    5.3217   -1.3304    0.0000 C    0  0  0  0  0  0  0  0  0  0  0  0
    2.6609   -1.3304    0.0000 C    0  0  0  0  0  0  0  0  0  0  0  0
    4.6631   -0.1796    0.0000 C    0  0  0  0  0  0  0  0  0  0  0  0
    3.3327   -0.1796    0.0000 C    0  0  0  0  0  0  0  0  0  0  0  0
    0.0000   -1.3304    0.0000 C    0  0  0  0  0  0  0  0  0  0  0  0
    6.6521   -1.3304    0.0000 Cl   0  0  0  0  0  0  0  0  0  0  0  0
    1.3304    0.0000    0.0000 O    0  0  0  0  0  0  0  0  0  0  0  0
  1  2  2  0  0  0  0
  2  6  1  0  0  0  0
  2  9  1  0  0  0  0
  2 11  2  0  0  0  0
  3  4  1  0  0  0  0
  3  5  2  0  0  0  0
  4  6  2  0  0  0  0
  5  7  1  0  0  0  0
  5 10  1  0  0  0  0
  6  8  1  0  0  0  0
  7  8  2  0  0  0  0
M  END
> <ID>
3448

> <Formula>
C7H7ClO2S

> <FW>
190.6473

> <DSSTox_CID>
3974

> <DSSTox_RID>
77245

> <DSSTox_GSID>
23974

> <DSSTox_FileID_Sort>
1928

> <TS_ChemName>
4-Chlorophenyl methyl sulfone

> <TS_ChemName_Synonyms>


> <TS_CASRN>
98-57-7

> <CASRN_ChemName_Relationship>
primary

> <TS_Description>
single chemical compound

> <ChemNote>


> <STRUCTURE_Shown>
tested chemical

> <STRUCTURE_Formula>
C7H7ClO2S

> <STRUCTURE_MW>
190.6473

> <STRUCTURE_ChemType>
defined organic

> <STRUCTURE_DefinedOrganicForm>
parent

> <STRUCTURE_IUPAC>
1-chloro-4-(methylsulfonyl)benzene

> <STRUCTURE_SMILES>
O=S(C)(=O)c1ccc(Cl)cc1

> <STRUCTURE_SMILES_Desalt>
O=S(C)(=O)c1ccc(Cl)cc1

> <Substance_modify_yyyymmdd>
20080429

$$$$
