98-55-5
ChemmineR-0915142007XD

 11 11  0  0  0  0  0  0  0  0  1 V2000
    3.9913   -1.3304    0.0000 C   0  0  0  0  0  0  0  0  0  0  0  0
    3.3327   -2.4812    0.0000 C   0  0  0  0  0  0  0  0  0  0  0  0
    2.0023   -2.4812    0.0000 C   0  0  0  0  0  0  0  0  0  0  0  0
    1.3304   -1.3304    0.0000 C   0  0  0  0  0  0  0  0  0  0  0  0
    2.0023   -0.1796    0.0000 C   0  0  0  0  0  0  0  0  0  0  0  0
    3.3327   -0.1796    0.0000 C   0  0  0  0  0  0  0  0  0  0  0  0
    5.3217   -1.3304    0.0000 C   0  0  0  0  0  0  0  0  0  0  0  0
    5.3217    0.0000    0.0000 C   0  0  0  0  0  0  0  0  0  0  0  0
    5.3217   -2.6609    0.0000 C   0  0  0  0  0  0  0  0  0  0  0  0
    6.6521   -1.3304    0.0000 O   0  0  0  0  0  0  0  0  0  0  0  0
    0.0000   -1.3304    0.0000 C   0  0  0  0  0  0  0  0  0  0  0  0
  1  2  1  0  0  0  0
  1  6  1  0  0  0  0
  1  7  1  0  0  0  0
  2  3  1  0  0  0  0
  3  4  2  0  0  0  0
  4  5  1  0  0  0  0
  4 11  1  0  0  0  0
  5  6  1  0  0  0  0
  7  8  1  0  0  0  0
  7  9  1  0  0  0  0
  7 10  1  0  0  0  0
M  END
> <ID>
4745

> <Formula>
C10H18O

> <FW>
154.2493

> <DSSTox_CID>
6625

> <DSSTox_RID>
78167

> <DSSTox_GSID>
26625

> <DSSTox_FileID_Sort>
2850

> <TS_ChemName>
alpha-Terpineol

> <TS_ChemName_Synonyms>
3-Cyclohexene-1-methanol, .alpha.,.alpha.,4-trimethyl-); p-Menth-1-en-8-ol

> <TS_CASRN>
98-55-5

> <CASRN_ChemName_Relationship>
primary

> <TS_Description>
single chemical compound

> <ChemNote>


> <STRUCTURE_Shown>
tested chemical

> <STRUCTURE_Formula>
C10H18O

> <STRUCTURE_MW>
154.2493

> <STRUCTURE_ChemType>
defined organic

> <STRUCTURE_DefinedOrganicForm>
parent

> <STRUCTURE_IUPAC>
2-(4-methylcyclohex-3-en-1-yl)propan-2-ol

> <STRUCTURE_SMILES>
CC1=CCC(CC1)C(O)(C)C

> <STRUCTURE_SMILES_Desalt>
CC1=CCC(CC1)C(O)(C)C

> <Substance_modify_yyyymmdd>
20080429

$$$$
