98-50-0
ChemmineR-0915142007XD

 11 11  0  0  0  0  0  0  0  0  1 V2000
    1.3304   -1.3304    0.0000 As   0  0  0  0  0  0  0  0  0  0  0  0
    2.6475   -1.3304    0.0000 C    0  0  0  0  0  0  0  0  0  0  0  0
    1.3304   -2.6608    0.0000 O    0  0  0  0  0  0  0  0  0  0  0  0
    1.3304    0.0000    0.0000 O    0  0  0  0  0  0  0  0  0  0  0  0
    0.0000   -1.3304    0.0000 O    0  0  0  0  0  0  0  0  0  0  0  0
    3.3194   -2.4812    0.0000 C    0  0  0  0  0  0  0  0  0  0  0  0
    3.3194   -0.1796    0.0000 C    0  0  0  0  0  0  0  0  0  0  0  0
    5.3217   -1.3304    0.0000 C    0  0  0  0  0  0  0  0  0  0  0  0
    6.6521   -1.3304    0.0000 N    0  0  0  0  0  0  0  0  0  0  0  0
    4.6498   -2.4812    0.0000 C    0  0  0  0  0  0  0  0  0  0  0  0
    4.6498   -0.1796    0.0000 C    0  0  0  0  0  0  0  0  0  0  0  0
  1  2  1  0  0  0  0
  1  3  2  0  0  0  0
  1  4  1  0  0  0  0
  1  5  1  0  0  0  0
  2  6  1  0  0  0  0
  2  7  2  0  0  0  0
  6 10  2  0  0  0  0
  7 11  1  0  0  0  0
  8 11  2  0  0  0  0
  8  9  1  0  0  0  0
  8 10  1  0  0  0  0
M  END
> <ID>
6994

> <Formula>
C6H8AsNO3

> <FW>
217.0542

> <DSSTox_CID>
15138

> <DSSTox_RID>
79239

> <DSSTox_GSID>
35138

> <DSSTox_FileID_Sort>
3921

> <TS_ChemName>
(4-Aminophenyl)arsonic acid

> <TS_ChemName_Synonyms>
(4-Aminophenyl)arsonic acid (p-Aminobenzenearsonic acid) (p-Arsanilic acid)

> <TS_CASRN>
98-50-0

> <CASRN_ChemName_Relationship>
primary

> <TS_Description>
single chemical compound

> <ChemNote>


> <STRUCTURE_Shown>
tested chemical

> <STRUCTURE_Formula>
C6H8AsNO3

> <STRUCTURE_MW>
217.0542

> <STRUCTURE_ChemType>
organometallic

> <STRUCTURE_DefinedOrganicForm>


> <STRUCTURE_IUPAC>
(4-aminophenyl)arsonic acid

> <STRUCTURE_SMILES>
O=[As](O)(O)c1ccc(N)cc1

> <STRUCTURE_SMILES_Desalt>
O=[As](O)(O)c1ccc(N)cc1

> <Substance_modify_yyyymmdd>
20080429

$$$$
