98-56-6
ChemmineR-0915142007XD

 11 11  0  0  0  0  0  0  0  0  1 V2000
    5.3217   -1.3304    0.0000 C    0  0  0  0  0  0  0  0  0  0  0  0
    5.3217   -2.6609    0.0000 F    0  0  0  0  0  0  0  0  0  0  0  0
    5.3217    0.0000    0.0000 F    0  0  0  0  0  0  0  0  0  0  0  0
    6.6521   -1.3304    0.0000 F    0  0  0  0  0  0  0  0  0  0  0  0
    3.9913   -1.3304    0.0000 C    0  0  0  0  0  0  0  0  0  0  0  0
    3.3261   -2.4813    0.0000 C    0  0  0  0  0  0  0  0  0  0  0  0
    1.9956   -2.4813    0.0000 C    0  0  0  0  0  0  0  0  0  0  0  0
    1.3304   -1.3304    0.0000 C    0  0  0  0  0  0  0  0  0  0  0  0
    0.0000   -1.3304    0.0000 Cl   0  0  0  0  0  0  0  0  0  0  0  0
    1.9956   -0.1796    0.0000 C    0  0  0  0  0  0  0  0  0  0  0  0
    3.3261   -0.1796    0.0000 C    0  0  0  0  0  0  0  0  0  0  0  0
  1  2  1  0  0  0  0
  1  3  1  0  0  0  0
  1  4  1  0  0  0  0
  1  5  1  0  0  0  0
  5  6  2  0  0  0  0
  5 11  1  0  0  0  0
  6  7  1  0  0  0  0
  7  8  2  0  0  0  0
  8  9  1  0  0  0  0
  8 10  1  0  0  0  0
 10 11  2  0  0  0  0
M  END
> <ID>
3866

> <Formula>
C7H4ClF3

> <FW>
180.5549

> <DSSTox_CID>
4821

> <DSSTox_RID>
77542

> <DSSTox_GSID>
24821

> <DSSTox_FileID_Sort>
2225

> <TS_ChemName>
1-Chloro-4-(trifluoromethyl)benzene

> <TS_ChemName_Synonyms>
1-chloro-4-(trifluoromethyl)benzene (p-Chloro-a,a,a-trifluorotoluene) (p-Chlorobenzotrifluoride)

> <TS_CASRN>
98-56-6

> <CASRN_ChemName_Relationship>
primary

> <TS_Description>
single chemical compound

> <ChemNote>


> <STRUCTURE_Shown>
tested chemical

> <STRUCTURE_Formula>
C7H4ClF3

> <STRUCTURE_MW>
180.5549

> <STRUCTURE_ChemType>
defined organic

> <STRUCTURE_DefinedOrganicForm>
parent

> <STRUCTURE_IUPAC>
1-chloro-4-(trifluoromethyl)benzene

> <STRUCTURE_SMILES>
FC(F)(F)c1ccc(Cl)cc1

> <STRUCTURE_SMILES_Desalt>
FC(F)(F)c1ccc(Cl)cc1

> <Substance_modify_yyyymmdd>
20080429

$$$$
