98-69-1
ChemmineR-0915142007XD

 12 12  0  0  0  0  0  0  0  0  1 V2000
    0.0000   -2.4844    0.0000 C   0  0  0  0  0  0  0  0  0  0  0  0
    0.6723   -1.3299    0.0000 C   0  0  0  0  0  0  0  0  0  0  0  0
    2.0021   -1.3299    0.0000 C   0  0  0  0  0  0  0  0  0  0  0  0
    2.6598   -0.1754    0.0000 C   0  0  0  0  0  0  0  0  0  0  0  0
    3.9897   -0.1754    0.0000 C   0  0  0  0  0  0  0  0  0  0  0  0
    4.6473   -1.3299    0.0000 C   0  0  0  0  0  0  0  0  0  0  0  0
    3.9897   -2.4844    0.0000 C   0  0  0  0  0  0  0  0  0  0  0  0
    2.6598   -2.4844    0.0000 C   0  0  0  0  0  0  0  0  0  0  0  0
    5.9772   -1.3299    0.0000 S   0  0  0  0  0  0  0  0  0  0  0  0
    5.9772    0.0000    0.0000 O   0  0  0  0  0  0  0  0  0  0  0  0
    7.3071   -1.3299    0.0000 O   0  0  0  0  0  0  0  0  0  0  0  0
    5.9772   -2.6598    0.0000 O   0  0  0  0  0  0  0  0  0  0  0  0
  1  2  1  0  0  0  0
  2  3  1  0  0  0  0
  3  4  2  0  0  0  0
  3  8  1  0  0  0  0
  4  5  1  0  0  0  0
  5  6  2  0  0  0  0
  6  7  1  0  0  0  0
  6  9  1  0  0  0  0
  7  8  2  0  0  0  0
  9 10  1  0  0  0  0
  9 11  2  0  0  0  0
  9 12  2  0  0  0  0
M  END
> <ID>
11796

> <Formula>
C8H10O3S

> <FW>
186.2282

> <DSSTox_CID>
26571

> <DSSTox_RID>
81730

> <DSSTox_GSID>
46571

> <DSSTox_FileID_Sort>
6411

> <TS_ChemName>
4-Ethylbenzenesulfonic acid

> <TS_ChemName_Synonyms>


> <TS_CASRN>
98-69-1

> <CASRN_ChemName_Relationship>
primary

> <TS_Description>
single chemical compound

> <ChemNote>


> <STRUCTURE_Shown>
tested chemical

> <STRUCTURE_Formula>
C8H10O3S

> <STRUCTURE_MW>
186.2282

> <STRUCTURE_ChemType>
defined organic

> <STRUCTURE_DefinedOrganicForm>
parent

> <STRUCTURE_IUPAC>
4-ethylbenzenesulfonic acid

> <STRUCTURE_SMILES>
OS(=O)(=O)c1ccc(CC)cc1

> <STRUCTURE_SMILES_Desalt>
OS(=O)(=O)c1ccc(CC)cc1

> <Substance_modify_yyyymmdd>
20110810

$$$$
