98-67-9
ChemmineR-0915142007XD

 11 11  0  0  0  0  0  0  0  0  1 V2000
    4.5899   -1.1475    0.0000 S   0  0  0  0  0  0  0  0  0  0  0  0
    3.4424   -1.8360    0.0000 C   0  0  0  0  0  0  0  0  0  0  0  0
    3.9071    0.0000    0.0000 O   0  0  0  0  0  0  0  0  0  0  0  0
    5.2726   -2.2949    0.0000 O   0  0  0  0  0  0  0  0  0  0  0  0
    5.7373   -0.4647    0.0000 O   0  0  0  0  0  0  0  0  0  0  0  0
    3.4424   -3.1555    0.0000 C   0  0  0  0  0  0  0  0  0  0  0  0
    2.2949   -1.1647    0.0000 C   0  0  0  0  0  0  0  0  0  0  0  0
    1.1475   -3.1555    0.0000 C   0  0  0  0  0  0  0  0  0  0  0  0
    1.1475   -1.8360    0.0000 C   0  0  0  0  0  0  0  0  0  0  0  0
    2.2949   -3.8268    0.0000 C   0  0  0  0  0  0  0  0  0  0  0  0
    0.0000   -3.8268    0.0000 O   0  0  0  0  0  0  0  0  0  0  0  0
  1  2  1  0  0  0  0
  1  3  2  0  0  0  0
  1  4  2  0  0  0  0
  1  5  1  0  0  0  0
  2  6  2  0  0  0  0
  2  7  1  0  0  0  0
  6 10  1  0  0  0  0
  7  9  2  0  0  0  0
  8  9  1  0  0  0  0
  8 11  1  0  0  0  0
  8 10  2  0  0  0  0
M  END
> <ID>
11665

> <Formula>
C6H6O4S

> <FW>
174.1744

> <DSSTox_CID>
26421

> <DSSTox_RID>
81599

> <DSSTox_GSID>
46421

> <DSSTox_FileID_Sort>
6280

> <TS_ChemName>
4-Phenolsulfonic acid

> <TS_ChemName_Synonyms>


> <TS_CASRN>
98-67-9

> <CASRN_ChemName_Relationship>
primary

> <TS_Description>
single chemical compound

> <ChemNote>


> <STRUCTURE_Shown>
tested chemical

> <STRUCTURE_Formula>
C6H6O4S

> <STRUCTURE_MW>
174.1744

> <STRUCTURE_ChemType>
defined organic

> <STRUCTURE_DefinedOrganicForm>
parent

> <STRUCTURE_IUPAC>
4-hydroxybenzenesulfonic acid

> <STRUCTURE_SMILES>
Oc1ccc(cc1)S(O)(=O)=O

> <STRUCTURE_SMILES_Desalt>
Oc1ccc(cc1)S(O)(=O)=O

> <Substance_modify_yyyymmdd>
20110813

$$$$
