98-66-8
ChemmineR-0915142007XD

 11 11  0  0  0  0  0  0  0  0  1 V2000
    4.6086   -1.1550    0.0000 S    0  0  0  0  0  0  0  0  0  0  0  0
    3.4536   -1.8331    0.0000 C    0  0  0  0  0  0  0  0  0  0  0  0
    3.9190    0.0000    0.0000 O    0  0  0  0  0  0  0  0  0  0  0  0
    5.2809   -2.2986    0.0000 O    0  0  0  0  0  0  0  0  0  0  0  0
    5.7464   -0.4655    0.0000 O    0  0  0  0  0  0  0  0  0  0  0  0
    3.4536   -3.1605    0.0000 C    0  0  0  0  0  0  0  0  0  0  0  0
    2.3101   -1.1723    0.0000 C    0  0  0  0  0  0  0  0  0  0  0  0
    1.1550   -3.1490    0.0000 C    0  0  0  0  0  0  0  0  0  0  0  0
    1.1550   -1.8331    0.0000 C    0  0  0  0  0  0  0  0  0  0  0  0
    2.3101   -3.8214    0.0000 C    0  0  0  0  0  0  0  0  0  0  0  0
    0.0000   -3.8214    0.0000 Cl   0  0  0  0  0  0  0  0  0  0  0  0
  1  2  1  0  0  0  0
  1  3  2  0  0  0  0
  1  4  2  0  0  0  0
  1  5  1  0  0  0  0
  2  6  2  0  0  0  0
  2  7  1  0  0  0  0
  6 10  1  0  0  0  0
  7  9  2  0  0  0  0
  8  9  1  0  0  0  0
  8 11  1  0  0  0  0
  8 10  2  0  0  0  0
M  END
> <ID>
10130

> <Formula>
C6H5ClO3S

> <FW>
192.6201

> <DSSTox_CID>
24473

> <DSSTox_RID>
80255

> <DSSTox_GSID>
44473

> <DSSTox_FileID_Sort>
4937

> <TS_ChemName>
4-Chlorobenzenesulfonic acid

> <TS_ChemName_Synonyms>
4-Chlorobenzenesulfonic acid (Benzenesulfonic acid, 4-chloro-0

> <TS_CASRN>
98-66-8

> <CASRN_ChemName_Relationship>
primary

> <TS_Description>
single chemical compound

> <ChemNote>


> <STRUCTURE_Shown>
tested chemical

> <STRUCTURE_Formula>
C6H5ClO3S

> <STRUCTURE_MW>
192.6201

> <STRUCTURE_ChemType>
defined organic

> <STRUCTURE_DefinedOrganicForm>
parent

> <STRUCTURE_IUPAC>
4-chlorobenzenesulfonic acid

> <STRUCTURE_SMILES>
OS(=O)(=O)c1ccc(Cl)cc1

> <STRUCTURE_SMILES_Desalt>
OS(=O)(=O)c1ccc(Cl)cc1

> <Substance_modify_yyyymmdd>
20091116

$$$$
