98-73-7
ChemmineR-0915142007XD

 13 13  0  0  0  0  0  0  0  0  1 V2000
    6.6500   -1.3315    0.0000 C   0  0  0  0  0  0  0  0  0  0  0  0
    7.3157   -0.1829    0.0000 O   0  0  0  0  0  0  0  0  0  0  0  0
    5.3185   -1.3315    0.0000 C   0  0  0  0  0  0  0  0  0  0  0  0
    7.3157   -2.4874    0.0000 O   0  0  0  0  0  0  0  0  0  0  0  0
    4.6528   -2.4874    0.0000 C   0  0  0  0  0  0  0  0  0  0  0  0
    4.6528   -0.1829    0.0000 C   0  0  0  0  0  0  0  0  0  0  0  0
    3.3287   -2.4874    0.0000 C   0  0  0  0  0  0  0  0  0  0  0  0
    3.3287   -0.1829    0.0000 C   0  0  0  0  0  0  0  0  0  0  0  0
    2.6629   -1.3315    0.0000 C   0  0  0  0  0  0  0  0  0  0  0  0
    1.3315   -1.3315    0.0000 C   0  0  0  0  0  0  0  0  0  0  0  0
    1.3315   -2.6629    0.0000 C   0  0  0  0  0  0  0  0  0  0  0  0
    1.3315    0.0000    0.0000 C   0  0  0  0  0  0  0  0  0  0  0  0
    0.0000   -1.3315    0.0000 C   0  0  0  0  0  0  0  0  0  0  0  0
  1  2  2  0  0  0  0
  1  3  1  0  0  0  0
  1  4  1  0  0  0  0
  3  5  2  0  0  0  0
  3  6  1  0  0  0  0
  5  7  1  0  0  0  0
  6  8  2  0  0  0  0
  7  9  2  0  0  0  0
  8  9  1  0  0  0  0
  9 10  1  0  0  0  0
 10 11  1  0  0  0  0
 10 12  1  0  0  0  0
 10 13  1  0  0  0  0
M  END
> <ID>
7899

> <Formula>
C11H14O2

> <FW>
178.2277

> <DSSTox_CID>
20703

> <DSSTox_RID>
79554

> <DSSTox_GSID>
40703

> <DSSTox_FileID_Sort>
4236

> <TS_ChemName>
4-tert-Butylbenzoic acid

> <TS_ChemName_Synonyms>
4-tert-Butylbenzoic acid (Benzoic acid, 4-(1,1-dimethylethyl)-)

> <TS_CASRN>
98-73-7

> <CASRN_ChemName_Relationship>
primary

> <TS_Description>
single chemical compound

> <ChemNote>


> <STRUCTURE_Shown>
tested chemical

> <STRUCTURE_Formula>
C11H14O2

> <STRUCTURE_MW>
178.2277

> <STRUCTURE_ChemType>
defined organic

> <STRUCTURE_DefinedOrganicForm>
parent

> <STRUCTURE_IUPAC>
4-tert-butylbenzoic acid

> <STRUCTURE_SMILES>
CC(C)(C)c1ccc(cc1)C(=O)O

> <STRUCTURE_SMILES_Desalt>
CC(C)(C)c1ccc(cc1)C(=O)O

> <Substance_modify_yyyymmdd>
20080429

$$$$
