98-79-3
ChemmineR-0915142007XD

  9  9  0  0  1  0  0  0  0  0  1 V2000
    2.3544   -0.9134    0.0000 N   0  0  0  0  0  0  0  0  0  0  0  0
    1.2822   -1.6680    0.0000 C   0  0  0  0  0  0  0  0  0  0  0  0
    3.4324   -1.6850    0.0000 C   0  0  0  0  0  0  0  0  0  0  0  0
    4.6976   -1.2992    0.0000 C   0  0  0  0  0  0  0  0  0  0  0  0
    4.9982    0.0000    0.0000 O   0  0  0  0  0  0  0  0  0  0  0  0
    0.0000   -1.2538    0.0000 O   0  0  0  0  0  0  0  0  0  0  0  0
    2.9955   -2.9502    0.0000 C   0  0  0  0  0  0  0  0  0  0  0  0
    1.6850   -2.9502    0.0000 C   0  0  0  0  0  0  0  0  0  0  0  0
    5.6734   -2.2126    0.0000 O   0  0  0  0  0  0  0  0  0  0  0  0
  1  2  1  0  0  0  0
  1  3  1  0  0  0  0
  2  6  2  0  0  0  0
  2  8  1  0  0  0  0
  3  4  1  6  0  0  0
  3  7  1  0  0  0  0
  4  5  2  0  0  0  0
  4  9  1  0  0  0  0
  7  8  1  0  0  0  0
M  END
> <ID>
11554

> <Formula>
C5H7NO3

> <FW>
129.114

> <DSSTox_CID>
26260

> <DSSTox_RID>
81487

> <DSSTox_GSID>
46260

> <DSSTox_FileID_Sort>
6168

> <TS_ChemName>
Pidolic acid

> <TS_ChemName_Synonyms>


> <TS_CASRN>
98-79-3

> <CASRN_ChemName_Relationship>
primary

> <TS_Description>
single chemical compound

> <ChemNote>
stereochem

> <STRUCTURE_Shown>
tested chemical

> <STRUCTURE_Formula>
C5H7NO3

> <STRUCTURE_MW>
129.114

> <STRUCTURE_ChemType>
defined organic

> <STRUCTURE_DefinedOrganicForm>
parent

> <STRUCTURE_IUPAC>
5-oxo-L-proline

> <STRUCTURE_SMILES>
O=C(O)[C@@H]1CCC(=O)N1

> <STRUCTURE_SMILES_Desalt>
O=C(O)[C@@H]1CCC(=O)N1

> <Substance_modify_yyyymmdd>
20110816

$$$$
