98-72-6
ChemmineR-0915142007XD

 13 13  0  0  0  0  0  0  0  0  2 V2000
    1.1402   -1.1402    0.0000 As   0  0  0  0  0  0  0  0  0  0  0  0
    5.7701   -3.8076    0.0000 N    0  3  0  0  0  0  0  0  0  0  0  0
    2.3149   -1.8174    0.0000 C    0  0  0  0  0  0  0  0  0  0  0  0
    4.5953   -3.1511    0.0000 C    0  0  0  0  0  0  0  0  0  0  0  0
    6.9103   -3.1511    0.0000 O    0  5  0  0  0  0  0  0  0  0  0  0
    0.0000   -0.4837    0.0000 O    0  0  0  0  0  0  0  0  0  0  0  0
    5.7701   -5.1412    0.0000 O    0  0  0  0  0  0  0  0  0  0  0  0
    0.4975   -2.3149    0.0000 O    0  0  0  0  0  0  0  0  0  0  0  0
    1.8312    0.0000    0.0000 O    0  0  0  0  0  0  0  0  0  0  0  0
    3.4551   -1.1402    0.0000 C    0  0  0  0  0  0  0  0  0  0  0  0
    2.3149   -3.1511    0.0000 C    0  0  0  0  0  0  0  0  0  0  0  0
    4.5953   -1.8174    0.0000 C    0  0  0  0  0  0  0  0  0  0  0  0
    3.4551   -3.8076    0.0000 C    0  0  0  0  0  0  0  0  0  0  0  0
  1  3  1  0  0  0  0
  1  6  2  0  0  0  0
  1  8  1  0  0  0  0
  1  9  1  0  0  0  0
  2  4  1  0  0  0  0
  2  5  1  0  0  0  0
  2  7  2  0  0  0  0
  3 10  1  0  0  0  0
  3 11  2  0  0  0  0
  4 13  2  0  0  0  0
  4 12  1  0  0  0  0
 10 12  2  0  0  0  0
 11 13  1  0  0  0  0
M  END
> <ID>
10652

> <Formula>
C6H6AsNO5

> <FW>
247.0371

> <DSSTox_CID>
25007

> <DSSTox_RID>
80648

> <DSSTox_GSID>
45007

> <DSSTox_FileID_Sort>
5330

> <TS_ChemName>
Nitarsone

> <TS_ChemName_Synonyms>


> <TS_CASRN>
98-72-6

> <CASRN_ChemName_Relationship>
primary

> <TS_Description>
single chemical compound

> <ChemNote>


> <STRUCTURE_Shown>
tested chemical

> <STRUCTURE_Formula>
C6H6AsNO5

> <STRUCTURE_MW>
247.0371

> <STRUCTURE_ChemType>
organometallic

> <STRUCTURE_DefinedOrganicForm>


> <STRUCTURE_IUPAC>
(4-nitrophenyl)arsonic acid

> <STRUCTURE_SMILES>
O=[N+]([O-])c1ccc(cc1)[As](O)(O)=O

> <STRUCTURE_SMILES_Desalt>
O=[N+]([O-])c1ccc(cc1)[As](O)(O)=O

> <Substance_modify_yyyymmdd>
20091116

$$$$
