98-86-2
ChemmineR-0915142007XD

  9  9  0  0  0  0  0  0  0  0  1 V2000
    1.1355   -1.3332    0.0000 C   0  0  0  0  0  0  0  0  0  0  0  0
    1.1355    0.0000    0.0000 O   0  0  0  0  0  0  0  0  0  0  0  0
    0.0000   -2.0043    0.0000 C   0  0  0  0  0  0  0  0  0  0  0  0
    4.5971   -2.0043    0.0000 C   0  0  0  0  0  0  0  0  0  0  0  0
    4.5971   -3.3329    0.0000 C   0  0  0  0  0  0  0  0  0  0  0  0
    3.4432   -3.9903    0.0000 C   0  0  0  0  0  0  0  0  0  0  0  0
    2.2894   -3.3329    0.0000 C   0  0  0  0  0  0  0  0  0  0  0  0
    2.2894   -2.0043    0.0000 C   0  0  0  0  0  0  0  0  0  0  0  0
    3.4432   -1.3332    0.0000 C   0  0  0  0  0  0  0  0  0  0  0  0
  1  3  1  0  0  0  0
  1  2  2  0  0  0  0
  1  8  1  0  0  0  0
  4  9  2  0  0  0  0
  4  5  1  0  0  0  0
  5  6  2  0  0  0  0
  6  7  1  0  0  0  0
  7  8  2  0  0  0  0
  8  9  1  0  0  0  0
M  END
> <ID>
1721

> <Formula>
C8H8O

> <FW>
120.1485

> <DSSTox_CID>
1828

> <DSSTox_RID>
76353

> <DSSTox_GSID>
21828

> <DSSTox_FileID_Sort>
1037

> <TS_ChemName>
Acetophenone

> <TS_ChemName_Synonyms>
ethanone, 1-phenyl-

> <TS_CASRN>
98-86-2

> <CASRN_ChemName_Relationship>
primary

> <TS_Description>
single chemical compound

> <ChemNote>


> <STRUCTURE_Shown>
tested chemical

> <STRUCTURE_Formula>
C8H8O

> <STRUCTURE_MW>
120.1485

> <STRUCTURE_ChemType>
defined organic

> <STRUCTURE_DefinedOrganicForm>
parent

> <STRUCTURE_IUPAC>
1-phenylethanone

> <STRUCTURE_SMILES>
CC(=O)c1ccccc1

> <STRUCTURE_SMILES_Desalt>
CC(=O)c1ccccc1

> <Substance_modify_yyyymmdd>
20080429

$$$$
