98-87-3
ChemmineR-0915142007XD

  9  9  0  0  0  0  0  0  0  0  1 V2000
    1.9965   -1.1542    0.0000 C    0  0  0  0  0  0  0  0  0  0  0  0
    2.6574    0.0000    0.0000 C    0  0  0  0  0  0  0  0  0  0  0  0
    3.9884    0.0000    0.0000 C    0  0  0  0  0  0  0  0  0  0  0  0
    4.6539   -1.1542    0.0000 C    0  0  0  0  0  0  0  0  0  0  0  0
    3.9884   -2.3037    0.0000 C    0  0  0  0  0  0  0  0  0  0  0  0
    2.6574   -2.3037    0.0000 C    0  0  0  0  0  0  0  0  0  0  0  0
    0.6655   -1.1542    0.0000 C    0  0  0  0  0  0  0  0  0  0  0  0
    0.0000   -2.3037    0.0000 Cl   0  0  0  0  0  0  0  0  0  0  0  0
    0.0000    0.0000    0.0000 Cl   0  0  0  0  0  0  0  0  0  0  0  0
  1  2  2  0  0  0  0
  1  6  1  0  0  0  0
  1  7  1  0  0  0  0
  2  3  1  0  0  0  0
  3  4  2  0  0  0  0
  4  5  1  0  0  0  0
  5  6  2  0  0  0  0
  7  8  1  0  0  0  0
  7  9  1  0  0  0  0
M  END
> <ID>
3970

> <Formula>
C7H6Cl2

> <FW>
161.0285

> <DSSTox_CID>
5014

> <DSSTox_RID>
77628

> <DSSTox_GSID>
25014

> <DSSTox_FileID_Sort>
2311

> <TS_ChemName>
Benzal chloride

> <TS_ChemName_Synonyms>
Benzal chloride (alpha,alpha-Dichlorotoluene)

> <TS_CASRN>
98-87-3

> <CASRN_ChemName_Relationship>
primary

> <TS_Description>
single chemical compound

> <ChemNote>


> <STRUCTURE_Shown>
tested chemical

> <STRUCTURE_Formula>
C7H6Cl2

> <STRUCTURE_MW>
161.0285

> <STRUCTURE_ChemType>
defined organic

> <STRUCTURE_DefinedOrganicForm>
parent

> <STRUCTURE_IUPAC>
(dichloromethyl)benzene

> <STRUCTURE_SMILES>
ClC(Cl)c1ccccc1

> <STRUCTURE_SMILES_Desalt>
ClC(Cl)c1ccccc1

> <Substance_modify_yyyymmdd>
20080429

$$$$
