98-83-9
ChemmineR-0915142007XD

  9  9  0  0  0  0  0  0  0  0  1 V2000
    0.6655   -1.1542    0.0000 C   0  0  0  0  0  0  0  0  0  0  0  0
    0.0000   -2.3037    0.0000 C   0  0  0  0  0  0  0  0  0  0  0  0
    0.0000    0.0000    0.0000 C   0  0  0  0  0  0  0  0  0  0  0  0
    1.9965   -1.1542    0.0000 C   0  0  0  0  0  0  0  0  0  0  0  0
    2.6574    0.0000    0.0000 C   0  0  0  0  0  0  0  0  0  0  0  0
    3.9884    0.0000    0.0000 C   0  0  0  0  0  0  0  0  0  0  0  0
    4.6539   -1.1542    0.0000 C   0  0  0  0  0  0  0  0  0  0  0  0
    3.9884   -2.3037    0.0000 C   0  0  0  0  0  0  0  0  0  0  0  0
    2.6574   -2.3037    0.0000 C   0  0  0  0  0  0  0  0  0  0  0  0
  1  2  1  0  0  0  0
  1  3  2  0  0  0  0
  1  4  1  0  0  0  0
  4  5  2  0  0  0  0
  4  9  1  0  0  0  0
  5  6  1  0  0  0  0
  6  7  2  0  0  0  0
  7  8  1  0  0  0  0
  8  9  2  0  0  0  0
M  END
> <ID>
4329

> <Formula>
C9H10

> <FW>
118.1757

> <DSSTox_CID>
5661

> <DSSTox_RID>
77873

> <DSSTox_GSID>
25661

> <DSSTox_FileID_Sort>
2556

> <TS_ChemName>
alpha-Methylstyrene

> <TS_ChemName_Synonyms>
alpha-Methylstyrene (Benzene, (1-methylethenyl)-)

> <TS_CASRN>
98-83-9

> <CASRN_ChemName_Relationship>
primary

> <TS_Description>
single chemical compound

> <ChemNote>


> <STRUCTURE_Shown>
tested chemical

> <STRUCTURE_Formula>
C9H10

> <STRUCTURE_MW>
118.1757

> <STRUCTURE_ChemType>
defined organic

> <STRUCTURE_DefinedOrganicForm>
parent

> <STRUCTURE_IUPAC>
prop-1-en-2-ylbenzene

> <STRUCTURE_SMILES>
C=C(C)c1ccccc1

> <STRUCTURE_SMILES_Desalt>
C=C(C)c1ccccc1

> <Substance_modify_yyyymmdd>
20080429

$$$$
