98-96-4
ChemmineR-0915142007XD

  9  9  0  0  0  0  0  0  0  0  1 V2000
    0.0000   -2.3037    0.0000 N   0  0  0  0  0  0  0  0  0  0  0  0
    0.6655   -1.1542    0.0000 C   0  0  0  0  0  0  0  0  0  0  0  0
    0.0000    0.0000    0.0000 O   0  0  0  0  0  0  0  0  0  0  0  0
    1.9965   -1.1542    0.0000 C   0  0  0  0  0  0  0  0  0  0  0  0
    2.6574    0.0000    0.0000 N   0  0  0  0  0  0  0  0  0  0  0  0
    3.9884    0.0000    0.0000 C   0  0  0  0  0  0  0  0  0  0  0  0
    4.6539   -1.1542    0.0000 C   0  0  0  0  0  0  0  0  0  0  0  0
    3.9884   -2.3037    0.0000 N   0  0  0  0  0  0  0  0  0  0  0  0
    2.6574   -2.3037    0.0000 C   0  0  0  0  0  0  0  0  0  0  0  0
  1  2  1  0  0  0  0
  2  3  2  0  0  0  0
  2  4  1  0  0  0  0
  4  5  2  0  0  0  0
  4  9  1  0  0  0  0
  5  6  1  0  0  0  0
  6  7  2  0  0  0  0
  7  8  1  0  0  0  0
  8  9  2  0  0  0  0
M  END
> <ID>
1169

> <Formula>
C5H5N3O

> <FW>
123.1127

> <DSSTox_CID>
1215

> <DSSTox_RID>
76014

> <DSSTox_GSID>
21215

> <DSSTox_FileID_Sort>
698

> <TS_ChemName>
Pyrazinamide

> <TS_ChemName_Synonyms>
Pyrazinamide (PZA)

> <TS_CASRN>
98-96-4

> <CASRN_ChemName_Relationship>
primary

> <TS_Description>
single chemical compound

> <ChemNote>


> <STRUCTURE_Shown>
tested chemical

> <STRUCTURE_Formula>
C5H5N3O

> <STRUCTURE_MW>
123.1127

> <STRUCTURE_ChemType>
defined organic

> <STRUCTURE_DefinedOrganicForm>
parent

> <STRUCTURE_IUPAC>
pyrazine-2-carboxamide

> <STRUCTURE_SMILES>
NC(=O)c1cnccn1

> <STRUCTURE_SMILES_Desalt>
NC(=O)c1cnccn1

> <Substance_modify_yyyymmdd>
20080429

$$$$
