98-98-6
ChemmineR-0915142007XD

  9  9  0  0  0  0  0  0  0  0  1 V2000
    0.0000   -1.1541    0.0000 C   0  0  0  0  0  0  0  0  0  0  0  0
    0.6702    0.0000    0.0000 C   0  0  0  0  0  0  0  0  0  0  0  0
    2.6527   -1.1541    0.0000 C   0  0  0  0  0  0  0  0  0  0  0  0
    2.0011   -2.3036    0.0000 C   0  0  0  0  0  0  0  0  0  0  0  0
    2.0011    0.0000    0.0000 N   0  0  0  0  0  0  0  0  0  0  0  0
    0.6702   -2.3036    0.0000 C   0  0  0  0  0  0  0  0  0  0  0  0
    3.9837   -1.1541    0.0000 C   0  0  0  0  0  0  0  0  0  0  0  0
    4.6538   -2.3036    0.0000 O   0  0  0  0  0  0  0  0  0  0  0  0
    4.6538    0.0000    0.0000 O   0  0  0  0  0  0  0  0  0  0  0  0
  1  6  2  0  0  0  0
  1  2  1  0  0  0  0
  2  5  2  0  0  0  0
  3  5  1  0  0  0  0
  3  7  1  0  0  0  0
  3  4  2  0  0  0  0
  4  6  1  0  0  0  0
  7  8  1  0  0  0  0
  7  9  2  0  0  0  0
M  END
> <ID>
6365

> <Formula>
C6H5NO2

> <FW>
123.1094

> <DSSTox_CID>
11903

> <DSSTox_RID>
78896

> <DSSTox_GSID>
31903

> <DSSTox_FileID_Sort>
3578

> <TS_ChemName>
Picolinic acid

> <TS_ChemName_Synonyms>


> <TS_CASRN>
98-98-6

> <CASRN_ChemName_Relationship>
primary

> <TS_Description>
single chemical compound

> <ChemNote>


> <STRUCTURE_Shown>
tested chemical

> <STRUCTURE_Formula>
C6H5NO2

> <STRUCTURE_MW>
123.1094

> <STRUCTURE_ChemType>
defined organic

> <STRUCTURE_DefinedOrganicForm>
parent

> <STRUCTURE_IUPAC>
pyridine-2-carboxylic acid

> <STRUCTURE_SMILES>
O=C(O)c1ccccn1

> <STRUCTURE_SMILES_Desalt>
O=C(O)c1ccccn1

> <Substance_modify_yyyymmdd>
20080429

$$$$
