98-95-3
ChemmineR-0915142007XD

  9  9  0  0  0  0  0  0  0  0  2 V2000
    0.0000   -2.3037    0.0000 O   0  0  0  0  0  0  0  0  0  0  0  0
    0.6655   -1.1542    0.0000 N   0  3  0  0  0  0  0  0  0  0  0  0
    1.9965   -1.1542    0.0000 C   0  0  0  0  0  0  0  0  0  0  0  0
    2.6574    0.0000    0.0000 C   0  0  0  0  0  0  0  0  0  0  0  0
    3.9884    0.0000    0.0000 C   0  0  0  0  0  0  0  0  0  0  0  0
    4.6539   -1.1542    0.0000 C   0  0  0  0  0  0  0  0  0  0  0  0
    3.9884   -2.3037    0.0000 C   0  0  0  0  0  0  0  0  0  0  0  0
    2.6574   -2.3037    0.0000 C   0  0  0  0  0  0  0  0  0  0  0  0
    0.0000    0.0000    0.0000 O   0  5  0  0  0  0  0  0  0  0  0  0
  1  2  2  0  0  0  0
  2  3  1  0  0  0  0
  2  9  1  0  0  0  0
  3  4  2  0  0  0  0
  3  8  1  0  0  0  0
  4  5  1  0  0  0  0
  5  6  2  0  0  0  0
  6  7  1  0  0  0  0
  7  8  2  0  0  0  0
M  END
> <ID>
928

> <Formula>
C6H5NO2

> <FW>
123.1094

> <DSSTox_CID>
964

> <DSSTox_RID>
75892

> <DSSTox_GSID>
20964

> <DSSTox_FileID_Sort>
576

> <TS_ChemName>
Nitrobenzene

> <TS_ChemName_Synonyms>


> <TS_CASRN>
98-95-3

> <CASRN_ChemName_Relationship>
primary

> <TS_Description>
single chemical compound

> <ChemNote>


> <STRUCTURE_Shown>
tested chemical

> <STRUCTURE_Formula>
C6H5NO2

> <STRUCTURE_MW>
123.1094

> <STRUCTURE_ChemType>
defined organic

> <STRUCTURE_DefinedOrganicForm>
parent

> <STRUCTURE_IUPAC>
nitrobenzene

> <STRUCTURE_SMILES>
[O-][N+](=O)c1ccccc1

> <STRUCTURE_SMILES_Desalt>
[O-][N+](=O)c1ccccc1

> <Substance_modify_yyyymmdd>
20080429

$$$$
