98-94-2
ChemmineR-0915142007XD

  9  9  0  0  0  0  0  0  0  0  1 V2000
    2.6527   -1.1541    0.0000 C   0  0  0  0  0  0  0  0  0  0  0  0
    2.0011   -2.3036    0.0000 C   0  0  0  0  0  0  0  0  0  0  0  0
    0.6702   -2.3036    0.0000 C   0  0  0  0  0  0  0  0  0  0  0  0
    0.0000   -1.1541    0.0000 C   0  0  0  0  0  0  0  0  0  0  0  0
    0.6702    0.0000    0.0000 C   0  0  0  0  0  0  0  0  0  0  0  0
    2.0011    0.0000    0.0000 C   0  0  0  0  0  0  0  0  0  0  0  0
    3.9837   -1.1541    0.0000 N   0  0  0  0  0  0  0  0  0  0  0  0
    4.6538   -2.3036    0.0000 C   0  0  0  0  0  0  0  0  0  0  0  0
    4.6538    0.0000    0.0000 C   0  0  0  0  0  0  0  0  0  0  0  0
  1  2  1  0  0  0  0
  1  6  1  0  0  0  0
  1  7  1  0  0  0  0
  2  3  1  0  0  0  0
  3  4  1  0  0  0  0
  4  5  1  0  0  0  0
  5  6  1  0  0  0  0
  7  8  1  0  0  0  0
  7  9  1  0  0  0  0
M  END
> <ID>
4747

> <Formula>
C8H17N

> <FW>
127.2273

> <DSSTox_CID>
6633

> <DSSTox_RID>
78169

> <DSSTox_GSID>
26633

> <DSSTox_FileID_Sort>
2852

> <TS_ChemName>
N,N-Dimethylcyclohexylamine

> <TS_ChemName_Synonyms>


> <TS_CASRN>
98-94-2

> <CASRN_ChemName_Relationship>
primary

> <TS_Description>
single chemical compound

> <ChemNote>


> <STRUCTURE_Shown>
tested chemical

> <STRUCTURE_Formula>
C8H17N

> <STRUCTURE_MW>
127.2273

> <STRUCTURE_ChemType>
defined organic

> <STRUCTURE_DefinedOrganicForm>
parent

> <STRUCTURE_IUPAC>
N,N-dimethylcyclohexanamine

> <STRUCTURE_SMILES>
CN(C)C1CCCCC1

> <STRUCTURE_SMILES_Desalt>
CN(C)C1CCCCC1

> <Substance_modify_yyyymmdd>
20080429

$$$$
