98079-52-8
ChemmineR-0915142007XD

 26 27  0  0  0  0  0  0  0  0  1 V2000
    9.0741   -4.0113    0.0000 C    0  0  0  0  0  0  0  0  0  0  0  0
    6.7884   -4.0113    0.0000 C    0  0  0  0  0  0  0  0  0  0  0  0
    7.9313   -2.0000    0.0000 N    0  0  0  0  0  0  0  0  0  0  0  0
    6.7884   -2.6742    0.0000 C    0  0  0  0  0  0  0  0  0  0  0  0
    7.9313   -4.6856    0.0000 C    0  0  0  0  0  0  0  0  0  0  0  0
    5.6342   -2.0000    0.0000 C    0  0  0  0  0  0  0  0  0  0  0  0
    9.0741   -2.6742    0.0000 C    0  0  0  0  0  0  0  0  0  0  0  0
    4.4799   -2.6742    0.0000 C    0  0  0  0  0  0  0  0  0  0  0  0
    3.3142   -2.0000    0.0000 N    0  0  0  0  0  0  0  0  0  0  0  0
    4.4799   -4.0113    0.0000 C    0  0  0  0  0  0  0  0  0  0  0  0
    5.6342   -4.6856    0.0000 C    0  0  0  0  0  0  0  0  0  0  0  0
   10.2741   -4.6856    0.0000 C    0  0  0  0  0  0  0  0  0  0  0  0
    2.1600   -2.6742    0.0000 C    0  0  0  0  0  0  0  0  0  0  0  0
    7.9313   -6.0227    0.0000 O    0  0  0  0  0  0  0  0  0  0  0  0
    0.9943   -0.7428    0.0000 N    0  0  0  0  0  0  0  0  0  0  0  0
   11.4283   -4.0228    0.0000 O    0  0  0  0  0  0  0  0  0  0  0  0
    5.6342   -0.6743    0.0000 F    0  0  0  0  0  0  0  0  0  0  0  0
    3.3028   -4.6856    0.0000 F    0  0  0  0  0  0  0  0  0  0  0  0
    3.3142   -0.6743    0.0000 C    0  0  0  0  0  0  0  0  0  0  0  0
    7.9313   -0.6743    0.0000 C    0  0  0  0  0  0  0  0  0  0  0  0
    0.9828   -2.0000    0.0000 C    0  0  0  0  0  0  0  0  0  0  0  0
   10.2741   -6.0227    0.0000 O    0  0  0  0  0  0  0  0  0  0  0  0
    2.1600    0.0000    0.0000 C    0  0  0  0  0  0  0  0  0  0  0  0
    0.0000   -2.6628    0.0000 C    0  0  0  0  0  0  0  0  0  0  0  0
    9.0741    0.0000    0.0000 C    0  0  0  0  0  0  0  0  0  0  0  0
   11.3483   -1.7371    0.0000 Cl   0  0  0  0  0  0  0  0  0  0  0  0
  1  5  1  0  0  0  0
  1  7  2  0  0  0  0
  1 12  1  0  0  0  0
  2  5  1  0  0  0  0
  2 11  1  0  0  0  0
  2  4  2  0  0  0  0
  3  7  1  0  0  0  0
  3  4  1  0  0  0  0
  3 20  1  0  0  0  0
  4  6  1  0  0  0  0
  5 14  2  0  0  0  0
  6  8  2  0  0  0  0
  6 17  1  0  0  0  0
  8  9  1  0  0  0  0
  8 10  1  0  0  0  0
  9 13  1  0  0  0  0
  9 19  1  0  0  0  0
 10 11  2  0  0  0  0
 10 18  1  0  0  0  0
 12 16  2  0  0  0  0
 12 22  1  0  0  0  0
 13 21  1  0  0  0  0
 15 23  1  0  0  0  0
 15 21  1  0  0  0  0
 19 23  1  0  0  0  0
 20 25  1  0  0  0  0
 21 24  1  0  0  0  0
M  END
> <ID>
10999

> <Formula>
C17H20ClF2N3O3

> <FW>
387.8088 (351.3479+36.4609)

> <DSSTox_CID>
25527

> <DSSTox_RID>
80931

> <DSSTox_GSID>
45527

> <DSSTox_FileID_Sort>
5612

> <TS_ChemName>
Lomefloxacin hydrochloride

> <TS_ChemName_Synonyms>


> <TS_CASRN>
98079-52-8

> <CASRN_ChemName_Relationship>
primary

> <TS_Description>
single chemical compound

> <ChemNote>
parent [98079-51-7]

> <STRUCTURE_Shown>
tested chemical

> <STRUCTURE_Formula>
C17H20ClF2N3O3

> <STRUCTURE_MW>
387.8088

> <STRUCTURE_ChemType>
defined organic

> <STRUCTURE_DefinedOrganicForm>
complex

> <STRUCTURE_IUPAC>
1-ethyl-6,8-difluoro-7-(3-methylpiperazin-1-yl)-4-oxo-1,4-dihydroquinoline-3-carboxylic acid hydrochloride (1:1)

> <STRUCTURE_SMILES>
Cl.O=C(O)C2=CN(CC)c1c(F)c(c(F)cc1C2=O)N3CC(C)NCC3

> <STRUCTURE_SMILES_Desalt>
O=C(O)C2=CN(CC)c1c(F)c(c(F)cc1C2=O)N3CC(C)NCC3

> <Substance_modify_yyyymmdd>
20100107

$$$$
