98123-83-2
ChemmineR-0915142007XD

 24 27  0  0  0  0  0  0  0  0  1 V2000
    6.8357   -6.3593    0.0000 O   0  0  0  0  0  0  0  0  0  0  0  0
    5.5425   -6.0578    0.0000 C   0  0  0  0  0  0  0  0  0  0  0  0
    5.1535   -4.7938    0.0000 C   0  0  0  0  0  0  0  0  0  0  0  0
    3.8603   -4.5020    0.0000 N   0  0  0  0  0  0  0  0  0  0  0  0
    2.9463   -5.4647    0.0000 C   0  0  0  0  0  0  0  0  0  0  0  0
    3.3449   -6.7482    0.0000 C   0  0  0  0  0  0  0  0  0  0  0  0
    4.6479   -7.0496    0.0000 N   0  0  0  0  0  0  0  0  0  0  0  0
    5.2216   -8.2359    0.0000 C   0  0  0  0  0  0  0  0  0  0  0  0
    4.6285   -9.4319    0.0000 C   0  0  0  0  0  0  0  0  0  0  0  0
    3.3352   -9.7236    0.0000 C   0  0  0  0  0  0  0  0  0  0  0  0
    2.3045   -8.9069    0.0000 C   0  0  0  0  0  0  0  0  0  0  0  0
    1.1571   -9.5681    0.0000 C   0  0  0  0  0  0  0  0  0  0  0  0
    0.0000   -8.8874    0.0000 C   0  0  0  0  0  0  0  0  0  0  0  0
    0.0000   -7.5747    0.0000 C   0  0  0  0  0  0  0  0  0  0  0  0
    1.1571   -6.9038    0.0000 C   0  0  0  0  0  0  0  0  0  0  0  0
    2.3045   -7.5650    0.0000 C   0  0  0  0  0  0  0  0  0  0  0  0
    3.4616   -3.2185    0.0000 C   0  0  0  0  0  0  0  0  0  0  0  0
    2.1587   -2.9268    0.0000 O   0  0  0  0  0  0  0  0  0  0  0  0
    4.3756   -2.2559    0.0000 C   0  0  0  0  0  0  0  0  0  0  0  0
    3.9770   -0.9724    0.0000 C   0  0  0  0  0  0  0  0  0  0  0  0
    4.8813    0.0000    0.0000 C   0  0  0  0  0  0  0  0  0  0  0  0
    6.1842   -0.3014    0.0000 C   0  0  0  0  0  0  0  0  0  0  0  0
    6.5635   -1.5655    0.0000 C   0  0  0  0  0  0  0  0  0  0  0  0
    5.6689   -2.5476    0.0000 C   0  0  0  0  0  0  0  0  0  0  0  0
  1  2  2  0  0  0  0
  2  3  1  0  0  0  0
  2  7  1  0  0  0  0
  3  4  1  0  0  0  0
  4  5  1  0  0  0  0
  4 17  1  0  0  0  0
  5  6  1  0  0  0  0
  6  7  1  0  0  0  0
  6 16  1  0  0  0  0
  7  8  1  0  0  0  0
  8  9  1  0  0  0  0
  9 10  1  0  0  0  0
 10 11  1  0  0  0  0
 11 12  2  0  0  0  0
 11 16  1  0  0  0  0
 12 13  1  0  0  0  0
 13 14  2  0  0  0  0
 14 15  1  0  0  0  0
 15 16  2  0  0  0  0
 17 18  2  0  0  0  0
 17 19  1  0  0  0  0
 19 20  1  0  0  0  0
 19 24  1  0  0  0  0
 20 21  1  0  0  0  0
 21 22  1  0  0  0  0
 22 23  1  0  0  0  0
 23 24  1  0  0  0  0
M  END
> <ID>
16256

> <Formula>
C20H26N2O2

> <FW>
326.4326

> <DSSTox_CID>
31392

> <DSSTox_RID>
97531

> <DSSTox_GSID>
57858

> <DSSTox_FileID_Sort>
8598

> <TS_ChemName>
Epsiprantel

> <TS_ChemName_Synonyms>


> <TS_CASRN>
98123-83-2

> <CASRN_ChemName_Relationship>
primary

> <TS_Description>
single chemical compound

> <ChemNote>


> <STRUCTURE_Shown>
tested chemical

> <STRUCTURE_Formula>
C20H26N2O2

> <STRUCTURE_MW>
326.4326

> <STRUCTURE_ChemType>
defined organic

> <STRUCTURE_DefinedOrganicForm>
parent

> <STRUCTURE_IUPAC>
2-(cyclohexylcarbonyl)-2,3,6,7,8,12b-hexahydropyrazino[2,1-a][2]benzazepin-4(1H)-one

> <STRUCTURE_SMILES>
O=C2CN(CC1c3ccccc3CCCN12)C(=O)C4CCCCC4

> <STRUCTURE_SMILES_Desalt>
O=C2CN(CC1c3ccccc3CCCN12)C(=O)C4CCCCC4

> <Substance_modify_yyyymmdd>
20131121

$$$$
