982-57-0
ChemmineR-0915142007XD

 28 27  0  0  1  0  0  0  0  0  2 V2000
    1.1500   -3.9855    0.0000 N    0  3  0  0  0  0  0  0  0  0  0  0
    0.0000   -3.3239    0.0000 O    0  0  0  0  0  0  0  0  0  0  0  0
    1.1500   -5.3087    0.0000 O    0  5  0  0  0  0  0  0  0  0  0  0
    2.2999   -3.3239    0.0000 C    0  0  0  0  0  0  0  0  0  0  0  0
    3.4499   -3.9855    0.0000 C    0  0  0  0  0  0  0  0  0  0  0  0
    4.5998   -3.3239    0.0000 C    0  0  0  0  0  0  0  0  0  0  0  0
    4.5998   -2.0006    0.0000 C    0  0  0  0  0  0  0  0  0  0  0  0
    5.7498   -1.3232    0.0000 C    0  0  0  0  0  0  0  0  0  0  0  0
    5.7498    0.0000    0.0000 O    0  0  0  0  0  0  0  0  0  0  0  0
    6.8998   -2.0006    0.0000 C    0  0  0  0  0  0  0  0  0  0  0  0
    8.0497   -1.3232    0.0000 C    0  0  0  0  0  0  0  0  0  0  0  0
    9.1997   -2.0006    0.0000 O    0  0  0  0  0  0  0  0  0  0  0  0
   10.3654   -1.3232    0.0000 C    0  0  0  0  0  0  0  0  0  0  0  0
   10.3654    0.0000    0.0000 O    0  0  0  0  0  0  0  0  0  0  0  0
   11.5154   -2.0006    0.0000 C    0  0  0  0  0  0  0  0  0  0  0  0
   12.6653   -1.3232    0.0000 C    0  0  0  0  0  0  0  0  0  0  0  0
   13.8153   -2.0006    0.0000 C    0  0  0  0  0  0  0  0  0  0  0  0
   13.8153   -3.3239    0.0000 O    0  0  0  0  0  0  0  0  0  0  0  0
   14.9652   -1.3232    0.0000 O    0  5  0  0  0  0  0  0  0  0  0  0
    6.8998   -3.3239    0.0000 N    0  0  0  0  0  0  0  0  0  0  0  0
    8.0497   -3.9855    0.0000 C    0  0  0  0  0  0  0  0  0  0  0  0
    9.1997   -3.3239    0.0000 O    0  0  0  0  0  0  0  0  0  0  0  0
    8.0497   -5.3087    0.0000 C    0  0  0  0  0  0  0  0  0  0  0  0
    6.8998   -5.9861    0.0000 Cl   0  0  0  0  0  0  0  0  0  0  0  0
    9.1997   -5.9861    0.0000 Cl   0  0  0  0  0  0  0  0  0  0  0  0
    3.4499   -1.3232    0.0000 C    0  0  0  0  0  0  0  0  0  0  0  0
    2.2999   -2.0006    0.0000 C    0  0  0  0  0  0  0  0  0  0  0  0
   15.7529   -0.3308    0.0000 Na   0  3  0  0  0  0  0  0  0  0  0  0
  1  2  2  0  0  0  0
  1  3  1  0  0  0  0
  1  4  1  0  0  0  0
  4  5  2  0  0  0  0
  4 27  1  0  0  0  0
  5  6  1  0  0  0  0
  6  7  2  0  0  0  0
  7  8  1  0  0  0  0
  7 26  1  0  0  0  0
  8  9  1  1  0  0  0
  8 10  1  0  0  0  0
 10 11  1  0  0  0  0
 10 20  1  1  0  0  0
 11 12  1  0  0  0  0
 12 13  1  0  0  0  0
 13 14  2  0  0  0  0
 13 15  1  0  0  0  0
 15 16  1  0  0  0  0
 16 17  1  0  0  0  0
 17 18  2  0  0  0  0
 17 19  1  0  0  0  0
 20 21  1  0  0  0  0
 21 22  2  0  0  0  0
 21 23  1  0  0  0  0
 23 24  1  0  0  0  0
 23 25  1  0  0  0  0
 26 27  2  0  0  0  0
M  END
> <ID>
3838

> <Formula>
C15H15Cl2N2NaO8

> <FW>
445.1840 (422.1947+22.9892)

> <DSSTox_CID>
4747

> <DSSTox_RID>
77520

> <DSSTox_GSID>
24747

> <DSSTox_FileID_Sort>
2203

> <TS_ChemName>
Chloramphenicol sodium succinate

> <TS_ChemName_Synonyms>


> <TS_CASRN>
982-57-0

> <CASRN_ChemName_Relationship>
primary

> <TS_Description>
single chemical compound

> <ChemNote>
stereochem; parent [3544-94-3]

> <STRUCTURE_Shown>
tested chemical

> <STRUCTURE_Formula>
C15H15Cl2N2NaO8

> <STRUCTURE_MW>
445.184

> <STRUCTURE_ChemType>
defined organic

> <STRUCTURE_DefinedOrganicForm>
salt

> <STRUCTURE_IUPAC>
sodium 4-{[(2R,3R)-2-[(dichloroacetyl)amino]-3-hydroxy-3-(4-nitrophenyl)propyl]oxy}-4-oxobutanoate

> <STRUCTURE_SMILES>
[Na+].O=[N+]([O-])c1ccc(cc1)[C@@H](O)[C@@H](COC(=O)CCC([O-])=O)NC(=O)C(Cl)Cl

> <STRUCTURE_SMILES_Desalt>
O=[N+]([O-])c1ccc(cc1)[C@@H](O)[C@@H](COC(=O)CCC(=O)O)NC(=O)C(Cl)Cl

> <Substance_modify_yyyymmdd>
20110518

$$$$
