98323-83-2
ChemmineR-0915142007XD

 28 31  0  0  0  0  0  0  0  0  1 V2000
   14.5065   -7.3693    0.0000 C   0  0  0  0  0  0  0  0  0  0  0  0
   14.2308   -6.0782    0.0000 C   0  0  0  0  0  0  0  0  0  0  0  0
   13.5345   -8.2687    0.0000 C   0  0  0  0  0  0  0  0  0  0  0  0
    4.6711   -5.3819    0.0000 C   0  0  0  0  0  0  0  0  0  0  0  0
    5.9331   -5.8026    0.0000 C   0  0  0  0  0  0  0  0  0  0  0  0
   12.9688   -5.6575    0.0000 C   0  0  0  0  0  0  0  0  0  0  0  0
   12.2580   -7.8480    0.0000 C   0  0  0  0  0  0  0  0  0  0  0  0
    3.6701   -6.2813    0.0000 C   0  0  0  0  0  0  0  0  0  0  0  0
    0.6673   -2.2920    0.0000 C   0  0  0  0  0  0  0  0  0  0  0  0
    0.0000   -3.4380    0.0000 C   0  0  0  0  0  0  0  0  0  0  0  0
   10.4301   -4.8452    0.0000 C   0  0  0  0  0  0  0  0  0  0  0  0
    9.7338   -7.0356    0.0000 C   0  0  0  0  0  0  0  0  0  0  0  0
    6.9196   -4.9032    0.0000 C   0  0  0  0  0  0  0  0  0  0  0  0
    9.1681   -4.4245    0.0000 C   0  0  0  0  0  0  0  0  0  0  0  0
    8.4573   -6.6149    0.0000 C   0  0  0  0  0  0  0  0  0  0  0  0
    2.6547   -3.4380    0.0000 C   0  0  0  0  0  0  0  0  0  0  0  0
    1.3346   -6.6440    0.0000 C   0  0  0  0  0  0  0  0  0  0  0  0
   11.9678   -6.5569    0.0000 C   0  0  0  0  0  0  0  0  0  0  0  0
   10.7203   -6.1362    0.0000 C   0  0  0  0  0  0  0  0  0  0  0  0
    2.0019   -2.2920    0.0000 C   0  0  0  0  0  0  0  0  0  0  0  0
    2.4081   -5.8606    0.0000 C   0  0  0  0  0  0  0  0  0  0  0  0
    2.0019   -4.5985    0.0000 C   0  0  0  0  0  0  0  0  0  0  0  0
    0.6673   -4.5985    0.0000 C   0  0  0  0  0  0  0  0  0  0  0  0
    2.6547   -1.1315    0.0000 C   0  0  0  0  0  0  0  0  0  0  0  0
    0.2611   -5.8606    0.0000 N   0  0  0  0  0  0  0  0  0  0  0  0
    8.1961   -5.3239    0.0000 N   0  0  0  0  0  0  0  0  0  0  0  0
    2.0019    0.0000    0.0000 O   0  0  0  0  0  0  0  0  0  0  0  0
    3.9893   -1.1315    0.0000 O   0  0  0  0  0  0  0  0  0  0  0  0
  1  2  2  0  0  0  0
  1  3  1  0  0  0  0
  2  6  1  0  0  0  0
  3  7  2  0  0  0  0
  4  5  1  0  0  0  0
  4  8  1  0  0  0  0
  5 13  1  0  0  0  0
  6 18  2  0  0  0  0
  7 18  1  0  0  0  0
  8 21  1  0  0  0  0
  9 10  2  0  0  0  0
  9 20  1  0  0  0  0
 10 23  1  0  0  0  0
 11 14  1  0  0  0  0
 11 19  2  0  0  0  0
 12 15  1  0  0  0  0
 12 19  1  0  0  0  0
 13 26  1  0  0  0  0
 14 26  1  0  0  0  0
 15 26  1  0  0  0  0
 16 20  2  0  0  0  0
 16 22  1  0  0  0  0
 17 21  2  0  0  0  0
 17 25  1  0  0  0  0
 18 19  1  0  0  0  0
 20 24  1  0  0  0  0
 21 22  1  0  0  0  0
 22 23  2  0  0  0  0
 23 25  1  0  0  0  0
 24 27  2  0  0  0  0
 24 28  1  0  0  0  0
M  END
> <ID>
9722

> <Formula>
C24H26N2O2

> <FW>
374.4754

> <DSSTox_CID>
23892

> <DSSTox_RID>
80081

> <DSSTox_GSID>
43892

> <DSSTox_FileID_Sort>
4763

> <TS_ChemName>
Carmoxirole

> <TS_ChemName_Synonyms>


> <TS_CASRN>
98323-83-2

> <CASRN_ChemName_Relationship>
primary

> <TS_Description>
single chemical compound

> <ChemNote>


> <STRUCTURE_Shown>
tested chemical

> <STRUCTURE_Formula>
C24H26N2O2

> <STRUCTURE_MW>
374.4754

> <STRUCTURE_ChemType>
defined organic

> <STRUCTURE_DefinedOrganicForm>
parent

> <STRUCTURE_IUPAC>
3-[4-(4-phenyl-3,6-dihydropyridin-1(2H)-yl)butyl]-1H-indole-5-carboxylic acid

> <STRUCTURE_SMILES>
O=C(O)c3ccc4ncc(CCCCN1CC=C(CC1)c2ccccc2)c4c3

> <STRUCTURE_SMILES_Desalt>
O=C(O)c3ccc4ncc(CCCCN1CC=C(CC1)c2ccccc2)c4c3

> <Substance_modify_yyyymmdd>
20081229

$$$$
