98330-05-3
ChemmineR-0915142007XD

 14 15  0  0  0  0  0  0  0  0  1 V2000
    0.0000   -2.6606    0.0000 Cl   0  0  0  0  0  0  0  0  0  0  0  0
    1.1529   -1.9995    0.0000 C    0  0  0  0  0  0  0  0  0  0  0  0
    1.1529   -0.6692    0.0000 C    0  0  0  0  0  0  0  0  0  0  0  0
    2.3059    0.0000    0.0000 C    0  0  0  0  0  0  0  0  0  0  0  0
    3.4588   -0.6692    0.0000 C    0  0  0  0  0  0  0  0  0  0  0  0
    3.4588   -1.9995    0.0000 C    0  0  0  0  0  0  0  0  0  0  0  0
    2.3059   -2.6606    0.0000 N    0  0  0  0  0  0  0  0  0  0  0  0
    4.6037   -2.6606    0.0000 S    0  0  0  0  0  0  0  0  0  0  0  0
    5.7567   -1.9995    0.0000 C    0  0  0  0  0  0  0  0  0  0  0  0
    5.7567   -0.6692    0.0000 C    0  0  0  0  0  0  0  0  0  0  0  0
    6.9096    0.0000    0.0000 C    0  0  0  0  0  0  0  0  0  0  0  0
    8.0626   -0.6692    0.0000 N    0  0  0  0  0  0  0  0  0  0  0  0
    8.0626   -1.9995    0.0000 C    0  0  0  0  0  0  0  0  0  0  0  0
    6.9096   -2.6606    0.0000 C    0  0  0  0  0  0  0  0  0  0  0  0
  1  2  1  0  0  0  0
  2  3  2  0  0  0  0
  2  7  1  0  0  0  0
  3  4  1  0  0  0  0
  4  5  2  0  0  0  0
  5  6  1  0  0  0  0
  6  7  2  0  0  0  0
  6  8  1  0  0  0  0
  8  9  1  0  0  0  0
  9 10  1  0  0  0  0
  9 14  1  0  0  0  0
 10 11  1  0  0  0  0
 11 12  1  0  0  0  0
 12 13  1  0  0  0  0
 13 14  1  0  0  0  0
M  END
> <ID>
11104

> <Formula>
C10H13ClN2S

> <FW>
228.7416

> <DSSTox_CID>
25659

> <DSSTox_RID>
81036

> <DSSTox_GSID>
45659

> <DSSTox_FileID_Sort>
5717

> <TS_ChemName>
Anpirtoline

> <TS_ChemName_Synonyms>


> <TS_CASRN>
98330-05-3

> <CASRN_ChemName_Relationship>
primary

> <TS_Description>
single chemical compound

> <ChemNote>


> <STRUCTURE_Shown>
tested chemical

> <STRUCTURE_Formula>
C10H13ClN2S

> <STRUCTURE_MW>
228.7416

> <STRUCTURE_ChemType>
defined organic

> <STRUCTURE_DefinedOrganicForm>
parent

> <STRUCTURE_IUPAC>
2-chloro-6-(piperidin-4-ylsulfanyl)pyridine

> <STRUCTURE_SMILES>
Clc2nc(SC1CCNCC1)ccc2

> <STRUCTURE_SMILES_Desalt>
Clc2nc(SC1CCNCC1)ccc2

> <Substance_modify_yyyymmdd>
20100107

$$$$
