98418-47-4
ChemmineR-0915142007XD

 46 45  0  0  0  0  0  0  0  0  1 V2000
   12.8595   -6.2633    0.0000 N   0  0  0  0  0  0  0  0  0  0  0  0
    8.3057   -6.2633    0.0000 O   0  0  0  0  0  0  0  0  0  0  0  0
   10.5902   -6.2633    0.0000 C   0  0  0  0  0  0  0  0  0  0  0  0
    7.1105   -5.5825    0.0000 C   0  0  0  0  0  0  0  0  0  0  0  0
   11.7248   -5.5825    0.0000 C   0  0  0  0  0  0  0  0  0  0  0  0
    9.4404   -5.5825    0.0000 C   0  0  0  0  0  0  0  0  0  0  0  0
    4.8715   -4.2361    0.0000 C   0  0  0  0  0  0  0  0  0  0  0  0
    5.9759   -6.2633    0.0000 C   0  0  0  0  0  0  0  0  0  0  0  0
    7.1105   -4.2361    0.0000 C   0  0  0  0  0  0  0  0  0  0  0  0
    5.9759   -3.5704    0.0000 C   0  0  0  0  0  0  0  0  0  0  0  0
    4.8715   -5.5825    0.0000 C   0  0  0  0  0  0  0  0  0  0  0  0
   10.5902   -7.5493    0.0000 O   0  0  0  0  0  0  0  0  0  0  0  0
   13.9942   -5.5825    0.0000 C   0  0  0  0  0  0  0  0  0  0  0  0
    1.4221   -3.5099    0.0000 O   0  0  0  0  0  0  0  0  0  0  0  0
    3.7519   -3.5704    0.0000 C   0  0  0  0  0  0  0  0  0  0  0  0
    2.5568   -4.1907    0.0000 C   0  0  0  0  0  0  0  0  0  0  0  0
    0.2723   -4.1907    0.0000 C   0  0  0  0  0  0  0  0  0  0  0  0
   13.9942   -4.2815    0.0000 C   0  0  0  0  0  0  0  0  0  0  0  0
   15.1288   -6.2633    0.0000 C   0  0  0  0  0  0  0  0  0  0  0  0
   12.6477   -2.7383    0.0000 N   0  0  0  0  0  0  0  0  0  0  0  0
    8.0788   -2.7383    0.0000 O   0  0  0  0  0  0  0  0  0  0  0  0
   10.3179   -2.7383    0.0000 C   0  0  0  0  0  0  0  0  0  0  0  0
    6.8836   -2.0726    0.0000 C   0  0  0  0  0  0  0  0  0  0  0  0
   11.4525   -2.0726    0.0000 C   0  0  0  0  0  0  0  0  0  0  0  0
    9.2134   -2.0726    0.0000 C   0  0  0  0  0  0  0  0  0  0  0  0
    4.6143   -0.7716    0.0000 C   0  0  0  0  0  0  0  0  0  0  0  0
    5.7036   -2.7383    0.0000 C   0  0  0  0  0  0  0  0  0  0  0  0
    6.8836   -0.7716    0.0000 C   0  0  0  0  0  0  0  0  0  0  0  0
    5.7036   -0.0454    0.0000 C   0  0  0  0  0  0  0  0  0  0  0  0
    4.6143   -2.0726    0.0000 C   0  0  0  0  0  0  0  0  0  0  0  0
   10.3179   -4.0545    0.0000 O   0  0  0  0  0  0  0  0  0  0  0  0
   13.7218   -2.0726    0.0000 C   0  0  0  0  0  0  0  0  0  0  0  0
    1.1952    0.0000    0.0000 O   0  0  0  0  0  0  0  0  0  0  0  0
    3.4796   -0.0454    0.0000 C   0  0  0  0  0  0  0  0  0  0  0  0
    2.3298   -0.6657    0.0000 C   0  0  0  0  0  0  0  0  0  0  0  0
    0.0000   -0.6657    0.0000 C   0  0  0  0  0  0  0  0  0  0  0  0
   13.7218   -0.7716    0.0000 C   0  0  0  0  0  0  0  0  0  0  0  0
   14.9170   -2.7383    0.0000 C   0  0  0  0  0  0  0  0  0  0  0  0
    6.5356   -9.1681    0.0000 C   0  0  0  0  0  0  0  0  0  0  0  0
    3.9638   -9.1075    0.0000 C   0  0  0  0  0  0  0  0  0  0  0  0
    3.9638  -10.4238    0.0000 O   0  0  0  0  0  0  0  0  0  0  0  0
    2.7988   -8.4116    0.0000 O   0  0  0  0  0  0  0  0  0  0  0  0
    5.1287   -8.4570    0.0000 C   0  0  0  0  0  0  0  0  0  0  0  0
    7.7006   -8.5327    0.0000 C   0  0  0  0  0  0  0  0  0  0  0  0
    7.7006   -7.2013    0.0000 O   0  0  0  0  0  0  0  0  0  0  0  0
    8.8201   -9.1832    0.0000 O   0  0  0  0  0  0  0  0  0  0  0  0
  1  5  1  0  0  0  0
  1 13  1  0  0  0  0
  2  6  1  0  0  0  0
  2  4  1  0  0  0  0
  3  5  1  0  0  0  0
  3  6  1  0  0  0  0
  3 12  1  0  0  0  0
  4  8  1  0  0  0  0
  4  9  2  0  0  0  0
  7 10  2  0  0  0  0
  7 15  1  0  0  0  0
  7 11  1  0  0  0  0
  8 11  2  0  0  0  0
  9 10  1  0  0  0  0
 13 18  1  0  0  0  0
 13 19  1  0  0  0  0
 14 16  1  0  0  0  0
 14 17  1  0  0  0  0
 15 16  1  0  0  0  0
 20 24  1  0  0  0  0
 20 32  1  0  0  0  0
 21 25  1  0  0  0  0
 21 23  1  0  0  0  0
 22 24  1  0  0  0  0
 22 25  1  0  0  0  0
 22 31  1  0  0  0  0
 23 27  1  0  0  0  0
 23 28  2  0  0  0  0
 26 29  2  0  0  0  0
 26 34  1  0  0  0  0
 26 30  1  0  0  0  0
 27 30  2  0  0  0  0
 28 29  1  0  0  0  0
 32 37  1  0  0  0  0
 32 38  1  0  0  0  0
 33 35  1  0  0  0  0
 33 36  1  0  0  0  0
 34 35  1  0  0  0  0
 39 43  1  0  0  0  0
 39 44  1  0  0  0  0
 40 43  1  0  0  0  0
 40 41  2  0  0  0  0
 40 42  1  0  0  0  0
 44 45  2  0  0  0  0
 44 46  1  0  0  0  0
M  END
> <ID>
13718

> <Formula>
C34H56N2O10

> <FW>
652.8158 (267.3639+267.3639+118.0880)

> <DSSTox_CID>
28652

> <DSSTox_RID>
82922

> <DSSTox_GSID>
48726

> <DSSTox_FileID_Sort>
7599

> <TS_ChemName>
Metoprolol succinate

> <TS_ChemName_Synonyms>


> <TS_CASRN>
98418-47-4

> <CASRN_ChemName_Relationship>
primary

> <TS_Description>
single chemical compound

> <ChemNote>


> <STRUCTURE_Shown>
tested chemical

> <STRUCTURE_Formula>
C34H56N2O10

> <STRUCTURE_MW>
652.8158

> <STRUCTURE_ChemType>
defined organic

> <STRUCTURE_DefinedOrganicForm>
complex

> <STRUCTURE_IUPAC>
1-[4-(2-methoxyethyl)phenoxy]-3-(propan-2-ylamino)propan-2-ol butanedioate (2:1)

> <STRUCTURE_SMILES>
O=C(O)CCC(=O)O.CC(C)NCC(O)COc1ccc(CCOC)cc1.CC(C)NCC(O)COc1ccc(cc1)CCOC

> <STRUCTURE_SMILES_Desalt>
CC(C)NCC(O)COc1ccc(cc1)CCOC

> <Substance_modify_yyyymmdd>
20111204

$$$$
