985-13-7
ChemmineR-0915142007XD

 30 31  0  0  0  0  0  0  0  0  1 V2000
    5.7135   -4.5846    0.0000 C    0  0  0  0  0  0  0  0  0  0  0  0
    6.8424   -3.9375    0.0000 C    0  0  0  0  0  0  0  0  0  0  0  0
    4.5433   -3.9375    0.0000 C    0  0  0  0  0  0  0  0  0  0  0  0
    5.7135   -5.9338    0.0000 C    0  0  0  0  0  0  0  0  0  0  0  0
    3.3868   -4.5846    0.0000 C    0  0  0  0  0  0  0  0  0  0  0  0
    3.3868   -5.9338    0.0000 C    0  0  0  0  0  0  0  0  0  0  0  0
    4.5433   -6.6084    0.0000 C    0  0  0  0  0  0  0  0  0  0  0  0
    8.0127   -4.5846    0.0000 N    0  0  0  0  0  0  0  0  0  0  0  0
   10.2980   -1.9963    0.0000 C    0  0  0  0  0  0  0  0  0  0  0  0
    6.8424   -2.6020    0.0000 C    0  0  0  0  0  0  0  0  0  0  0  0
   10.2980   -0.6884    0.0000 C    0  0  0  0  0  0  0  0  0  0  0  0
    9.1140   -2.6571    0.0000 C    0  0  0  0  0  0  0  0  0  0  0  0
    8.0127   -1.9412    0.0000 C    0  0  0  0  0  0  0  0  0  0  0  0
    9.1554    0.0000    0.0000 C    0  0  0  0  0  0  0  0  0  0  0  0
    8.0127   -0.6195    0.0000 C    0  0  0  0  0  0  0  0  0  0  0  0
    8.0127   -5.9338    0.0000 C    0  0  0  0  0  0  0  0  0  0  0  0
    2.2441   -3.9100    0.0000 O    0  0  0  0  0  0  0  0  0  0  0  0
    2.2441   -6.6359    0.0000 O    0  0  0  0  0  0  0  0  0  0  0  0
   11.4407   -2.6847    0.0000 O    0  0  0  0  0  0  0  0  0  0  0  0
   11.4958   -0.0138    0.0000 O    0  0  0  0  0  0  0  0  0  0  0  0
    6.8424   -6.6084    0.0000 C    0  0  0  0  0  0  0  0  0  0  0  0
   12.5972   -2.0376    0.0000 C    0  0  0  0  0  0  0  0  0  0  0  0
    1.1152   -5.9888    0.0000 C    0  0  0  0  0  0  0  0  0  0  0  0
    1.1152   -4.5570    0.0000 C    0  0  0  0  0  0  0  0  0  0  0  0
   12.6247   -0.7159    0.0000 C    0  0  0  0  0  0  0  0  0  0  0  0
    0.0000   -6.6497    0.0000 C    0  0  0  0  0  0  0  0  0  0  0  0
   13.7674   -0.0551    0.0000 C    0  0  0  0  0  0  0  0  0  0  0  0
   13.7537   -2.7397    0.0000 C    0  0  0  0  0  0  0  0  0  0  0  0
    0.0000   -3.8687    0.0000 C    0  0  0  0  0  0  0  0  0  0  0  0
   10.6835   -4.3230    0.0000 Cl   0  0  0  0  0  0  0  0  0  0  0  0
  1  2  2  0  0  0  0
  1  3  1  0  0  0  0
  1  4  1  0  0  0  0
  2  8  1  0  0  0  0
  2 10  1  0  0  0  0
  3  5  2  0  0  0  0
  4  7  1  0  0  0  0
  4 21  2  0  0  0  0
  5 17  1  0  0  0  0
  5  6  1  0  0  0  0
  6  7  2  0  0  0  0
  6 18  1  0  0  0  0
  8 16  2  0  0  0  0
  9 12  2  0  0  0  0
  9 19  1  0  0  0  0
  9 11  1  0  0  0  0
 10 13  1  0  0  0  0
 11 14  2  0  0  0  0
 11 20  1  0  0  0  0
 12 13  1  0  0  0  0
 13 15  2  0  0  0  0
 14 15  1  0  0  0  0
 16 21  1  0  0  0  0
 17 24  1  0  0  0  0
 18 23  1  0  0  0  0
 19 22  1  0  0  0  0
 20 25  1  0  0  0  0
 22 28  1  0  0  0  0
 23 26  1  0  0  0  0
 24 29  1  0  0  0  0
 25 27  1  0  0  0  0
M  END
> <ID>
12880

> <Formula>
C24H30ClNO4

> <FW>
431.9523 (395.4914+36.4609)

> <DSSTox_CID>
27759

> <DSSTox_RID>
82536

> <DSSTox_GSID>
47779

> <DSSTox_FileID_Sort>
7217

> <TS_ChemName>
Ethaverine hydrochloride

> <TS_ChemName_Synonyms>


> <TS_CASRN>
985-13-7

> <CASRN_ChemName_Relationship>
primary

> <TS_Description>
single chemical compound

> <ChemNote>
parent [486-47-5]

> <STRUCTURE_Shown>
tested chemical

> <STRUCTURE_Formula>
C24H30ClNO4

> <STRUCTURE_MW>
431.9523

> <STRUCTURE_ChemType>
defined organic

> <STRUCTURE_DefinedOrganicForm>
complex

> <STRUCTURE_IUPAC>
1-(3,4-diethoxybenzyl)-6,7-diethoxyisoquinoline hydrochloride (1:1)

> <STRUCTURE_SMILES>
Cl.CCOc1ccc(cc1OCC)Cc3nccc2cc(OCC)c(cc23)OCC

> <STRUCTURE_SMILES_Desalt>
CCOc1ccc(cc1OCC)Cc3nccc2cc(OCC)c(cc23)OCC

> <Substance_modify_yyyymmdd>


$$$$
