98631-95-9
ChemmineR-0915142007XD

 36 37  0  0  0  0  0  0  0  0  1 V2000
   23.0730   -3.9990    0.0000 C   0  0  0  0  0  0  0  0  0  0  0  0
   23.0730   -5.3320    0.0000 C   0  0  0  0  0  0  0  0  0  0  0  0
   24.2364   -6.0106    0.0000 C   0  0  0  0  0  0  0  0  0  0  0  0
   21.9339   -6.0106    0.0000 C   0  0  0  0  0  0  0  0  0  0  0  0
   20.7706   -5.3320    0.0000 O   0  0  0  0  0  0  0  0  0  0  0  0
   19.6315   -6.0106    0.0000 C   0  0  0  0  0  0  0  0  0  0  0  0
   19.6315   -7.3436    0.0000 O   0  0  0  0  0  0  0  0  0  0  0  0
   18.4681   -5.3320    0.0000 O   0  0  0  0  0  0  0  0  0  0  0  0
   17.3048   -6.0106    0.0000 C   0  0  0  0  0  0  0  0  0  0  0  0
   16.1414   -5.3320    0.0000 N   0  0  0  0  0  0  0  0  0  0  0  0
   15.0023   -5.9864    0.0000 C   0  0  0  0  0  0  0  0  0  0  0  0
   15.0023   -7.3194    0.0000 O   0  0  0  0  0  0  0  0  0  0  0  0
   13.8632   -5.3078    0.0000 C   0  0  0  0  0  0  0  0  0  0  0  0
   13.8390   -3.9990    0.0000 N   0  0  0  0  0  0  0  0  0  0  0  0
   12.6756   -3.3446    0.0000 C   0  0  0  0  0  0  0  0  0  0  0  0
   11.5365   -3.9990    0.0000 C   0  0  0  0  0  0  0  0  0  0  0  0
   10.3974   -3.3204    0.0000 N   0  0  0  0  0  0  0  0  0  0  0  0
    9.2341   -3.9748    0.0000 C   0  0  0  0  0  0  0  0  0  0  0  0
    8.0949   -3.3204    0.0000 C   0  0  0  0  0  0  0  0  0  0  0  0
    6.9316   -3.9748    0.0000 O   0  0  0  0  0  0  0  0  0  0  0  0
    8.0949   -1.9874    0.0000 N   0  0  0  0  0  0  0  0  0  0  0  0
    6.9316   -1.3330    0.0000 C   0  0  0  0  0  0  0  0  0  0  0  0
    5.7683   -1.9874    0.0000 O   0  0  0  0  0  0  0  0  0  0  0  0
    4.6291   -1.3330    0.0000 C   0  0  0  0  0  0  0  0  0  0  0  0
    4.6291    0.0000    0.0000 O   0  0  0  0  0  0  0  0  0  0  0  0
    3.4658   -1.9874    0.0000 O   0  0  0  0  0  0  0  0  0  0  0  0
    2.3025   -1.3330    0.0000 C   0  0  0  0  0  0  0  0  0  0  0  0
    1.1633   -1.9874    0.0000 C   0  0  0  0  0  0  0  0  0  0  0  0
    1.1633   -3.3204    0.0000 C   0  0  0  0  0  0  0  0  0  0  0  0
    0.0000   -1.3330    0.0000 C   0  0  0  0  0  0  0  0  0  0  0  0
    9.2341   -1.3330    0.0000 C   0  0  0  0  0  0  0  0  0  0  0  0
    9.2583    0.0000    0.0000 O   0  0  0  0  0  0  0  0  0  0  0  0
   10.3974   -2.0116    0.0000 C   0  0  0  0  0  0  0  0  0  0  0  0
   15.0023   -3.3446    0.0000 C   0  0  0  0  0  0  0  0  0  0  0  0
   16.1414   -3.9990    0.0000 C   0  0  0  0  0  0  0  0  0  0  0  0
   17.3048   -3.3446    0.0000 O   0  0  0  0  0  0  0  0  0  0  0  0
  1  2  1  0  0  0  0
  2  3  1  0  0  0  0
  2  4  1  0  0  0  0
  4  5  1  0  0  0  0
  5  6  1  0  0  0  0
  6  7  2  0  0  0  0
  6  8  1  0  0  0  0
  8  9  1  0  0  0  0
  9 10  1  0  0  0  0
 10 11  1  0  0  0  0
 10 35  1  0  0  0  0
 11 12  2  0  0  0  0
 11 13  1  0  0  0  0
 13 14  1  0  0  0  0
 14 15  1  0  0  0  0
 14 34  1  0  0  0  0
 15 16  1  0  0  0  0
 16 17  1  0  0  0  0
 17 18  1  0  0  0  0
 17 33  1  0  0  0  0
 18 19  1  0  0  0  0
 19 20  2  0  0  0  0
 19 21  1  0  0  0  0
 21 22  1  0  0  0  0
 21 31  1  0  0  0  0
 22 23  1  0  0  0  0
 23 24  1  0  0  0  0
 24 25  2  0  0  0  0
 24 26  1  0  0  0  0
 26 27  1  0  0  0  0
 27 28  1  0  0  0  0
 28 29  1  0  0  0  0
 28 30  1  0  0  0  0
 31 32  2  0  0  0  0
 31 33  1  0  0  0  0
 34 35  1  0  0  0  0
 35 36  2  0  0  0  0
M  END
> <ID>
10817

> <Formula>
C22H34N4O10

> <FW>
514.5262

> <DSSTox_CID>
25203

> <DSSTox_RID>
80747

> <DSSTox_GSID>
45203

> <DSSTox_FileID_Sort>
5428

> <TS_ChemName>
Sobuzoxane

> <TS_ChemName_Synonyms>


> <TS_CASRN>
98631-95-9

> <CASRN_ChemName_Relationship>
primary

> <TS_Description>
single chemical compound

> <ChemNote>


> <STRUCTURE_Shown>
tested chemical

> <STRUCTURE_Formula>
C22H34N4O10

> <STRUCTURE_MW>
514.5262

> <STRUCTURE_ChemType>
defined organic

> <STRUCTURE_DefinedOrganicForm>
parent

> <STRUCTURE_IUPAC>
ethane-1,2-diylbis[(2,6-dioxopiperazine-4,1-diyl)methanediyl] bis(2-methylpropyl) biscarbonate

> <STRUCTURE_SMILES>
CC(C)COC(=O)OCN2C(=O)CN(CCN1CC(=O)N(COC(=O)OCC(C)C)C(=O)C1)CC2=O

> <STRUCTURE_SMILES_Desalt>
CC(C)COC(=O)OCN2C(=O)CN(CCN1CC(=O)N(COC(=O)OCC(C)C)C(=O)C1)CC2=O

> <Substance_modify_yyyymmdd>
20100107

$$$$
