98753-19-6
ChemmineR-0915142007XD

 42 45  0  0  1  0  0  0  0  0  2 V2000
    7.0770   -7.0069    0.0000 N   0  0  0  0  0  0  0  0  0  0  0  0
    7.0770   -5.6756    0.0000 C   0  0  0  0  0  0  0  0  0  0  0  0
    8.2402   -7.6796    0.0000 C   0  0  0  0  0  0  0  0  0  0  0  0
    5.7457   -7.0069    0.0000 C   0  0  0  0  0  0  0  0  0  0  0  0
    5.7457   -5.6756    0.0000 C   0  0  0  0  0  0  0  0  0  0  0  0
    8.2402   -5.0170    0.0000 S   0  0  0  0  0  0  0  0  0  0  0  0
    9.3893   -7.0069    0.0000 C   0  0  0  0  0  0  0  0  0  0  0  0
    8.2402   -9.0249    0.0000 C   0  0  0  0  0  0  0  0  0  0  0  0
    4.7928   -7.9739    0.0000 O   0  0  0  0  0  0  0  0  0  0  0  0
    4.4144   -5.6896    0.0000 N   0  0  0  0  0  0  0  0  0  0  0  0
    9.3893   -5.6756    0.0000 C   0  0  0  0  0  0  0  0  0  0  0  0
   10.5384   -7.6796    0.0000 C   0  0  0  0  0  0  0  0  0  0  0  0
    9.3893   -9.6836    0.0000 O   0  0  0  0  0  0  0  0  0  0  0  0
    7.0770   -9.6836    0.0000 O   0  5  0  0  0  0  0  0  0  0  0  0
    3.7417   -4.5545    0.0000 C   0  0  0  0  0  0  0  0  0  0  0  0
   11.6876   -7.0069    0.0000 N   0  3  0  0  0  0  0  0  0  0  0  0
    2.4104   -4.5545    0.0000 C   0  0  0  0  0  0  0  0  0  0  0  0
    4.4144   -3.3633    0.0000 O   0  0  0  0  0  0  0  0  0  0  0  0
   11.6876   -5.6756    0.0000 C   0  0  0  0  0  0  0  0  0  0  0  0
   12.8648   -7.6796    0.0000 C   0  0  0  0  0  0  0  0  0  0  0  0
    1.7377   -3.3633    0.0000 C   0  0  0  0  0  0  0  0  0  0  0  0
    1.7377   -5.6896    0.0000 N   0  0  0  0  0  0  0  0  0  0  0  0
   12.8648   -5.0170    0.0000 C   0  0  0  0  0  0  0  0  0  0  0  0
   10.7066   -4.7928    0.0000 C   0  0  0  0  0  0  0  0  0  0  0  0
   14.0139   -7.0069    0.0000 C   0  0  0  0  0  0  0  0  0  0  0  0
    0.4064   -3.3633    0.0000 C   0  0  0  0  0  0  0  0  0  0  0  0
    2.1581   -2.1161    0.0000 N   0  0  0  0  0  0  0  0  0  0  0  0
    2.4104   -6.8528    0.0000 O   0  0  0  0  0  0  0  0  0  0  0  0
   12.5705   -3.7137    0.0000 C   0  0  0  0  0  0  0  0  0  0  0  0
   14.0139   -5.6756    0.0000 C   0  0  0  0  0  0  0  0  0  0  0  0
   11.2532   -3.5735    0.0000 C   0  0  0  0  0  0  0  0  0  0  0  0
    0.0000   -2.1161    0.0000 S   0  0  0  0  0  0  0  0  0  0  0  0
    1.0791   -1.3453    0.0000 C   0  0  0  0  0  0  0  0  0  0  0  0
    1.7377   -8.0019    0.0000 C   0  0  0  0  0  0  0  0  0  0  0  0
    1.0791    0.0000    0.0000 N   0  0  0  0  0  0  0  0  0  0  0  0
    5.7737   -4.4144    0.0000 H   0  0  0  0  0  0  0  0  0  0  0  0
    7.0770   -4.4424    0.0000 H   0  0  0  0  0  0  0  0  0  0  0  0
    3.0130  -10.1040    0.0000 S   0  0  0  0  0  0  0  0  0  0  0  0
    4.3443  -10.1040    0.0000 O   0  0  0  0  0  0  0  0  0  0  0  0
    1.6817  -10.1040    0.0000 O   0  0  0  0  0  0  0  0  0  0  0  0
    3.0130  -11.4353    0.0000 O   0  0  0  0  0  0  0  0  0  0  0  0
    3.0130   -8.7727    0.0000 O   0  0  0  0  0  0  0  0  0  0  0  0
  1  2  1  0  0  0  0
  1  3  1  0  0  0  0
  1  4  1  0  0  0  0
  2  5  1  0  0  0  0
  2  6  1  0  0  0  0
  2 37  1  6  0  0  0
  3  7  2  0  0  0  0
  3  8  1  0  0  0  0
  4  9  2  0  0  0  0
  4  5  1  0  0  0  0
  5 10  1  1  0  0  0
  5 36  1  6  0  0  0
  6 11  1  0  0  0  0
  7 12  1  0  0  0  0
  7 11  1  0  0  0  0
  8 13  2  0  0  0  0
  8 14  1  0  0  0  0
 10 15  1  0  0  0  0
 12 16  1  0  0  0  0
 15 17  1  0  0  0  0
 15 18  2  0  0  0  0
 16 19  1  0  0  0  0
 16 20  2  0  0  0  0
 17 21  1  0  0  0  0
 17 22  2  0  0  0  0
 19 23  2  0  0  0  0
 19 24  1  0  0  0  0
 20 25  1  0  0  0  0
 21 26  2  0  0  0  0
 21 27  1  0  0  0  0
 22 28  1  0  0  0  0
 23 29  1  0  0  0  0
 23 30  1  0  0  0  0
 24 31  1  0  0  0  0
 25 30  2  0  0  0  0
 26 32  1  0  0  0  0
 27 33  2  0  0  0  0
 28 34  1  0  0  0  0
 29 31  1  0  0  0  0
 32 33  1  0  0  0  0
 33 35  1  0  0  0  0
 38 39  2  0  0  0  0
 38 40  2  0  0  0  0
 38 41  1  0  0  0  0
 38 42  1  0  0  0  0
M  END
> <ID>
12069

> <Formula>
C22H24N6O9S3

> <FW>
612.6558 (514.5773+98.0785)

> <DSSTox_CID>
26909

> <DSSTox_RID>
82007

> <DSSTox_GSID>
46909

> <DSSTox_FileID_Sort>
6688

> <TS_ChemName>
Cefpirome sulfate

> <TS_ChemName_Synonyms>


> <TS_CASRN>
98753-19-6

> <CASRN_ChemName_Relationship>
primary

> <TS_Description>
single chemical compound

> <ChemNote>
parent [84957-29-9]

> <STRUCTURE_Shown>
tested chemical

> <STRUCTURE_Formula>
C22H24N6O9S3

> <STRUCTURE_MW>
612.6558

> <STRUCTURE_ChemType>
defined organic

> <STRUCTURE_DefinedOrganicForm>
complex

> <STRUCTURE_IUPAC>
(6R,7R)-7-{[(2Z)-2-(2-amino-1,3-thiazol-4-yl)-2-(methoxyimino)acetyl]amino}-3-(6,7-dihydro-5H-cyclopenta[b]pyridinium-1-ylmethyl)-8-oxo-5-thia-1-azabicyclo[4.2.0]oct-2-ene-2-carboxylate sulfate (1:1)

> <STRUCTURE_SMILES>
O=S(=O)(O)O.Nc1scc(n1)\C(=N\OC)C(=O)N[C@@H]5C(=O)N4C(=C(C[n+]3cccc2CCCc23)CS[C@@H]45)C([O-])=O

> <STRUCTURE_SMILES_Desalt>
Nc1scc(n1)\C(=N\OC)C(=O)N[C@@H]5C(=O)N4C(=C(C[n+]3cccc2CCCc23)CS[C@@H]45)C(=O)O

> <Substance_modify_yyyymmdd>
20110725

$$$$
