98769-84-7
ChemmineR-0915142007XD

 29 30  0  0  1  0  0  0  0  0  1 V2000
    7.9693   -4.6405    0.0000 N   0  0  0  0  0  0  0  0  0  0  0  0
    6.8120   -3.9791    0.0000 C   0  0  0  0  0  0  0  0  0  0  0  0
    5.7097   -4.6405    0.0000 C   0  0  0  0  0  0  0  0  0  0  0  0
    5.7097   -5.9853    0.0000 O   0  0  0  0  0  0  0  0  0  0  0  0
    6.8230   -6.6135    0.0000 C   0  0  0  0  0  0  0  0  0  0  0  0
    7.9693   -5.9853    0.0000 C   0  0  0  0  0  0  0  0  0  0  0  0
    0.0000   -2.6785    0.0000 C   0  0  0  0  0  0  0  0  0  0  0  0
    0.0000   -4.0122    0.0000 C   0  0  0  0  0  0  0  0  0  0  0  0
    1.1133   -4.6405    0.0000 C   0  0  0  0  0  0  0  0  0  0  0  0
    2.2707   -4.0122    0.0000 C   0  0  0  0  0  0  0  0  0  0  0  0
    2.2707   -2.6785    0.0000 C   0  0  0  0  0  0  0  0  0  0  0  0
    1.1133   -2.0171    0.0000 C   0  0  0  0  0  0  0  0  0  0  0  0
    1.1133   -5.9853    0.0000 O   0  0  0  0  0  0  0  0  0  0  0  0
    3.4060   -4.6405    0.0000 O   0  0  0  0  0  0  0  0  0  0  0  0
    2.2707   -6.6135    0.0000 C   0  0  0  0  0  0  0  0  0  0  0  0
    3.4060   -5.9853    0.0000 C   0  0  0  0  0  0  0  0  0  0  0  0
    4.5633   -3.9791    0.0000 C   0  0  0  0  0  0  0  0  0  0  0  0
    4.4862   -2.6454    0.0000 C   0  0  0  0  0  0  0  0  0  0  0  0
    5.7097   -3.3398    0.0000 H   0  0  0  0  0  0  0  0  0  0  0  0
    5.6436   -1.9620    0.0000 C   0  0  0  0  0  0  0  0  0  0  0  0
    5.6436   -0.6614    0.0000 C   0  0  0  0  0  0  0  0  0  0  0  0
    4.4862    0.0000    0.0000 C   0  0  0  0  0  0  0  0  0  0  0  0
    3.3288   -0.6614    0.0000 C   0  0  0  0  0  0  0  0  0  0  0  0
    3.3288   -1.9620    0.0000 C   0  0  0  0  0  0  0  0  0  0  0  0
    9.6778   -2.4139    0.0000 S   0  0  0  0  0  0  0  0  0  0  0  0
    9.6778   -3.9461    0.0000 O   0  0  0  0  0  0  0  0  0  0  0  0
   11.0226   -2.4139    0.0000 O   0  0  0  0  0  0  0  0  0  0  0  0
    9.6778   -1.0802    0.0000 O   0  0  0  0  0  0  0  0  0  0  0  0
    8.2780   -2.4139    0.0000 C   0  0  0  0  0  0  0  0  0  0  0  0
  1  2  1  0  0  0  0
  1  6  1  0  0  0  0
  2  3  1  0  0  0  0
  3 17  1  0  0  0  0
  3 19  1  6  0  0  0
  3  4  1  0  0  0  0
  4  5  1  0  0  0  0
  5  6  1  0  0  0  0
  7 12  1  0  0  0  0
  7  8  2  0  0  0  0
  8  9  1  0  0  0  0
  9 13  1  0  0  0  0
  9 10  2  0  0  0  0
 10 14  1  0  0  0  0
 10 11  1  0  0  0  0
 11 12  2  0  0  0  0
 13 15  1  0  0  0  0
 14 17  1  0  0  0  0
 15 16  1  0  0  0  0
 17 18  1  6  0  0  0
 18 20  2  0  0  0  0
 18 24  1  0  0  0  0
 20 21  1  0  0  0  0
 21 22  2  0  0  0  0
 22 23  1  0  0  0  0
 23 24  2  0  0  0  0
 25 26  2  0  0  0  0
 25 27  1  0  0  0  0
 25 28  2  0  0  0  0
 25 29  1  0  0  0  0
M  END
> <ID>
11131

> <Formula>
C20H27NO6S

> <FW>
409.4965 (313.3908+96.1057)

> <DSSTox_CID>
25690

> <DSSTox_RID>
81062

> <DSSTox_GSID>
45690

> <DSSTox_FileID_Sort>
5743

> <TS_ChemName>
Reboxetine mesylate

> <TS_ChemName_Synonyms>


> <TS_CASRN>
98769-84-7

> <CASRN_ChemName_Relationship>
primary

> <TS_Description>
single chemical compound

> <ChemNote>
parent [71620-89-8] stereochem

> <STRUCTURE_Shown>
tested chemical

> <STRUCTURE_Formula>
C20H27NO6S

> <STRUCTURE_MW>
409.4965

> <STRUCTURE_ChemType>
defined organic

> <STRUCTURE_DefinedOrganicForm>
complex

> <STRUCTURE_IUPAC>
(2R)-2-[(R)-(2-ethoxyphenoxy)(phenyl)methyl]morpholine methanesulfonate (1:1)

> <STRUCTURE_SMILES>
CS(=O)(=O)O.CCOc3ccccc3O[C@H](c1ccccc1)[C@H]2CNCCO2

> <STRUCTURE_SMILES_Desalt>
CCOc3ccccc3O[C@H](c1ccccc1)[C@H]2CNCCO2

> <Substance_modify_yyyymmdd>
20110819

$$$$
