98774-23-3
ChemmineR-0915142007XD

 21 22  0  0  0  0  0  0  0  0  1 V2000
   12.6801    0.0000    0.0000 C   0  0  0  0  0  0  0  0  0  0  0  0
   11.5185   -0.6637    0.0000 C   0  0  0  0  0  0  0  0  0  0  0  0
   11.5185   -1.9912    0.0000 N   0  0  0  0  0  0  0  0  0  0  0  0
   12.6801   -2.6549    0.0000 C   0  0  0  0  0  0  0  0  0  0  0  0
   13.8278   -1.9912    0.0000 C   0  0  0  0  0  0  0  0  0  0  0  0
   10.3708   -2.6549    0.0000 C   0  0  0  0  0  0  0  0  0  0  0  0
    9.2231   -1.9912    0.0000 C   0  0  0  0  0  0  0  0  0  0  0  0
    8.0616   -2.6549    0.0000 O   0  0  0  0  0  0  0  0  0  0  0  0
    6.9139   -1.9912    0.0000 C   0  0  0  0  0  0  0  0  0  0  0  0
    5.7662   -2.6549    0.0000 C   0  0  0  0  0  0  0  0  0  0  0  0
    4.6046   -1.9912    0.0000 C   0  0  0  0  0  0  0  0  0  0  0  0
    4.6046   -0.6637    0.0000 C   0  0  0  0  0  0  0  0  0  0  0  0
    3.4569    0.0000    0.0000 C   0  0  0  0  0  0  0  0  0  0  0  0
    2.3092   -0.6637    0.0000 C   0  0  0  0  0  0  0  0  0  0  0  0
    2.3092   -1.9912    0.0000 C   0  0  0  0  0  0  0  0  0  0  0  0
    1.1477   -2.6549    0.0000 C   0  0  0  0  0  0  0  0  0  0  0  0
    0.0000   -1.9912    0.0000 C   0  0  0  0  0  0  0  0  0  0  0  0
    0.0000   -0.6637    0.0000 C   0  0  0  0  0  0  0  0  0  0  0  0
    1.1477    0.0000    0.0000 C   0  0  0  0  0  0  0  0  0  0  0  0
    5.7662    0.0000    0.0000 C   0  0  0  0  0  0  0  0  0  0  0  0
    6.9139   -0.6637    0.0000 C   0  0  0  0  0  0  0  0  0  0  0  0
  1  2  1  0  0  0  0
  2  3  1  0  0  0  0
  3  4  1  0  0  0  0
  3  6  1  0  0  0  0
  4  5  1  0  0  0  0
  6  7  1  0  0  0  0
  7  8  1  0  0  0  0
  8  9  1  0  0  0  0
  9 10  2  0  0  0  0
  9 21  1  0  0  0  0
 10 11  1  0  0  0  0
 11 12  2  0  0  0  0
 12 13  1  0  0  0  0
 12 20  1  0  0  0  0
 13 14  1  0  0  0  0
 14 15  2  0  0  0  0
 14 19  1  0  0  0  0
 15 16  1  0  0  0  0
 16 17  2  0  0  0  0
 17 18  1  0  0  0  0
 18 19  2  0  0  0  0
 20 21  2  0  0  0  0
M  END
> <ID>
11106

> <Formula>
C19H25NO

> <FW>
283.4079

> <DSSTox_CID>
25661

> <DSSTox_RID>
81038

> <DSSTox_GSID>
45661

> <DSSTox_FileID_Sort>
5719

> <TS_ChemName>
Tesmilifene

> <TS_ChemName_Synonyms>


> <TS_CASRN>
98774-23-3

> <CASRN_ChemName_Relationship>
primary

> <TS_Description>
single chemical compound

> <ChemNote>


> <STRUCTURE_Shown>
tested chemical

> <STRUCTURE_Formula>
C19H25NO

> <STRUCTURE_MW>
283.4079

> <STRUCTURE_ChemType>
defined organic

> <STRUCTURE_DefinedOrganicForm>
parent

> <STRUCTURE_IUPAC>
2-(4-benzylphenoxy)-N,N-diethylethanamine

> <STRUCTURE_SMILES>
CCN(CCOc1ccc(cc1)Cc2ccccc2)CC

> <STRUCTURE_SMILES_Desalt>
CCN(CCOc1ccc(cc1)Cc2ccccc2)CC

> <Substance_modify_yyyymmdd>
20100107

$$$$
