98886-44-3
ChemmineR-0915142007XD

 16 16  0  0  0  0  0  0  0  0  1 V2000
    3.4289   -2.1235    0.0000 P   0  0  0  0  0  0  0  0  0  0  0  0
    3.0104   -0.8682    0.0000 O   0  0  0  0  0  0  0  0  0  0  0  0
    4.7030   -1.7051    0.0000 O   0  0  0  0  0  0  0  0  0  0  0  0
    3.8474   -3.3914    0.0000 S   0  0  0  0  0  0  0  0  0  0  0  0
    2.1548   -2.5233    0.0000 N   0  0  0  0  0  0  0  0  0  0  0  0
    1.0805   -1.7488    0.0000 C   0  0  0  0  0  0  0  0  0  0  0  0
    1.7363   -3.7974    0.0000 C   0  0  0  0  0  0  0  0  0  0  0  0
    0.0000   -2.5233    0.0000 S   0  0  0  0  0  0  0  0  0  0  0  0
    0.4185   -3.7974    0.0000 C   0  0  0  0  0  0  0  0  0  0  0  0
    1.0805   -0.4185    0.0000 O   0  0  0  0  0  0  0  0  0  0  0  0
    4.9716   -0.4185    0.0000 C   0  0  0  0  0  0  0  0  0  0  0  0
    6.2457    0.0000    0.0000 C   0  0  0  0  0  0  0  0  0  0  0  0
    5.1527   -3.6662    0.0000 C   0  0  0  0  0  0  0  0  0  0  0  0
    5.5525   -4.9216    0.0000 C   0  0  0  0  0  0  0  0  0  0  0  0
    4.6656   -5.9210    0.0000 C   0  0  0  0  0  0  0  0  0  0  0  0
    6.0334   -2.6857    0.0000 C   0  0  0  0  0  0  0  0  0  0  0  0
  1  2  2  0  0  0  0
  1  3  1  0  0  0  0
  1  4  1  0  0  0  0
  1  5  1  0  0  0  0
  3 11  1  0  0  0  0
  4 13  1  0  0  0  0
  5  6  1  0  0  0  0
  5  7  1  0  0  0  0
  6  8  1  0  0  0  0
  6 10  2  0  0  0  0
  7  9  1  0  0  0  0
  8  9  1  0  0  0  0
 11 12  1  0  0  0  0
 13 14  1  0  0  0  0
 13 16  1  0  0  0  0
 14 15  1  0  0  0  0
M  END
> <ID>
6954

> <Formula>
C9H18NO3PS2

> <FW>
283.3479

> <DSSTox_CID>
14930

> <DSSTox_RID>
79223

> <DSSTox_GSID>
34930

> <DSSTox_FileID_Sort>
3905

> <TS_ChemName>
Fosthiazate

> <TS_ChemName_Synonyms>
Fosthiazate (S-sec-Butyl O-ethyl (2-oxo-3-thiazolidinyl)phosphonothioate)

> <TS_CASRN>
98886-44-3

> <CASRN_ChemName_Relationship>
primary

> <TS_Description>
single chemical compound

> <ChemNote>
mixture of (R,S) isomers; structure shown without stereochem

> <STRUCTURE_Shown>
tested chemical

> <STRUCTURE_Formula>
C9H18NO3PS2

> <STRUCTURE_MW>
283.3479

> <STRUCTURE_ChemType>
defined organic

> <STRUCTURE_DefinedOrganicForm>
parent

> <STRUCTURE_IUPAC>
S-butan-2-yl O-ethyl (2-oxo-1,3-thiazolidin-3-yl)phosphonothioate

> <STRUCTURE_SMILES>
CC(CC)SP(=O)(OCC)N1CCSC1=O

> <STRUCTURE_SMILES_Desalt>
CC(CC)SP(=O)(OCC)N1CCSC1=O

> <Substance_modify_yyyymmdd>
20080429

$$$$
