98892-76-3
ChemmineR-0915142007XD

 10  9  0  0  0  0  0  0  0  0  1 V2000
    2.8061   -3.8459    0.0000 C    0  0  0  0  0  0  0  0  0  0  0  0
    5.4199   -3.4186    0.0000 C    0  0  0  0  0  0  0  0  0  0  0  0
    7.1221   -1.0754    0.0000 C    0  0  0  0  0  0  0  0  0  0  0  0
    2.6708   -2.5212    0.0000 C    0  0  0  0  0  0  0  0  0  0  0  0
    5.0140    0.0000    0.0000 C    0  0  0  0  0  0  0  0  0  0  0  0
    3.7462   -0.4131    0.0000 C    0  0  0  0  0  0  0  0  0  0  0  0
    5.0140   -2.1509    0.0000 C    0  0  0  0  0  0  0  0  0  0  0  0
    5.7903   -1.0754    0.0000 N    0  0  0  0  0  0  0  0  0  0  0  0
    3.7462   -1.7449    0.0000 N    0  0  0  0  0  0  0  0  0  0  0  0
    0.0000   -1.0754    0.0000 Br   0  0  0  0  0  0  0  0  0  0  0  0
  1  4  1  0  0  0  0
  2  7  1  0  0  0  0
  3  8  1  0  0  0  0
  4  9  1  0  0  0  0
  5  6  2  0  0  0  0
  5  8  1  0  0  0  0
  6  9  1  0  0  0  0
  7  8  1  0  0  0  0
  7  9  1  0  0  0  0
M  END
> <ID>
14245

> <Formula>
C7H15BrN2

> <FW>
207.1114 (126.1995+80.9119)

> <DSSTox_CID>
29340

> <DSSTox_RID>
83456

> <DSSTox_GSID>
49381

> <DSSTox_FileID_Sort>
8131

> <TS_ChemName>
1-Ethyl-2,3-dimethylimidazolium bromide

> <TS_ChemName_Synonyms>


> <TS_CASRN>
98892-76-3

> <CASRN_ChemName_Relationship>
primary

> <TS_Description>
single chemical compound

> <ChemNote>


> <STRUCTURE_Shown>
tested chemical

> <STRUCTURE_Formula>
C7H15BrN2

> <STRUCTURE_MW>
207.1114

> <STRUCTURE_ChemType>
defined organic

> <STRUCTURE_DefinedOrganicForm>
complex

> <STRUCTURE_IUPAC>
1-ethyl-2,3-dimethyl-2,3-dihydro-1H-imidazole hydrobromide (1:1)

> <STRUCTURE_SMILES>
Br.CN1C=CN(CC)C1C

> <STRUCTURE_SMILES_Desalt>
CN1C=CN(CC)C1C

> <Substance_modify_yyyymmdd>
20111204

$$$$
