98892-75-2
ChemmineR-0915142007XD

 12 11  0  0  0  0  0  0  0  0  2 V2000
    6.6301   -1.0731    0.0000 N    0  3  0  0  0  0  0  0  0  0  0  0
    4.6007   -1.7319    0.0000 N    0  0  0  0  0  0  0  0  0  0  0  0
    5.8545   -2.1569    0.0000 C    0  0  0  0  0  0  0  0  0  0  0  0
    5.8545    0.0000    0.0000 C    0  0  0  0  0  0  0  0  0  0  0  0
    4.6007   -0.4250    0.0000 C    0  0  0  0  0  0  0  0  0  0  0  0
    3.5063   -2.5288    0.0000 C    0  0  0  0  0  0  0  0  0  0  0  0
    2.2950   -1.9550    0.0000 C    0  0  0  0  0  0  0  0  0  0  0  0
    1.2325   -2.7307    0.0000 C    0  0  0  0  0  0  0  0  0  0  0  0
    0.0000   -2.1888    0.0000 C    0  0  0  0  0  0  0  0  0  0  0  0
    6.2795   -3.4107    0.0000 C    0  0  0  0  0  0  0  0  0  0  0  0
    7.9689   -1.0731    0.0000 C    0  0  0  0  0  0  0  0  0  0  0  0
   10.6252   -1.7000    0.0000 Cl   0  5  0  0  0  0  0  0  0  0  0  0
  1  3  2  0  0  0  0
  1  4  1  0  0  0  0
  1 11  1  0  0  0  0
  2  3  1  0  0  0  0
  2  5  1  0  0  0  0
  2  6  1  0  0  0  0
  3 10  1  0  0  0  0
  4  5  2  0  0  0  0
  6  7  1  0  0  0  0
  7  8  1  0  0  0  0
  8  9  1  0  0  0  0
M  END
> <ID>
12981

> <Formula>
C9H17ClN2

> <FW>
188.6977 (153.2441+35.4535)

> <DSSTox_CID>
27882

> <DSSTox_RID>
82635

> <DSSTox_GSID>
47906

> <DSSTox_FileID_Sort>
7312

> <TS_ChemName>
1-Butyl-2,3-dimethylimidazolium chloride

> <TS_ChemName_Synonyms>


> <TS_CASRN>
98892-75-2

> <CASRN_ChemName_Relationship>
primary

> <TS_Description>
single chemical compound

> <ChemNote>
ammonium; parent [108203-89-0]

> <STRUCTURE_Shown>
tested chemical

> <STRUCTURE_Formula>
C9H17ClN2

> <STRUCTURE_MW>
188.6977

> <STRUCTURE_ChemType>
defined organic

> <STRUCTURE_DefinedOrganicForm>
salt

> <STRUCTURE_IUPAC>
1-butyl-2,3-dimethyl-1H-imidazol-3-ium chloride

> <STRUCTURE_SMILES>
[Cl-].CCCCn1cc[n+](C)c1C

> <STRUCTURE_SMILES_Desalt>
CCCCn1cc[n+](C)c1C

> <Substance_modify_yyyymmdd>
20110419

$$$$
