989-38-8
ChemmineR-0915142007XD

 34 36  0  0  0  0  0  0  0  0  1 V2000
    7.9224   -5.4535    0.0000 C    0  0  0  0  0  0  0  0  0  0  0  0
    6.7829   -4.8294    0.0000 C    0  0  0  0  0  0  0  0  0  0  0  0
    7.9224   -6.7693    0.0000 C    0  0  0  0  0  0  0  0  0  0  0  0
    5.6569   -5.4535    0.0000 C    0  0  0  0  0  0  0  0  0  0  0  0
    9.0348   -4.8294    0.0000 C    0  0  0  0  0  0  0  0  0  0  0  0
    6.7829   -2.6046    0.0000 C    0  0  0  0  0  0  0  0  0  0  0  0
    5.6569   -6.7693    0.0000 C    0  0  0  0  0  0  0  0  0  0  0  0
    9.0348   -7.4341    0.0000 C    0  0  0  0  0  0  0  0  0  0  0  0
    6.7829   -7.4341    0.0000 O    0  0  0  0  0  0  0  0  0  0  0  0
   10.1744   -6.7693    0.0000 C    0  0  0  0  0  0  0  0  0  0  0  0
   10.1744   -5.4535    0.0000 C    0  0  0  0  0  0  0  0  0  0  0  0
    7.9224   -1.9535    0.0000 C    0  0  0  0  0  0  0  0  0  0  0  0
    4.5310   -4.8294    0.0000 C    0  0  0  0  0  0  0  0  0  0  0  0
    4.5310   -7.4341    0.0000 C    0  0  0  0  0  0  0  0  0  0  0  0
   11.3139   -7.4341    0.0000 N    0  0  0  0  0  0  0  0  0  0  0  0
    9.0484   -2.6046    0.0000 C    0  0  0  0  0  0  0  0  0  0  0  0
    3.3915   -6.7693    0.0000 C    0  0  0  0  0  0  0  0  0  0  0  0
    3.3915   -5.4535    0.0000 C    0  0  0  0  0  0  0  0  0  0  0  0
    9.0484   -3.9070    0.0000 O    0  0  0  0  0  0  0  0  0  0  0  0
    2.2519   -7.4341    0.0000 N    0  0  0  0  0  0  0  0  0  0  0  0
   10.1744   -1.9535    0.0000 O    0  0  0  0  0  0  0  0  0  0  0  0
    5.6434   -1.9535    0.0000 C    0  0  0  0  0  0  0  0  0  0  0  0
   12.4263   -6.7693    0.0000 C    0  0  0  0  0  0  0  0  0  0  0  0
   11.3139   -4.8294    0.0000 C    0  0  0  0  0  0  0  0  0  0  0  0
    7.9224   -0.6512    0.0000 C    0  0  0  0  0  0  0  0  0  0  0  0
    2.2519   -4.8294    0.0000 C    0  0  0  0  0  0  0  0  0  0  0  0
    1.1395   -6.7693    0.0000 C    0  0  0  0  0  0  0  0  0  0  0  0
   10.1744   -0.6512    0.0000 C    0  0  0  0  0  0  0  0  0  0  0  0
   13.5658   -7.3798    0.0000 C    0  0  0  0  0  0  0  0  0  0  0  0
    5.6434   -0.6512    0.0000 C    0  0  0  0  0  0  0  0  0  0  0  0
    6.7829    0.0000    0.0000 C    0  0  0  0  0  0  0  0  0  0  0  0
    0.0000   -7.3798    0.0000 C    0  0  0  0  0  0  0  0  0  0  0  0
   11.3003    0.0000    0.0000 C    0  0  0  0  0  0  0  0  0  0  0  0
    6.8100   -8.4244    0.0000 Cl   0  0  0  0  0  0  0  0  0  0  0  0
  1  2  2  0  0  0  0
  1  3  1  0  0  0  0
  1  5  1  0  0  0  0
  2  4  1  0  0  0  0
  2  6  1  0  0  0  0
  3  8  2  0  0  0  0
  3  9  1  0  0  0  0
  4 13  1  0  0  0  0
  4  7  2  0  0  0  0
  5 11  2  0  0  0  0
  6 12  2  0  0  0  0
  6 22  1  0  0  0  0
  7  9  1  0  0  0  0
  7 14  1  0  0  0  0
  8 10  1  0  0  0  0
 10 11  1  0  0  0  0
 10 15  2  0  0  0  0
 11 24  1  0  0  0  0
 12 16  1  0  0  0  0
 12 25  1  0  0  0  0
 13 18  2  0  0  0  0
 14 17  2  0  0  0  0
 15 23  1  0  0  0  0
 16 19  2  0  0  0  0
 16 21  1  0  0  0  0
 17 20  1  0  0  0  0
 17 18  1  0  0  0  0
 18 26  1  0  0  0  0
 20 27  1  0  0  0  0
 21 28  1  0  0  0  0
 22 30  2  0  0  0  0
 23 29  1  0  0  0  0
 25 31  2  0  0  0  0
 27 32  1  0  0  0  0
 28 33  1  0  0  0  0
 30 31  1  0  0  0  0
M  END
> <ID>
1196

> <Formula>
C28H31ClN2O3

> <FW>
479.0103 (442.5494+36.4609)

> <DSSTox_CID>
1243

> <DSSTox_RID>
76034

> <DSSTox_GSID>
21243

> <DSSTox_FileID_Sort>
718

> <TS_ChemName>
Rhodamine 6G

> <TS_ChemName_Synonyms>


> <TS_CASRN>
989-38-8

> <CASRN_ChemName_Relationship>
primary

> <TS_Description>
single chemical compound

> <ChemNote>
C.I. 45160

> <STRUCTURE_Shown>
tested chemical

> <STRUCTURE_Formula>
C28H31ClN2O3

> <STRUCTURE_MW>
479.0103

> <STRUCTURE_ChemType>
defined organic

> <STRUCTURE_DefinedOrganicForm>
complex

> <STRUCTURE_IUPAC>
ethyl 2-[(3Z)-6-(ethylamino)-3-(ethylimino)-2,7-dimethyl-3H-xanthen-9-yl]benzoate hydrochloride (1:1)

> <STRUCTURE_SMILES>
Cl.O=C(OCC)c4ccccc4C=1c3cc(C)c(cc3OC2=C\C(=N\CC)C(C)=CC=12)NCC

> <STRUCTURE_SMILES_Desalt>
O=C(OCC)c4ccccc4C=1c3cc(C)c(cc3OC2=C\C(=N\CC)C(C)=CC=12)NCC

> <Substance_modify_yyyymmdd>
20080429

$$$$
