989-51-5
ChemmineR-0915142007XD

 33 36  0  0  1  0  0  0  0  0  1 V2000
    1.1483   -3.9730    0.0000 C   0  0  0  0  0  0  0  0  0  0  0  0
    1.1483   -5.2935    0.0000 C   0  0  0  0  0  0  0  0  0  0  0  0
    2.3080   -5.9710    0.0000 C   0  0  0  0  0  0  0  0  0  0  0  0
    2.3080   -3.3070    0.0000 C   0  0  0  0  0  0  0  0  0  0  0  0
    3.4448   -3.9730    0.0000 C   0  0  0  0  0  0  0  0  0  0  0  0
    3.4448   -5.2935    0.0000 C   0  0  0  0  0  0  0  0  0  0  0  0
    4.6045   -5.9710    0.0000 C   0  0  0  0  0  0  0  0  0  0  0  0
    5.7528   -5.2935    0.0000 C   0  0  0  0  0  0  0  0  0  0  0  0
    5.7528   -3.9730    0.0000 C   0  0  0  0  0  0  0  0  0  0  0  0
    4.6045   -3.3070    0.0000 O   0  0  0  0  0  0  0  0  0  0  0  0
    0.0000   -3.3070    0.0000 O   0  0  0  0  0  0  0  0  0  0  0  0
    2.3080   -7.3029    0.0000 O   0  0  0  0  0  0  0  0  0  0  0  0
    6.9125   -3.3070    0.0000 C   0  0  0  0  0  0  0  0  0  0  0  0
    8.0493   -3.9730    0.0000 C   0  0  0  0  0  0  0  0  0  0  0  0
    9.1976   -3.3070    0.0000 C   0  0  0  0  0  0  0  0  0  0  0  0
    9.1976   -1.9865    0.0000 C   0  0  0  0  0  0  0  0  0  0  0  0
    8.0493   -1.3320    0.0000 C   0  0  0  0  0  0  0  0  0  0  0  0
    6.9125   -1.9865    0.0000 C   0  0  0  0  0  0  0  0  0  0  0  0
    6.9125   -5.9710    0.0000 O   0  0  0  0  0  0  0  0  0  0  0  0
    6.9125   -7.3029    0.0000 C   0  0  0  0  0  0  0  0  0  0  0  0
    5.7298   -7.9575    0.0000 O   0  0  0  0  0  0  0  0  0  0  0  0
    8.0149   -7.9919    0.0000 C   0  0  0  0  0  0  0  0  0  0  0  0
    8.0149   -9.3009    0.0000 C   0  0  0  0  0  0  0  0  0  0  0  0
    9.1746   -9.9669    0.0000 C   0  0  0  0  0  0  0  0  0  0  0  0
   10.3229   -9.3009    0.0000 C   0  0  0  0  0  0  0  0  0  0  0  0
   10.3229   -7.9919    0.0000 C   0  0  0  0  0  0  0  0  0  0  0  0
    9.1746   -7.3029    0.0000 C   0  0  0  0  0  0  0  0  0  0  0  0
    8.0493    0.0000    0.0000 O   0  0  0  0  0  0  0  0  0  0  0  0
   10.3573   -1.3090    0.0000 O   0  0  0  0  0  0  0  0  0  0  0  0
   10.3573   -3.9730    0.0000 O   0  0  0  0  0  0  0  0  0  0  0  0
   11.4826   -9.9669    0.0000 O   0  0  0  0  0  0  0  0  0  0  0  0
   11.4826   -7.3029    0.0000 O   0  0  0  0  0  0  0  0  0  0  0  0
    9.1746  -11.3104    0.0000 O   0  0  0  0  0  0  0  0  0  0  0  0
  1  4  1  0  0  0  0
  1 11  1  0  0  0  0
  1  2  2  0  0  0  0
  2  3  1  0  0  0  0
  3 12  1  0  0  0  0
  3  6  2  0  0  0  0
  4  5  2  0  0  0  0
  5 10  1  0  0  0  0
  5  6  1  0  0  0  0
  6  7  1  0  0  0  0
  7  8  1  0  0  0  0
  8 19  1  6  0  0  0
  8  9  1  0  0  0  0
  9 10  1  0  0  0  0
  9 13  1  6  0  0  0
 13 18  1  0  0  0  0
 13 14  2  0  0  0  0
 14 15  1  0  0  0  0
 15 16  2  0  0  0  0
 15 30  1  0  0  0  0
 16 17  1  0  0  0  0
 16 29  1  0  0  0  0
 17 18  2  0  0  0  0
 17 28  1  0  0  0  0
 19 20  1  0  0  0  0
 20 21  2  0  0  0  0
 20 22  1  0  0  0  0
 22 23  2  0  0  0  0
 22 27  1  0  0  0  0
 23 24  1  0  0  0  0
 24 25  2  0  0  0  0
 24 33  1  0  0  0  0
 25 26  1  0  0  0  0
 25 31  1  0  0  0  0
 26 27  2  0  0  0  0
 26 32  1  0  0  0  0
M  END
> <ID>
542

> <Formula>
C22H18O11

> <FW>
458.3717

> <DSSTox_CID>
567

> <DSSTox_RID>
78830

> <DSSTox_GSID>
29889

> <DSSTox_FileID_Sort>
3512

> <TS_ChemName>
(-)-Epigallocatechin gallate

> <TS_ChemName_Synonyms>
EGCG

> <TS_CASRN>
989-51-5

> <CASRN_ChemName_Relationship>
primary

> <TS_Description>
single chemical compound

> <ChemNote>
stereochem

> <STRUCTURE_Shown>
tested chemical

> <STRUCTURE_Formula>
C22H18O11

> <STRUCTURE_MW>
458.3717

> <STRUCTURE_ChemType>
defined organic

> <STRUCTURE_DefinedOrganicForm>
parent

> <STRUCTURE_IUPAC>
(2R,3R)-5,7-dihydroxy-2-(3,4,5-trihydroxyphenyl)-3,4-dihydro-2H-chromen-3-yl 3,4,5-trihydroxybenzoate

> <STRUCTURE_SMILES>
Oc1cc(cc(O)c1O)C(=O)O[C@@H]3Cc2c(cc(O)cc2O)O[C@@H]3c4cc(O)c(O)c(O)c4

> <STRUCTURE_SMILES_Desalt>
Oc1cc(cc(O)c1O)C(=O)O[C@@H]3Cc2c(cc(O)cc2O)O[C@@H]3c4cc(O)c(O)c(O)c4

> <Substance_modify_yyyymmdd>
20120530

$$$$
