98967-40-9
ChemmineR-0915142007XD

 22 24  0  0  0  0  0  0  0  0  1 V2000
    3.4438    0.0000    0.0000 F   0  0  0  0  0  0  0  0  0  0  0  0
    2.3027   -0.6579    0.0000 C   0  0  0  0  0  0  0  0  0  0  0  0
    2.3027   -1.9840    0.0000 C   0  0  0  0  0  0  0  0  0  0  0  0
    1.1514   -2.6523    0.0000 C   0  0  0  0  0  0  0  0  0  0  0  0
    0.0000   -1.9840    0.0000 C   0  0  0  0  0  0  0  0  0  0  0  0
    0.0000   -0.6579    0.0000 C   0  0  0  0  0  0  0  0  0  0  0  0
    1.1514    0.0000    0.0000 C   0  0  0  0  0  0  0  0  0  0  0  0
    1.1514   -3.9887    0.0000 F   0  0  0  0  0  0  0  0  0  0  0  0
    3.4438   -2.6523    0.0000 N   0  0  0  0  0  0  0  0  0  0  0  0
    3.4438   -3.9887    0.0000 S   0  0  0  0  0  0  0  0  0  0  0  0
    3.4438   -5.3148    0.0000 O   0  0  0  0  0  0  0  0  0  0  0  0
    2.1177   -3.9887    0.0000 O   0  0  0  0  0  0  0  0  0  0  0  0
    4.7699   -3.9887    0.0000 C   0  0  0  0  0  0  0  0  0  0  0  0
    5.5512   -2.8990    0.0000 N   0  0  0  0  0  0  0  0  0  0  0  0
    6.8260   -3.3102    0.0000 N   0  0  0  0  0  0  0  0  0  0  0  0
    7.9773   -2.6523    0.0000 C   0  0  0  0  0  0  0  0  0  0  0  0
    9.1287   -3.3102    0.0000 C   0  0  0  0  0  0  0  0  0  0  0  0
    9.1287   -4.6466    0.0000 C   0  0  0  0  0  0  0  0  0  0  0  0
    7.9773   -5.3148    0.0000 N   0  0  0  0  0  0  0  0  0  0  0  0
    6.8260   -4.6466    0.0000 C   0  0  0  0  0  0  0  0  0  0  0  0
    5.5512   -5.0578    0.0000 N   0  0  0  0  0  0  0  0  0  0  0  0
   10.2800   -5.3148    0.0000 C   0  0  0  0  0  0  0  0  0  0  0  0
  1  2  1  0  0  0  0
  2  3  1  0  0  0  0
  2  7  2  0  0  0  0
  3  4  2  0  0  0  0
  3  9  1  0  0  0  0
  4  5  1  0  0  0  0
  4  8  1  0  0  0  0
  5  6  2  0  0  0  0
  6  7  1  0  0  0  0
  9 10  1  0  0  0  0
 10 11  2  0  0  0  0
 10 12  2  0  0  0  0
 10 13  1  0  0  0  0
 13 14  2  0  0  0  0
 13 21  1  0  0  0  0
 14 15  1  0  0  0  0
 15 16  1  0  0  0  0
 15 20  1  0  0  0  0
 16 17  2  0  0  0  0
 17 18  1  0  0  0  0
 18 19  2  0  0  0  0
 18 22  1  0  0  0  0
 19 20  1  0  0  0  0
 20 21  2  0  0  0  0
M  END
> <ID>
6543

> <Formula>
C12H9F2N5O2S

> <FW>
325.294

> <DSSTox_CID>
12615

> <DSSTox_RID>
79006

> <DSSTox_GSID>
32615

> <DSSTox_FileID_Sort>
3688

> <TS_ChemName>
Flumetsulam

> <TS_ChemName_Synonyms>


> <TS_CASRN>
98967-40-9

> <CASRN_ChemName_Relationship>
primary

> <TS_Description>
single chemical compound

> <ChemNote>
tautomers

> <STRUCTURE_Shown>
tested chemical

> <STRUCTURE_Formula>
C12H9F2N5O2S

> <STRUCTURE_MW>
325.294

> <STRUCTURE_ChemType>
defined organic

> <STRUCTURE_DefinedOrganicForm>
parent

> <STRUCTURE_IUPAC>
N-(2,6-difluorophenyl)-5-methyl[1,2,4]triazolo[1,5-a]pyrimidine-2-sulfonamide

> <STRUCTURE_SMILES>
Fc3cccc(F)c3NS(=O)(=O)c1nc2nc(C)ccn2n1

> <STRUCTURE_SMILES_Desalt>
Fc3cccc(F)c3NS(=O)(=O)c1nc2nc(C)ccn2n1

> <Substance_modify_yyyymmdd>
20080429

$$$$
