99-04-7
ChemmineR-0915142007XD

 10 10  0  0  0  0  0  0  0  0  1 V2000
    0.0000   -3.4536    0.0000 O   0  0  0  0  0  0  0  0  0  0  0  0
    0.6656   -2.3040    0.0000 C   0  0  0  0  0  0  0  0  0  0  0  0
    1.9968   -2.3040    0.0000 C   0  0  0  0  0  0  0  0  0  0  0  0
    2.6577   -1.1497    0.0000 C   0  0  0  0  0  0  0  0  0  0  0  0
    3.9889   -1.1497    0.0000 C   0  0  0  0  0  0  0  0  0  0  0  0
    4.6545    0.0000    0.0000 C   0  0  0  0  0  0  0  0  0  0  0  0
    4.6545   -2.3040    0.0000 C   0  0  0  0  0  0  0  0  0  0  0  0
    3.9889   -3.4536    0.0000 C   0  0  0  0  0  0  0  0  0  0  0  0
    2.6577   -3.4536    0.0000 C   0  0  0  0  0  0  0  0  0  0  0  0
    0.0000   -1.1497    0.0000 O   0  0  0  0  0  0  0  0  0  0  0  0
  1  2  2  0  0  0  0
  2  3  1  0  0  0  0
  2 10  1  0  0  0  0
  3  4  2  0  0  0  0
  3  9  1  0  0  0  0
  4  5  1  0  0  0  0
  5  6  1  0  0  0  0
  5  7  2  0  0  0  0
  7  8  1  0  0  0  0
  8  9  2  0  0  0  0
M  END
> <ID>
1554

> <Formula>
C8H8O2

> <FW>
136.1479

> <DSSTox_CID>
1617

> <DSSTox_RID>
76237

> <DSSTox_GSID>
21617

> <DSSTox_FileID_Sort>
921

> <TS_ChemName>
3-Methylbenzoic acid

> <TS_ChemName_Synonyms>
3-Methylbenzoic acid (m-Toluic acid)

> <TS_CASRN>
99-04-7

> <CASRN_ChemName_Relationship>
primary

> <TS_Description>
single chemical compound

> <ChemNote>


> <STRUCTURE_Shown>
tested chemical

> <STRUCTURE_Formula>
C8H8O2

> <STRUCTURE_MW>
136.1479

> <STRUCTURE_ChemType>
defined organic

> <STRUCTURE_DefinedOrganicForm>
parent

> <STRUCTURE_IUPAC>
3-methylbenzoic acid

> <STRUCTURE_SMILES>
Cc1cccc(c1)C(O)=O

> <STRUCTURE_SMILES_Desalt>
Cc1cccc(c1)C(O)=O

> <Substance_modify_yyyymmdd>
20080429

$$$$
