99-09-2
ChemmineR-0915142007XD

 10 10  0  0  0  0  0  0  0  0  2 V2000
    3.9889   -2.3040    0.0000 N   0  3  0  0  0  0  0  0  0  0  0  0
    4.6545   -3.4536    0.0000 O   0  0  0  0  0  0  0  0  0  0  0  0
    4.6545   -1.1497    0.0000 O   0  5  0  0  0  0  0  0  0  0  0  0
    2.6577   -2.3040    0.0000 C   0  0  0  0  0  0  0  0  0  0  0  0
    1.9968   -3.4536    0.0000 C   0  0  0  0  0  0  0  0  0  0  0  0
    0.6656   -3.4536    0.0000 C   0  0  0  0  0  0  0  0  0  0  0  0
    0.0000   -2.3040    0.0000 C   0  0  0  0  0  0  0  0  0  0  0  0
    0.6656   -1.1497    0.0000 C   0  0  0  0  0  0  0  0  0  0  0  0
    0.0000    0.0000    0.0000 N   0  0  0  0  0  0  0  0  0  0  0  0
    1.9968   -1.1497    0.0000 C   0  0  0  0  0  0  0  0  0  0  0  0
  1  2  2  0  0  0  0
  1  3  1  0  0  0  0
  1  4  1  0  0  0  0
  4  5  2  0  0  0  0
  4 10  1  0  0  0  0
  5  6  1  0  0  0  0
  6  7  2  0  0  0  0
  7  8  1  0  0  0  0
  8  9  1  0  0  0  0
  8 10  2  0  0  0  0
M  END
> <ID>
4369

> <Formula>
C6H6N2O2

> <FW>
138.124

> <DSSTox_CID>
5725

> <DSSTox_RID>
77894

> <DSSTox_GSID>
25725

> <DSSTox_FileID_Sort>
2577

> <TS_ChemName>
3-Nitroaniline

> <TS_ChemName_Synonyms>
3-Nitroaniline (m-Nitroaniline)

> <TS_CASRN>
99-09-2

> <CASRN_ChemName_Relationship>
primary

> <TS_Description>
single chemical compound

> <ChemNote>


> <STRUCTURE_Shown>
tested chemical

> <STRUCTURE_Formula>
C6H6N2O2

> <STRUCTURE_MW>
138.124

> <STRUCTURE_ChemType>
defined organic

> <STRUCTURE_DefinedOrganicForm>
parent

> <STRUCTURE_IUPAC>
3-nitroaniline

> <STRUCTURE_SMILES>
O=[N+]([O-])c1cccc(N)c1

> <STRUCTURE_SMILES_Desalt>
O=[N+]([O-])c1cccc(N)c1

> <Substance_modify_yyyymmdd>
20080429

$$$$
