99-08-1
ChemmineR-0915142007XD

 10 10  0  0  0  0  0  0  0  0  2 V2000
    0.0000    0.0000    0.0000 C   0  0  0  0  0  0  0  0  0  0  0  0
    0.6656   -1.1497    0.0000 C   0  0  0  0  0  0  0  0  0  0  0  0
    1.9968   -1.1497    0.0000 C   0  0  0  0  0  0  0  0  0  0  0  0
    2.6577   -2.3040    0.0000 C   0  0  0  0  0  0  0  0  0  0  0  0
    3.9889   -2.3040    0.0000 N   0  3  0  0  0  0  0  0  0  0  0  0
    4.6545   -3.4536    0.0000 O   0  0  0  0  0  0  0  0  0  0  0  0
    4.6545   -1.1497    0.0000 O   0  5  0  0  0  0  0  0  0  0  0  0
    1.9968   -3.4536    0.0000 C   0  0  0  0  0  0  0  0  0  0  0  0
    0.6656   -3.4536    0.0000 C   0  0  0  0  0  0  0  0  0  0  0  0
    0.0000   -2.3040    0.0000 C   0  0  0  0  0  0  0  0  0  0  0  0
  1  2  1  0  0  0  0
  2  3  2  0  0  0  0
  2 10  1  0  0  0  0
  3  4  1  0  0  0  0
  4  5  1  0  0  0  0
  4  8  2  0  0  0  0
  5  6  2  0  0  0  0
  5  7  1  0  0  0  0
  8  9  1  0  0  0  0
  9 10  2  0  0  0  0
M  END
> <ID>
1723

> <Formula>
C7H7NO2

> <FW>
137.136

> <DSSTox_CID>
1831

> <DSSTox_RID>
76354

> <DSSTox_GSID>
21831

> <DSSTox_FileID_Sort>
1038

> <TS_ChemName>
3-Nitrotoluene

> <TS_ChemName_Synonyms>
3-Nitrotoluene (m-Nitrotoluene) (1-Methyl-3-nitrobenzene)

> <TS_CASRN>
99-08-1

> <CASRN_ChemName_Relationship>
primary

> <TS_Description>
single chemical compound

> <ChemNote>


> <STRUCTURE_Shown>
tested chemical

> <STRUCTURE_Formula>
C7H7NO2

> <STRUCTURE_MW>
137.136

> <STRUCTURE_ChemType>
defined organic

> <STRUCTURE_DefinedOrganicForm>
parent

> <STRUCTURE_IUPAC>
1-methyl-3-nitrobenzene

> <STRUCTURE_SMILES>
Cc1cc(ccc1)[N+](=O)[O-]

> <STRUCTURE_SMILES_Desalt>
Cc1cc(ccc1)[N+](=O)[O-]

> <Substance_modify_yyyymmdd>
20080429

$$$$
