99-12-7
ChemmineR-0915142007XD

 11 11  0  0  0  0  0  0  0  0  2 V2000
    0.0000    0.0000    0.0000 C   0  0  0  0  0  0  0  0  0  0  0  0
    0.6655   -1.1541    0.0000 C   0  0  0  0  0  0  0  0  0  0  0  0
    1.9964   -1.1541    0.0000 C   0  0  0  0  0  0  0  0  0  0  0  0
    2.6573   -2.3036    0.0000 C   0  0  0  0  0  0  0  0  0  0  0  0
    1.9964   -3.4577    0.0000 C   0  0  0  0  0  0  0  0  0  0  0  0
    0.6655   -3.4577    0.0000 C   0  0  0  0  0  0  0  0  0  0  0  0
    0.0000   -2.3036    0.0000 C   0  0  0  0  0  0  0  0  0  0  0  0
    0.0000   -4.6072    0.0000 C   0  0  0  0  0  0  0  0  0  0  0  0
    3.9882   -2.3036    0.0000 N   0  3  0  0  0  0  0  0  0  0  0  0
    4.6537   -1.1541    0.0000 O   0  5  0  0  0  0  0  0  0  0  0  0
    4.6537   -3.4577    0.0000 O   0  0  0  0  0  0  0  0  0  0  0  0
  1  2  1  0  0  0  0
  2  3  2  0  0  0  0
  2  7  1  0  0  0  0
  3  4  1  0  0  0  0
  4  5  2  0  0  0  0
  4  9  1  0  0  0  0
  5  6  1  0  0  0  0
  6  7  2  0  0  0  0
  6  8  1  0  0  0  0
  9 10  1  0  0  0  0
  9 11  2  0  0  0  0
M  END
> <ID>
4036

> <Formula>
C8H9NO2

> <FW>
151.1626

> <DSSTox_CID>
5136

> <DSSTox_RID>
77680

> <DSSTox_GSID>
25136

> <DSSTox_FileID_Sort>
2363

> <TS_ChemName>
1,3-Dimethyl-5-nitrobenzene

> <TS_ChemName_Synonyms>
1,3-Dimethyl-5-nitrobenzene (5-Nitro-m-xylene)

> <TS_CASRN>
99-12-7

> <CASRN_ChemName_Relationship>
primary

> <TS_Description>
single chemical compound

> <ChemNote>


> <STRUCTURE_Shown>
tested chemical

> <STRUCTURE_Formula>
C8H9NO2

> <STRUCTURE_MW>
151.1626

> <STRUCTURE_ChemType>
defined organic

> <STRUCTURE_DefinedOrganicForm>
parent

> <STRUCTURE_IUPAC>
1,3-dimethyl-5-nitrobenzene

> <STRUCTURE_SMILES>
Cc1cc(C)cc(c1)[N+](=O)[O-]

> <STRUCTURE_SMILES_Desalt>
Cc1cc(C)cc(c1)[N+](=O)[O-]

> <Substance_modify_yyyymmdd>
20080429

$$$$
