99-26-3
ChemmineR-0915142007XD

 14 15  0  0  0  0  0  0  0  0  1 V2000
    6.6820   -2.6600    0.0000 Bi   0  0  0  0  0  0  0  0  0  0  0  0
    4.6310   -3.3170    0.0000 C    0  0  0  0  0  0  0  0  0  0  0  0
    4.6310   -2.0030    0.0000 C    0  0  0  0  0  0  0  0  0  0  0  0
    5.8969   -3.7336    0.0000 O    0  0  0  0  0  0  0  0  0  0  0  0
    5.8969   -1.5864    0.0000 O    0  0  0  0  0  0  0  0  0  0  0  0
    3.4933   -3.9900    0.0000 C    0  0  0  0  0  0  0  0  0  0  0  0
    2.3395   -2.0030    0.0000 C    0  0  0  0  0  0  0  0  0  0  0  0
    3.4933   -1.3300    0.0000 C    0  0  0  0  0  0  0  0  0  0  0  0
    1.1698   -1.3300    0.0000 C    0  0  0  0  0  0  0  0  0  0  0  0
    2.3395   -3.3170    0.0000 C    0  0  0  0  0  0  0  0  0  0  0  0
    0.0000   -1.9870    0.0000 O    0  0  0  0  0  0  0  0  0  0  0  0
    8.0120   -2.6440    0.0000 O    0  0  0  0  0  0  0  0  0  0  0  0
    3.4933   -5.3200    0.0000 O    0  0  0  0  0  0  0  0  0  0  0  0
    1.1858    0.0000    0.0000 O    0  0  0  0  0  0  0  0  0  0  0  0
  1  4  1  0  0  0  0
  1  5  1  0  0  0  0
  1 12  1  0  0  0  0
  2  4  1  0  0  0  0
  2  6  1  0  0  0  0
  2  3  2  0  0  0  0
  3  5  1  0  0  0  0
  3  8  1  0  0  0  0
  6 10  2  0  0  0  0
  6 13  1  0  0  0  0
  7  8  2  0  0  0  0
  7  9  1  0  0  0  0
  7 10  1  0  0  0  0
  9 11  2  0  0  0  0
  9 14  1  0  0  0  0
M  END
> <ID>
11811

> <Formula>
C7H5BiO6

> <FW>
394.0914

> <DSSTox_CID>
26588

> <DSSTox_RID>
81746

> <DSSTox_GSID>
46588

> <DSSTox_FileID_Sort>
6427

> <TS_ChemName>
Bismuth subgallate

> <TS_ChemName_Synonyms>


> <TS_CASRN>
99-26-3

> <CASRN_ChemName_Relationship>
primary

> <TS_Description>
single chemical compound

> <ChemNote>


> <STRUCTURE_Shown>
tested chemical

> <STRUCTURE_Formula>
C7H5BiO6

> <STRUCTURE_MW>
394.0914

> <STRUCTURE_ChemType>
organometallic

> <STRUCTURE_DefinedOrganicForm>


> <STRUCTURE_IUPAC>
2,7-dihydroxy-1,3,2-benzodioxabismole-5-carboxylic acid

> <STRUCTURE_SMILES>
O=C(O)c2cc1O[Bi](O)Oc1c(O)c2

> <STRUCTURE_SMILES_Desalt>
O=C(O)c2cc1O[Bi](O)Oc1c(O)c2

> <Substance_modify_yyyymmdd>
20110810

$$$$
