99-30-9
ChemmineR-0915142007XD

 12 12  0  0  0  0  0  0  0  0  2 V2000
    5.9827   -1.1547    0.0000 O    0  0  0  0  0  0  0  0  0  0  0  0
    5.3186   -2.3033    0.0000 N    0  3  0  0  0  0  0  0  0  0  0  0
    3.9905   -2.3033    0.0000 C    0  0  0  0  0  0  0  0  0  0  0  0
    3.3264   -3.4580    0.0000 C    0  0  0  0  0  0  0  0  0  0  0  0
    1.9922   -3.4580    0.0000 C    0  0  0  0  0  0  0  0  0  0  0  0
    1.3282   -2.3033    0.0000 C    0  0  0  0  0  0  0  0  0  0  0  0
    1.9922   -1.1547    0.0000 C    0  0  0  0  0  0  0  0  0  0  0  0
    3.3264   -1.1547    0.0000 C    0  0  0  0  0  0  0  0  0  0  0  0
    1.3282    0.0000    0.0000 Cl   0  0  0  0  0  0  0  0  0  0  0  0
    0.0000   -2.3033    0.0000 N    0  0  0  0  0  0  0  0  0  0  0  0
    1.3282   -4.6067    0.0000 Cl   0  0  0  0  0  0  0  0  0  0  0  0
    5.9827   -3.4580    0.0000 O    0  5  0  0  0  0  0  0  0  0  0  0
  1  2  2  0  0  0  0
  2  3  1  0  0  0  0
  2 12  1  0  0  0  0
  3  4  2  0  0  0  0
  3  8  1  0  0  0  0
  4  5  1  0  0  0  0
  5  6  2  0  0  0  0
  5 11  1  0  0  0  0
  6  7  1  0  0  0  0
  6 10  1  0  0  0  0
  7  8  2  0  0  0  0
  7  9  1  0  0  0  0
M  END
> <ID>
410

> <Formula>
C6H4Cl2N2O2

> <FW>
207.0142

> <DSSTox_CID>
426

> <DSSTox_RID>
75578

> <DSSTox_GSID>
20426

> <DSSTox_FileID_Sort>
262

> <TS_ChemName>
Dicloran

> <TS_ChemName_Synonyms>
Dichloran (2,6-Dichloro-4-nitroaniline) (Benzenamine, 2,6-dichloro-4-nitro-) (DCNA) (Dichloran)

> <TS_CASRN>
99-30-9

> <CASRN_ChemName_Relationship>
primary

> <TS_Description>
single chemical compound

> <ChemNote>


> <STRUCTURE_Shown>
tested chemical

> <STRUCTURE_Formula>
C6H4Cl2N2O2

> <STRUCTURE_MW>
207.0142

> <STRUCTURE_ChemType>
defined organic

> <STRUCTURE_DefinedOrganicForm>
parent

> <STRUCTURE_IUPAC>
2,6-dichloro-4-nitroaniline

> <STRUCTURE_SMILES>
Clc1cc(cc(Cl)c1N)[N+]([O-])=O

> <STRUCTURE_SMILES_Desalt>
Clc1cc(cc(Cl)c1N)[N+]([O-])=O

> <Substance_modify_yyyymmdd>
20080429

$$$$
