99-45-6
ChemmineR-0915142007XD

 13 13  0  0  0  0  0  0  0  0  1 V2000
    3.4896   -1.9837    0.0000 C   0  0  0  0  0  0  0  0  0  0  0  0
    2.3399   -2.6395    0.0000 C   0  0  0  0  0  0  0  0  0  0  0  0
    1.1659   -1.9837    0.0000 C   0  0  0  0  0  0  0  0  0  0  0  0
    4.6231   -2.6395    0.0000 C   0  0  0  0  0  0  0  0  0  0  0  0
    1.1659   -0.6720    0.0000 C   0  0  0  0  0  0  0  0  0  0  0  0
    3.4896   -0.6558    0.0000 C   0  0  0  0  0  0  0  0  0  0  0  0
    4.6231   -3.9673    0.0000 O   0  0  0  0  0  0  0  0  0  0  0  0
    2.3399    0.0000    0.0000 C   0  0  0  0  0  0  0  0  0  0  0  0
    0.0000   -2.6233    0.0000 O   0  0  0  0  0  0  0  0  0  0  0  0
    6.9630   -2.6233    0.0000 N   0  0  0  0  0  0  0  0  0  0  0  0
    0.0000   -0.0162    0.0000 O   0  0  0  0  0  0  0  0  0  0  0  0
    5.7729   -1.9837    0.0000 C   0  0  0  0  0  0  0  0  0  0  0  0
    8.0966   -1.9351    0.0000 C   0  0  0  0  0  0  0  0  0  0  0  0
  1  2  1  0  0  0  0
  1  4  1  0  0  0  0
  1  6  2  0  0  0  0
  2  3  2  0  0  0  0
  3  9  1  0  0  0  0
  3  5  1  0  0  0  0
  4  7  2  0  0  0  0
  4 12  1  0  0  0  0
  5  8  2  0  0  0  0
  5 11  1  0  0  0  0
  6  8  1  0  0  0  0
 10 12  1  0  0  0  0
 10 13  1  0  0  0  0
M  END
> <ID>
13702

> <Formula>
C9H11NO3

> <FW>
181.1885

> <DSSTox_CID>
28636

> <DSSTox_RID>
82906

> <DSSTox_GSID>
48710

> <DSSTox_FileID_Sort>
7583

> <TS_ChemName>
Adrenone

> <TS_ChemName_Synonyms>


> <TS_CASRN>
99-45-6

> <CASRN_ChemName_Relationship>
primary

> <TS_Description>
single chemical compound

> <ChemNote>


> <STRUCTURE_Shown>
tested chemical

> <STRUCTURE_Formula>
C9H11NO3

> <STRUCTURE_MW>
181.1885

> <STRUCTURE_ChemType>
defined organic

> <STRUCTURE_DefinedOrganicForm>
parent

> <STRUCTURE_IUPAC>
1-(3,4-dihydroxyphenyl)-2-(methylamino)ethanone

> <STRUCTURE_SMILES>
Oc1ccc(cc1O)C(=O)CNC

> <STRUCTURE_SMILES_Desalt>
Oc1ccc(cc1O)C(=O)CNC

> <Substance_modify_yyyymmdd>
20111204

$$$$
