99-52-5
ChemmineR-0915142007XD

 11 11  0  0  0  0  0  0  0  0  2 V2000
    0.6698   -2.3024    0.0000 N   0  3  0  0  0  0  0  0  0  0  0  0
    0.0000   -1.1542    0.0000 O   0  0  0  0  0  0  0  0  0  0  0  0
    0.0000   -3.4565    0.0000 O   0  5  0  0  0  0  0  0  0  0  0  0
    1.9974   -2.3024    0.0000 C   0  0  0  0  0  0  0  0  0  0  0  0
    2.6552   -3.4565    0.0000 C   0  0  0  0  0  0  0  0  0  0  0  0
    3.9948   -3.4565    0.0000 C   0  0  0  0  0  0  0  0  0  0  0  0
    4.6526   -2.3024    0.0000 C   0  0  0  0  0  0  0  0  0  0  0  0
    5.9802   -2.3024    0.0000 N   0  0  0  0  0  0  0  0  0  0  0  0
    3.9948   -1.1542    0.0000 C   0  0  0  0  0  0  0  0  0  0  0  0
    4.6526    0.0000    0.0000 C   0  0  0  0  0  0  0  0  0  0  0  0
    2.6552   -1.1542    0.0000 C   0  0  0  0  0  0  0  0  0  0  0  0
  1  2  2  0  0  0  0
  1  3  1  0  0  0  0
  1  4  1  0  0  0  0
  4  5  2  0  0  0  0
  4 11  1  0  0  0  0
  5  6  1  0  0  0  0
  6  7  2  0  0  0  0
  7  8  1  0  0  0  0
  7  9  1  0  0  0  0
  9 10  1  0  0  0  0
  9 11  2  0  0  0  0
M  END
> <ID>
4307

> <Formula>
C7H8N2O2

> <FW>
152.1506

> <DSSTox_CID>
5629

> <DSSTox_RID>
77858

> <DSSTox_GSID>
25629

> <DSSTox_FileID_Sort>
2541

> <TS_ChemName>
2-Methyl-4-nitroaniline

> <TS_ChemName_Synonyms>


> <TS_CASRN>
99-52-5

> <CASRN_ChemName_Relationship>
primary

> <TS_Description>
single chemical compound

> <ChemNote>


> <STRUCTURE_Shown>
tested chemical

> <STRUCTURE_Formula>
C7H8N2O2

> <STRUCTURE_MW>
152.1506

> <STRUCTURE_ChemType>
defined organic

> <STRUCTURE_DefinedOrganicForm>
parent

> <STRUCTURE_IUPAC>
2-methyl-4-nitroaniline

> <STRUCTURE_SMILES>
Cc1cc(ccc1N)[N+]([O-])=O

> <STRUCTURE_SMILES_Desalt>
Cc1cc(ccc1N)[N+]([O-])=O

> <Substance_modify_yyyymmdd>
20080429

$$$$
