99-54-7
ChemmineR-0915142007XD

 11 11  0  0  0  0  0  0  0  0  2 V2000
    5.3194   -2.3037    0.0000 N    0  3  0  0  0  0  0  0  0  0  0  0
    5.9835   -1.1488    0.0000 O    0  0  0  0  0  0  0  0  0  0  0  0
    5.9835   -3.4525    0.0000 O    0  5  0  0  0  0  0  0  0  0  0  0
    3.9910   -2.3037    0.0000 C    0  0  0  0  0  0  0  0  0  0  0  0
    3.3269   -3.4525    0.0000 C    0  0  0  0  0  0  0  0  0  0  0  0
    1.9925   -3.4525    0.0000 C    0  0  0  0  0  0  0  0  0  0  0  0
    1.3283   -2.3037    0.0000 C    0  0  0  0  0  0  0  0  0  0  0  0
    0.0000   -2.3037    0.0000 Cl   0  0  0  0  0  0  0  0  0  0  0  0
    1.9925   -1.1488    0.0000 C    0  0  0  0  0  0  0  0  0  0  0  0
    1.3283    0.0000    0.0000 Cl   0  0  0  0  0  0  0  0  0  0  0  0
    3.3269   -1.1488    0.0000 C    0  0  0  0  0  0  0  0  0  0  0  0
  1  2  2  0  0  0  0
  1  3  1  0  0  0  0
  1  4  1  0  0  0  0
  4  5  2  0  0  0  0
  4 11  1  0  0  0  0
  5  6  1  0  0  0  0
  6  7  2  0  0  0  0
  7  8  1  0  0  0  0
  7  9  1  0  0  0  0
  9 10  1  0  0  0  0
  9 11  2  0  0  0  0
M  END
> <ID>
3961

> <Formula>
C6H3Cl2NO2

> <FW>
191.9995

> <DSSTox_CID>
4999

> <DSSTox_RID>
77619

> <DSSTox_GSID>
24999

> <DSSTox_FileID_Sort>
2302

> <TS_ChemName>
3,4-Dichloronitrobenzene

> <TS_ChemName_Synonyms>
3,4-Dichloronitrobenzene (Benzene, 1,2-dichloro-4-nitro-)

> <TS_CASRN>
99-54-7

> <CASRN_ChemName_Relationship>
primary

> <TS_Description>
single chemical compound

> <ChemNote>


> <STRUCTURE_Shown>
tested chemical

> <STRUCTURE_Formula>
C6H3Cl2NO2

> <STRUCTURE_MW>
191.9995

> <STRUCTURE_ChemType>
defined organic

> <STRUCTURE_DefinedOrganicForm>
parent

> <STRUCTURE_IUPAC>
1,2-dichloro-4-nitrobenzene

> <STRUCTURE_SMILES>
Clc1ccc(cc1Cl)[N+]([O-])=O

> <STRUCTURE_SMILES_Desalt>
Clc1ccc(cc1Cl)[N+]([O-])=O

> <Substance_modify_yyyymmdd>
20080429

$$$$
