99-51-4
ChemmineR-0915142007XD

 11 11  0  0  0  0  0  0  0  0  2 V2000
    5.9835   -2.3037    0.0000 C   0  0  0  0  0  0  0  0  0  0  0  0
    4.6552   -2.3037    0.0000 C   0  0  0  0  0  0  0  0  0  0  0  0
    3.9910   -3.4525    0.0000 C   0  0  0  0  0  0  0  0  0  0  0  0
    2.6567   -3.4525    0.0000 C   0  0  0  0  0  0  0  0  0  0  0  0
    1.9925   -2.3037    0.0000 C   0  0  0  0  0  0  0  0  0  0  0  0
    2.6567   -1.1488    0.0000 C   0  0  0  0  0  0  0  0  0  0  0  0
    3.9910   -1.1488    0.0000 C   0  0  0  0  0  0  0  0  0  0  0  0
    4.6552    0.0000    0.0000 C   0  0  0  0  0  0  0  0  0  0  0  0
    0.6642   -2.3037    0.0000 N   0  3  0  0  0  0  0  0  0  0  0  0
    0.0000   -3.4525    0.0000 O   0  5  0  0  0  0  0  0  0  0  0  0
    0.0000   -1.1488    0.0000 O   0  0  0  0  0  0  0  0  0  0  0  0
  1  2  1  0  0  0  0
  2  3  2  0  0  0  0
  2  7  1  0  0  0  0
  3  4  1  0  0  0  0
  4  5  2  0  0  0  0
  5  6  1  0  0  0  0
  5  9  1  0  0  0  0
  6  7  2  0  0  0  0
  7  8  1  0  0  0  0
  9 10  1  0  0  0  0
  9 11  2  0  0  0  0
M  END
> <ID>
4033

> <Formula>
C8H9NO2

> <FW>
151.1626

> <DSSTox_CID>
5133

> <DSSTox_RID>
77677

> <DSSTox_GSID>
25133

> <DSSTox_FileID_Sort>
2360

> <TS_ChemName>
1,2-Dimethyl-4-nitrobenzene

> <TS_ChemName_Synonyms>
4-Nitro-o-xylene

> <TS_CASRN>
99-51-4

> <CASRN_ChemName_Relationship>
primary

> <TS_Description>
single chemical compound

> <ChemNote>


> <STRUCTURE_Shown>
tested chemical

> <STRUCTURE_Formula>
C8H9NO2

> <STRUCTURE_MW>
151.1626

> <STRUCTURE_ChemType>
defined organic

> <STRUCTURE_DefinedOrganicForm>
parent

> <STRUCTURE_IUPAC>
1,2-dimethyl-4-nitrobenzene

> <STRUCTURE_SMILES>
Cc1ccc(cc1C)[N+](=O)[O-]

> <STRUCTURE_SMILES_Desalt>
Cc1ccc(cc1C)[N+](=O)[O-]

> <Substance_modify_yyyymmdd>
20080429

$$$$
