99-63-8
ChemmineR-0915142007XD

 12 12  0  0  0  0  0  0  0  0  1 V2000
    0.0000   -3.9845    0.0000 Cl   0  0  0  0  0  0  0  0  0  0  0  0
    4.6067    0.0000    0.0000 Cl   0  0  0  0  0  0  0  0  0  0  0  0
    3.4580   -1.9982    0.0000 C    0  0  0  0  0  0  0  0  0  0  0  0
    4.6067   -2.6563    0.0000 C    0  0  0  0  0  0  0  0  0  0  0  0
    4.6067   -3.9845    0.0000 C    0  0  0  0  0  0  0  0  0  0  0  0
    3.4580   -4.6545    0.0000 C    0  0  0  0  0  0  0  0  0  0  0  0
    2.3033   -3.9845    0.0000 C    0  0  0  0  0  0  0  0  0  0  0  0
    2.3033   -2.6563    0.0000 C    0  0  0  0  0  0  0  0  0  0  0  0
    3.4580   -0.6701    0.0000 C    0  0  0  0  0  0  0  0  0  0  0  0
    2.3033    0.0000    0.0000 O    0  0  0  0  0  0  0  0  0  0  0  0
    1.1547   -4.6545    0.0000 C    0  0  0  0  0  0  0  0  0  0  0  0
    1.1547   -5.9827    0.0000 O    0  0  0  0  0  0  0  0  0  0  0  0
  1 11  1  0  0  0  0
  2  9  1  0  0  0  0
  3  4  2  0  0  0  0
  3  8  1  0  0  0  0
  3  9  1  0  0  0  0
  4  5  1  0  0  0  0
  5  6  2  0  0  0  0
  6  7  1  0  0  0  0
  7  8  2  0  0  0  0
  7 11  1  0  0  0  0
  9 10  2  0  0  0  0
 11 12  2  0  0  0  0
M  END
> <ID>
4749

> <Formula>
C8H4Cl2O2

> <FW>
203.0222

> <DSSTox_CID>
6641

> <DSSTox_RID>
78171

> <DSSTox_GSID>
26641

> <DSSTox_FileID_Sort>
2854

> <TS_ChemName>
1,3-Benzenedicarbonyl dichloride

> <TS_ChemName_Synonyms>


> <TS_CASRN>
99-63-8

> <CASRN_ChemName_Relationship>
primary

> <TS_Description>
single chemical compound

> <ChemNote>


> <STRUCTURE_Shown>
tested chemical

> <STRUCTURE_Formula>
C8H4Cl2O2

> <STRUCTURE_MW>
203.0222

> <STRUCTURE_ChemType>
defined organic

> <STRUCTURE_DefinedOrganicForm>
parent

> <STRUCTURE_IUPAC>
benzene-1,3-dicarbonyl dichloride

> <STRUCTURE_SMILES>
O=C(Cl)c1cccc(c1)C(Cl)=O

> <STRUCTURE_SMILES_Desalt>
O=C(Cl)c1cccc(c1)C(Cl)=O

> <Substance_modify_yyyymmdd>
20080429

$$$$
