99-62-7
ChemmineR-0915142007XD

 12 12  0  0  0  0  0  0  0  0  1 V2000
    4.5984   -2.0023    0.0000 C   0  0  0  0  0  0  0  0  0  0  0  0
    4.5984   -3.3348    0.0000 C   0  0  0  0  0  0  0  0  0  0  0  0
    3.4453   -3.9908    0.0000 C   0  0  0  0  0  0  0  0  0  0  0  0
    2.3061   -3.3348    0.0000 C   0  0  0  0  0  0  0  0  0  0  0  0
    2.3061   -2.0023    0.0000 C   0  0  0  0  0  0  0  0  0  0  0  0
    3.4453   -1.3326    0.0000 C   0  0  0  0  0  0  0  0  0  0  0  0
    5.7514   -1.3326    0.0000 C   0  0  0  0  0  0  0  0  0  0  0  0
    5.7514    0.0000    0.0000 C   0  0  0  0  0  0  0  0  0  0  0  0
    6.9044   -2.0023    0.0000 C   0  0  0  0  0  0  0  0  0  0  0  0
    1.1530   -1.3326    0.0000 C   0  0  0  0  0  0  0  0  0  0  0  0
    0.0000   -2.0023    0.0000 C   0  0  0  0  0  0  0  0  0  0  0  0
    1.1530    0.0000    0.0000 C   0  0  0  0  0  0  0  0  0  0  0  0
  1  2  2  0  0  0  0
  1  6  1  0  0  0  0
  1  7  1  0  0  0  0
  2  3  1  0  0  0  0
  3  4  2  0  0  0  0
  4  5  1  0  0  0  0
  5  6  2  0  0  0  0
  5 10  1  0  0  0  0
  7  8  1  0  0  0  0
  7  9  1  0  0  0  0
 10 11  1  0  0  0  0
 10 12  1  0  0  0  0
M  END
> <ID>
4748

> <Formula>
C12H18

> <FW>
162.2713

> <DSSTox_CID>
6640

> <DSSTox_RID>
78170

> <DSSTox_GSID>
26640

> <DSSTox_FileID_Sort>
2853

> <TS_ChemName>
1,3-Diisopropylbenzene

> <TS_ChemName_Synonyms>
1,3-Diisopropylbenzene (m-Diisopropylbenzene) (Benzene, 1,3-bis(1-methylethyl)-)

> <TS_CASRN>
99-62-7

> <CASRN_ChemName_Relationship>
primary

> <TS_Description>
single chemical compound

> <ChemNote>


> <STRUCTURE_Shown>
tested chemical

> <STRUCTURE_Formula>
C12H18

> <STRUCTURE_MW>
162.2713

> <STRUCTURE_ChemType>
defined organic

> <STRUCTURE_DefinedOrganicForm>
parent

> <STRUCTURE_IUPAC>
1,3-di(propan-2-yl)benzene

> <STRUCTURE_SMILES>
CC(C)c1cccc(c1)C(C)C

> <STRUCTURE_SMILES_Desalt>
CC(C)c1cccc(c1)C(C)C

> <Substance_modify_yyyymmdd>
20080429

$$$$
