99-61-6
ChemmineR-0915142007XD

 11 11  0  0  0  0  0  0  0  0  2 V2000
    3.9917   -2.3040    0.0000 C   0  0  0  0  0  0  0  0  0  0  0  0
    3.3235   -1.1520    0.0000 C   0  0  0  0  0  0  0  0  0  0  0  0
    3.3235   -3.4560    0.0000 C   0  0  0  0  0  0  0  0  0  0  0  0
    1.3306   -2.3040    0.0000 C   0  0  0  0  0  0  0  0  0  0  0  0
    1.3306    0.0000    0.0000 C   0  0  0  0  0  0  0  0  0  0  0  0
    1.9930   -1.1520    0.0000 C   0  0  0  0  0  0  0  0  0  0  0  0
    1.9930   -3.4560    0.0000 C   0  0  0  0  0  0  0  0  0  0  0  0
    1.3306   -4.6080    0.0000 N   0  3  0  0  0  0  0  0  0  0  0  0
    0.0000    0.0000    0.0000 O   0  0  0  0  0  0  0  0  0  0  0  0
    0.0000   -4.6080    0.0000 O   0  5  0  0  0  0  0  0  0  0  0  0
    1.9930   -5.7600    0.0000 O   0  0  0  0  0  0  0  0  0  0  0  0
  1  2  2  0  0  0  0
  1  3  1  0  0  0  0
  2  6  1  0  0  0  0
  3  7  2  0  0  0  0
  4  6  2  0  0  0  0
  4  7  1  0  0  0  0
  5  6  1  0  0  0  0
  5  9  2  0  0  0  0
  7  8  1  0  0  0  0
  8 10  1  0  0  0  0
  8 11  2  0  0  0  0
M  END
> <ID>
14247

> <Formula>
C7H5NO3

> <FW>
151.1195

> <DSSTox_CID>
29342

> <DSSTox_RID>
83458

> <DSSTox_GSID>
49383

> <DSSTox_FileID_Sort>
8133

> <TS_ChemName>
3-Nitrobenzaldehyde

> <TS_ChemName_Synonyms>


> <TS_CASRN>
99-61-6

> <CASRN_ChemName_Relationship>
primary

> <TS_Description>
single chemical compound

> <ChemNote>


> <STRUCTURE_Shown>
tested chemical

> <STRUCTURE_Formula>
C7H5NO3

> <STRUCTURE_MW>
151.1195

> <STRUCTURE_ChemType>
defined organic

> <STRUCTURE_DefinedOrganicForm>
parent

> <STRUCTURE_IUPAC>
3-nitrobenzaldehyde

> <STRUCTURE_SMILES>
O=[N+]([O-])c1cc(C=O)ccc1

> <STRUCTURE_SMILES_Desalt>
O=[N+]([O-])c1cc(C=O)ccc1

> <Substance_modify_yyyymmdd>
20111204

$$$$
