99-66-1
ChemmineR-0915142007XD

 10  9  0  0  0  0  0  0  0  0  1 V2000
    3.4563   -0.6682    0.0000 C   0  0  0  0  0  0  0  0  0  0  0  0
    4.6084    0.0000    0.0000 O   0  0  0  0  0  0  0  0  0  0  0  0
    2.3042    0.0000    0.0000 O   0  0  0  0  0  0  0  0  0  0  0  0
    3.4563   -1.9989    0.0000 C   0  0  0  0  0  0  0  0  0  0  0  0
    4.6084   -2.6614    0.0000 C   0  0  0  0  0  0  0  0  0  0  0  0
    5.7605   -1.9989    0.0000 C   0  0  0  0  0  0  0  0  0  0  0  0
    5.7605   -0.6682    0.0000 C   0  0  0  0  0  0  0  0  0  0  0  0
    2.3042   -2.6614    0.0000 C   0  0  0  0  0  0  0  0  0  0  0  0
    1.1521   -1.9989    0.0000 C   0  0  0  0  0  0  0  0  0  0  0  0
    0.0000   -2.6614    0.0000 C   0  0  0  0  0  0  0  0  0  0  0  0
  1  2  2  0  0  0  0
  1  3  1  0  0  0  0
  1  4  1  0  0  0  0
  4  5  1  0  0  0  0
  4  8  1  0  0  0  0
  5  6  1  0  0  0  0
  6  7  1  0  0  0  0
  8  9  1  0  0  0  0
  9 10  1  0  0  0  0
M  END
> <ID>
3335

> <Formula>
C8H16O2

> <FW>
144.2114

> <DSSTox_CID>
3733

> <DSSTox_RID>
77171

> <DSSTox_GSID>
23733

> <DSSTox_FileID_Sort>
1854

> <TS_ChemName>
Valproic acid

> <TS_ChemName_Synonyms>
Valproic Acid (VPA)

> <TS_CASRN>
99-66-1

> <CASRN_ChemName_Relationship>
primary

> <TS_Description>
single chemical compound

> <ChemNote>


> <STRUCTURE_Shown>
tested chemical

> <STRUCTURE_Formula>
C8H16O2

> <STRUCTURE_MW>
144.2114

> <STRUCTURE_ChemType>
defined organic

> <STRUCTURE_DefinedOrganicForm>
parent

> <STRUCTURE_IUPAC>
2-propylpentanoic acid

> <STRUCTURE_SMILES>
CCCC(CCC)C(=O)O

> <STRUCTURE_SMILES_Desalt>
CCCC(CCC)C(=O)O

> <Substance_modify_yyyymmdd>
20080429

$$$$
