99-76-3
ChemmineR-0915142007XD

 11 11  0  0  0  0  0  0  0  0  1 V2000
    5.3194   -2.3037    0.0000 C   0  0  0  0  0  0  0  0  0  0  0  0
    3.9910   -2.3037    0.0000 C   0  0  0  0  0  0  0  0  0  0  0  0
    3.3269   -3.4525    0.0000 C   0  0  0  0  0  0  0  0  0  0  0  0
    1.9925   -3.4525    0.0000 C   0  0  0  0  0  0  0  0  0  0  0  0
    1.3283   -2.3037    0.0000 C   0  0  0  0  0  0  0  0  0  0  0  0
    1.9925   -1.1488    0.0000 C   0  0  0  0  0  0  0  0  0  0  0  0
    3.3269   -1.1488    0.0000 C   0  0  0  0  0  0  0  0  0  0  0  0
    0.0000   -2.3037    0.0000 O   0  0  0  0  0  0  0  0  0  0  0  0
    5.9835   -3.4525    0.0000 O   0  0  0  0  0  0  0  0  0  0  0  0
    5.9835   -1.1488    0.0000 O   0  0  0  0  0  0  0  0  0  0  0  0
    5.3194    0.0000    0.0000 C   0  0  0  0  0  0  0  0  0  0  0  0
  1  2  1  0  0  0  0
  1  9  2  0  0  0  0
  1 10  1  0  0  0  0
  2  3  2  0  0  0  0
  2  7  1  0  0  0  0
  3  4  1  0  0  0  0
  4  5  2  0  0  0  0
  5  6  1  0  0  0  0
  5  8  1  0  0  0  0
  6  7  2  0  0  0  0
 10 11  1  0  0  0  0
M  END
> <ID>
2296

> <Formula>
C8H8O3

> <FW>
152.1473

> <DSSTox_CID>
2529

> <DSSTox_RID>
76616

> <DSSTox_GSID>
22529

> <DSSTox_FileID_Sort>
1300

> <TS_ChemName>
Methylparaben

> <TS_ChemName_Synonyms>
Methyl paraben (Benzoic acid, 4-hydroxy-, methyl ester)

> <TS_CASRN>
99-76-3

> <CASRN_ChemName_Relationship>
primary

> <TS_Description>
single chemical compound

> <ChemNote>


> <STRUCTURE_Shown>
tested chemical

> <STRUCTURE_Formula>
C8H8O3

> <STRUCTURE_MW>
152.1473

> <STRUCTURE_ChemType>
defined organic

> <STRUCTURE_DefinedOrganicForm>
parent

> <STRUCTURE_IUPAC>
methyl 4-hydroxybenzoate

> <STRUCTURE_SMILES>
Oc1ccc(cc1)C(=O)OC

> <STRUCTURE_SMILES_Desalt>
Oc1ccc(cc1)C(=O)OC

> <Substance_modify_yyyymmdd>
20080429

$$$$
