99-71-8
ChemmineR-0915142007XD

 11 11  0  0  0  0  0  0  0  0  1 V2000
    2.3036   -2.6491    0.0000 C   0  0  0  0  0  0  0  0  0  0  0  0
    2.2978   -3.9852    0.0000 C   0  0  0  0  0  0  0  0  0  0  0  0
    3.4611   -1.9868    0.0000 C   0  0  0  0  0  0  0  0  0  0  0  0
    4.6071   -3.9909    0.0000 C   0  0  0  0  0  0  0  0  0  0  0  0
    1.1518   -1.9868    0.0000 C   0  0  0  0  0  0  0  0  0  0  0  0
    3.4496   -4.6532    0.0000 C   0  0  0  0  0  0  0  0  0  0  0  0
    4.6071   -2.6548    0.0000 C   0  0  0  0  0  0  0  0  0  0  0  0
    5.7589   -4.6589    0.0000 O   0  0  0  0  0  0  0  0  0  0  0  0
    1.1518   -0.6508    0.0000 C   0  0  0  0  0  0  0  0  0  0  0  0
    0.0000   -2.6491    0.0000 C   0  0  0  0  0  0  0  0  0  0  0  0
    0.0173    0.0000    0.0000 C   0  0  0  0  0  0  0  0  0  0  0  0
  1  2  2  0  0  0  0
  1  3  1  0  0  0  0
  1  5  1  0  0  0  0
  2  6  1  0  0  0  0
  3  7  2  0  0  0  0
  4  7  1  0  0  0  0
  4  8  1  0  0  0  0
  4  6  2  0  0  0  0
  5  9  1  0  0  0  0
  5 10  1  0  0  0  0
  9 11  1  0  0  0  0
M  END
> <ID>
2161

> <Formula>
C10H14O

> <FW>
150.2176

> <DSSTox_CID>
2332

> <DSSTox_RID>
76552

> <DSSTox_GSID>
22332

> <DSSTox_FileID_Sort>
1236

> <TS_ChemName>
4-(Butan-2-yl)phenol

> <TS_ChemName_Synonyms>
4-(Butan-2-yl)phenol (Phenol, 4-(1-methylpropyl)-) (4-sec-Butylphenol)

> <TS_CASRN>
99-71-8

> <CASRN_ChemName_Relationship>
primary

> <TS_Description>
single chemical compound

> <ChemNote>


> <STRUCTURE_Shown>
tested chemical

> <STRUCTURE_Formula>
C10H14O

> <STRUCTURE_MW>
150.2176

> <STRUCTURE_ChemType>
defined organic

> <STRUCTURE_DefinedOrganicForm>
parent

> <STRUCTURE_IUPAC>
4-(butan-2-yl)phenol

> <STRUCTURE_SMILES>
Oc1ccc(cc1)C(C)CC

> <STRUCTURE_SMILES_Desalt>
Oc1ccc(cc1)C(C)CC

> <Substance_modify_yyyymmdd>
20080429

$$$$
