99-89-8
ChemmineR-0915142007XD

 10 10  0  0  0  0  0  0  0  0  1 V2000
    2.3057   -2.0003    0.0000 C   0  0  0  0  0  0  0  0  0  0  0  0
    2.3057   -3.3298    0.0000 C   0  0  0  0  0  0  0  0  0  0  0  0
    1.1559   -1.3295    0.0000 C   0  0  0  0  0  0  0  0  0  0  0  0
    1.1559   -3.9886    0.0000 C   0  0  0  0  0  0  0  0  0  0  0  0
    0.0000   -2.0003    0.0000 C   0  0  0  0  0  0  0  0  0  0  0  0
    0.0000   -3.3298    0.0000 C   0  0  0  0  0  0  0  0  0  0  0  0
    1.1559    0.0000    0.0000 O   0  0  0  0  0  0  0  0  0  0  0  0
    1.1559   -5.3181    0.0000 C   0  0  0  0  0  0  0  0  0  0  0  0
    0.0000   -5.9709    0.0000 C   0  0  0  0  0  0  0  0  0  0  0  0
    2.3057   -5.9889    0.0000 C   0  0  0  0  0  0  0  0  0  0  0  0
  1  2  1  0  0  0  0
  1  3  2  0  0  0  0
  2  4  2  0  0  0  0
  3  5  1  0  0  0  0
  3  7  1  0  0  0  0
  4  6  1  0  0  0  0
  4  8  1  0  0  0  0
  5  6  2  0  0  0  0
  8  9  1  0  0  0  0
  8 10  1  0  0  0  0
M  END
> <ID>
9226

> <Formula>
C9H12O

> <FW>
136.191

> <DSSTox_CID>
22299

> <DSSTox_RID>
79991

> <DSSTox_GSID>
42299

> <DSSTox_FileID_Sort>
4673

> <TS_ChemName>
4-Isopropylphenol

> <TS_ChemName_Synonyms>
4-Isopropylphenol ;(p-Isopropylphenol)

> <TS_CASRN>
99-89-8

> <CASRN_ChemName_Relationship>
primary

> <TS_Description>
single chemical compound

> <ChemNote>


> <STRUCTURE_Shown>
tested chemical

> <STRUCTURE_Formula>
C9H12O

> <STRUCTURE_MW>
136.191

> <STRUCTURE_ChemType>
defined organic

> <STRUCTURE_DefinedOrganicForm>
parent

> <STRUCTURE_IUPAC>
4-(propan-2-yl)phenol

> <STRUCTURE_SMILES>
CC(C)c1ccc(O)cc1

> <STRUCTURE_SMILES_Desalt>
CC(C)c1ccc(O)cc1

> <Substance_modify_yyyymmdd>
20130301

$$$$
