99-85-4
ChemmineR-0915142007XD

 10 10  0  0  0  0  0  0  0  0  1 V2000
    1.9976   -1.1398    0.0000 C   0  0  0  0  0  0  0  0  0  0  0  0
    2.6815    0.0000    0.0000 C   0  0  0  0  0  0  0  0  0  0  0  0
    4.0012   -2.3155    0.0000 C   0  0  0  0  0  0  0  0  0  0  0  0
    4.6791   -1.1398    0.0000 C   0  0  0  0  0  0  0  0  0  0  0  0
    2.6815   -2.3155    0.0000 C   0  0  0  0  0  0  0  0  0  0  0  0
    4.0012    0.0000    0.0000 C   0  0  0  0  0  0  0  0  0  0  0  0
    0.6659   -1.1398    0.0000 C   0  0  0  0  0  0  0  0  0  0  0  0
    5.9988   -1.1398    0.0000 C   0  0  0  0  0  0  0  0  0  0  0  0
    0.0180   -2.2975    0.0000 C   0  0  0  0  0  0  0  0  0  0  0  0
    0.0000   -0.0120    0.0000 C   0  0  0  0  0  0  0  0  0  0  0  0
  1  2  2  0  0  0  0
  1  5  1  0  0  0  0
  1  7  1  0  0  0  0
  2  6  1  0  0  0  0
  3  5  1  0  0  0  0
  3  4  2  0  0  0  0
  4  8  1  0  0  0  0
  4  6  1  0  0  0  0
  7  9  1  0  0  0  0
  7 10  1  0  0  0  0
M  END
> <ID>
8183

> <Formula>
C10H16

> <FW>
136.234

> <DSSTox_CID>
21210

> <DSSTox_RID>
79650

> <DSSTox_GSID>
41210

> <DSSTox_FileID_Sort>
4332

> <TS_ChemName>
gamma-Terpinene

> <TS_ChemName_Synonyms>


> <TS_CASRN>
99-85-4

> <CASRN_ChemName_Relationship>
primary

> <TS_Description>
single chemical compound

> <ChemNote>


> <STRUCTURE_Shown>
tested chemical

> <STRUCTURE_Formula>
C10H16

> <STRUCTURE_MW>
136.234

> <STRUCTURE_ChemType>
defined organic

> <STRUCTURE_DefinedOrganicForm>
parent

> <STRUCTURE_IUPAC>
1-methyl-4-(propan-2-yl)cyclohexa-1,4-diene

> <STRUCTURE_SMILES>
CC1=CCC(=CC1)C(C)C

> <STRUCTURE_SMILES_Desalt>
CC1=CCC(=CC1)C(C)C

> <Substance_modify_yyyymmdd>
20080825

$$$$
