99-86-5
ChemmineR-0915142007XD

 10 10  0  0  0  0  0  0  0  0  1 V2000
    1.1624   -3.9964    0.0000 C   0  0  0  0  0  0  0  0  0  0  0  0
    2.3187   -3.3193    0.0000 C   0  0  0  0  0  0  0  0  0  0  0  0
    2.3187   -1.9952    0.0000 C   0  0  0  0  0  0  0  0  0  0  0  0
    1.1624   -1.3181    0.0000 C   0  0  0  0  0  0  0  0  0  0  0  0
    0.0000   -3.3193    0.0000 C   0  0  0  0  0  0  0  0  0  0  0  0
    1.1624   -5.3145    0.0000 C   0  0  0  0  0  0  0  0  0  0  0  0
    0.0000   -1.9952    0.0000 C   0  0  0  0  0  0  0  0  0  0  0  0
    1.1624    0.0000    0.0000 C   0  0  0  0  0  0  0  0  0  0  0  0
    2.3008   -5.9736    0.0000 C   0  0  0  0  0  0  0  0  0  0  0  0
    0.0180   -5.9916    0.0000 C   0  0  0  0  0  0  0  0  0  0  0  0
  1  2  2  0  0  0  0
  1  5  1  0  0  0  0
  1  6  1  0  0  0  0
  2  3  1  0  0  0  0
  3  4  2  0  0  0  0
  4  7  1  0  0  0  0
  4  8  1  0  0  0  0
  5  7  1  0  0  0  0
  6  9  1  0  0  0  0
  6 10  1  0  0  0  0
M  END
> <ID>
8210

> <Formula>
C10H16

> <FW>
136.234

> <DSSTox_CID>
21237

> <DSSTox_RID>
79657

> <DSSTox_GSID>
41237

> <DSSTox_FileID_Sort>
4339

> <TS_ChemName>
alpha-Terpinene

> <TS_ChemName_Synonyms>
1-Methyl-4-(propan-2-yl)cyclohexa-1,3-diene

> <TS_CASRN>
99-86-5

> <CASRN_ChemName_Relationship>
primary

> <TS_Description>
single chemical compound

> <ChemNote>


> <STRUCTURE_Shown>
tested chemical

> <STRUCTURE_Formula>
C10H16

> <STRUCTURE_MW>
136.234

> <STRUCTURE_ChemType>
defined organic

> <STRUCTURE_DefinedOrganicForm>
parent

> <STRUCTURE_IUPAC>
1-methyl-4-(propan-2-yl)cyclohexa-1,3-diene

> <STRUCTURE_SMILES>
CC(C)C1=CC=C(C)CC1

> <STRUCTURE_SMILES_Desalt>
CC(C)C1=CC=C(C)CC1

> <Substance_modify_yyyymmdd>
20080825

$$$$
