99-99-0
ChemmineR-0915142007XD

 10 10  0  0  0  0  0  0  0  0  2 V2000
    3.3279   -2.4780    0.0000 C   0  0  0  0  0  0  0  0  0  0  0  0
    1.9991   -2.4780    0.0000 C   0  0  0  0  0  0  0  0  0  0  0  0
    3.9863   -1.3228    0.0000 C   0  0  0  0  0  0  0  0  0  0  0  0
    1.3288   -1.3228    0.0000 C   0  0  0  0  0  0  0  0  0  0  0  0
    1.9991   -0.1915    0.0000 C   0  0  0  0  0  0  0  0  0  0  0  0
    0.0000   -1.3228    0.0000 C   0  0  0  0  0  0  0  0  0  0  0  0
    3.3279   -0.1915    0.0000 C   0  0  0  0  0  0  0  0  0  0  0  0
    5.3150   -1.3228    0.0000 N   0  3  0  0  0  0  0  0  0  0  0  0
    5.9854   -2.4780    0.0000 O   0  0  0  0  0  0  0  0  0  0  0  0
    5.6323    0.0000    0.0000 O   0  5  0  0  0  0  0  0  0  0  0  0
  1  2  2  0  0  0  0
  1  3  1  0  0  0  0
  2  4  1  0  0  0  0
  3  7  2  0  0  0  0
  3  8  1  0  0  0  0
  4  5  2  0  0  0  0
  4  6  1  0  0  0  0
  5  7  1  0  0  0  0
  8  9  2  0  0  0  0
  8 10  1  0  0  0  0
M  END
> <ID>
3366

> <Formula>
C7H7NO2

> <FW>
137.136

> <DSSTox_CID>
3792

> <DSSTox_RID>
77192

> <DSSTox_GSID>
23792

> <DSSTox_FileID_Sort>
1875

> <TS_ChemName>
4-Nitrotoluene

> <TS_ChemName_Synonyms>
4-Nitrotoluene (Benzene, 1-methyl-4-nitro-)

> <TS_CASRN>
99-99-0

> <CASRN_ChemName_Relationship>
primary

> <TS_Description>
single chemical compound

> <ChemNote>


> <STRUCTURE_Shown>
tested chemical

> <STRUCTURE_Formula>
C7H7NO2

> <STRUCTURE_MW>
137.136

> <STRUCTURE_ChemType>
defined organic

> <STRUCTURE_DefinedOrganicForm>
parent

> <STRUCTURE_IUPAC>
1-methyl-4-nitrobenzene

> <STRUCTURE_SMILES>
Cc1ccc(cc1)[N+](=O)[O-]

> <STRUCTURE_SMILES_Desalt>
Cc1ccc(cc1)[N+](=O)[O-]

> <Substance_modify_yyyymmdd>
20080429

$$$$
