99-93-4
ChemmineR-0915142007XD

 10 10  0  0  0  0  0  0  0  0  1 V2000
    1.1523   -1.3309    0.0000 C   0  0  0  0  0  0  0  0  0  0  0  0
    0.0000   -2.0050    0.0000 C   0  0  0  0  0  0  0  0  0  0  0  0
    1.1523    0.0000    0.0000 O   0  0  0  0  0  0  0  0  0  0  0  0
    2.3046   -2.0050    0.0000 C   0  0  0  0  0  0  0  0  0  0  0  0
    3.4568   -1.3309    0.0000 C   0  0  0  0  0  0  0  0  0  0  0  0
    2.3046   -3.3301    0.0000 C   0  0  0  0  0  0  0  0  0  0  0  0
    4.6091   -2.0050    0.0000 C   0  0  0  0  0  0  0  0  0  0  0  0
    3.4568   -3.9869    0.0000 C   0  0  0  0  0  0  0  0  0  0  0  0
    4.6091   -3.3301    0.0000 C   0  0  0  0  0  0  0  0  0  0  0  0
    5.7614   -3.9869    0.0000 O   0  0  0  0  0  0  0  0  0  0  0  0
  1  2  1  0  0  0  0
  1  3  2  0  0  0  0
  1  4  1  0  0  0  0
  4  5  2  0  0  0  0
  4  6  1  0  0  0  0
  5  7  1  0  0  0  0
  6  8  2  0  0  0  0
  7  9  2  0  0  0  0
  8  9  1  0  0  0  0
  9 10  1  0  0  0  0
M  END
> <ID>
5805

> <Formula>
C8H8O2

> <FW>
136.1479

> <DSSTox_CID>
9133

> <DSSTox_RID>
78678

> <DSSTox_GSID>
29133

> <DSSTox_FileID_Sort>
3360

> <TS_ChemName>
4-Hydroxyacetophenone

> <TS_ChemName_Synonyms>
4'-Hydroxyacetophenone (Ethanone, 1-(4-hydroxyphenyl)-)

> <TS_CASRN>
99-93-4

> <CASRN_ChemName_Relationship>
primary

> <TS_Description>
single chemical compound

> <ChemNote>


> <STRUCTURE_Shown>
tested chemical

> <STRUCTURE_Formula>
C8H8O2

> <STRUCTURE_MW>
136.1479

> <STRUCTURE_ChemType>
defined organic

> <STRUCTURE_DefinedOrganicForm>
parent

> <STRUCTURE_IUPAC>
1-(4-hydroxyphenyl)ethanone

> <STRUCTURE_SMILES>
O=C(C)c1ccc(O)cc1

> <STRUCTURE_SMILES_Desalt>
O=C(C)c1ccc(O)cc1

> <Substance_modify_yyyymmdd>
20080429

$$$$
