99011-02-6
ChemmineR-0915142007XD

 18 20  0  0  0  0  0  0  0  0  1 V2000
    3.4445   -3.3199    0.0000 C   0  0  0  0  0  0  0  0  0  0  0  0
    2.2939   -3.9942    0.0000 C   0  0  0  0  0  0  0  0  0  0  0  0
    3.4445   -1.9934    0.0000 C   0  0  0  0  0  0  0  0  0  0  0  0
    4.7124   -3.7377    0.0000 N   0  0  0  0  0  0  0  0  0  0  0  0
    1.1580   -3.3199    0.0000 C   0  0  0  0  0  0  0  0  0  0  0  0
    2.2939   -5.3280    0.0000 C   0  0  0  0  0  0  0  0  0  0  0  0
    2.2939   -1.3338    0.0000 C   0  0  0  0  0  0  0  0  0  0  0  0
    4.7124   -1.5904    0.0000 N   0  0  0  0  0  0  0  0  0  0  0  0
    5.5039   -2.6604    0.0000 C   0  0  0  0  0  0  0  0  0  0  0  0
    5.1302   -5.0056    0.0000 C   0  0  0  0  0  0  0  0  0  0  0  0
    1.1580   -1.9934    0.0000 N   0  0  0  0  0  0  0  0  0  0  0  0
    0.0000   -3.9942    0.0000 C   0  0  0  0  0  0  0  0  0  0  0  0
    1.1580   -5.9803    0.0000 C   0  0  0  0  0  0  0  0  0  0  0  0
    2.2939    0.0000    0.0000 N   0  0  0  0  0  0  0  0  0  0  0  0
    6.4274   -5.2767    0.0000 C   0  0  0  0  0  0  0  0  0  0  0  0
    0.0000   -5.3280    0.0000 C   0  0  0  0  0  0  0  0  0  0  0  0
    6.8451   -6.5446    0.0000 C   0  0  0  0  0  0  0  0  0  0  0  0
    7.3288   -4.2800    0.0000 C   0  0  0  0  0  0  0  0  0  0  0  0
  1  2  2  0  0  0  0
  1  3  1  0  0  0  0
  1  4  1  0  0  0  0
  2  5  1  0  0  0  0
  2  6  1  0  0  0  0
  3  7  2  0  0  0  0
  3  8  1  0  0  0  0
  4  9  1  0  0  0  0
  4 10  1  0  0  0  0
  5 11  2  0  0  0  0
  5 12  1  0  0  0  0
  6 13  2  0  0  0  0
  7 14  1  0  0  0  0
  7 11  1  0  0  0  0
  8  9  2  0  0  0  0
 10 15  1  0  0  0  0
 12 16  2  0  0  0  0
 13 16  1  0  0  0  0
 15 17  1  0  0  0  0
 15 18  1  0  0  0  0
M  END
> <ID>
8067

> <Formula>
C14H16N4

> <FW>
240.3036

> <DSSTox_CID>
21047

> <DSSTox_RID>
79617

> <DSSTox_GSID>
41047

> <DSSTox_FileID_Sort>
4299

> <TS_ChemName>
Imiquimod

> <TS_ChemName_Synonyms>


> <TS_CASRN>
99011-02-6

> <CASRN_ChemName_Relationship>
primary

> <TS_Description>
single chemical compound

> <ChemNote>


> <STRUCTURE_Shown>
tested chemical

> <STRUCTURE_Formula>
C14H16N4

> <STRUCTURE_MW>
240.3036

> <STRUCTURE_ChemType>
defined organic

> <STRUCTURE_DefinedOrganicForm>
parent

> <STRUCTURE_IUPAC>
1-(2-methylpropyl)-1H-imidazo[4,5-c]quinolin-4-amine

> <STRUCTURE_SMILES>
CC(C)Cn3cnc2c(N)nc1ccccc1c23

> <STRUCTURE_SMILES_Desalt>
CC(C)Cn3cnc2c(N)nc1ccccc1c23

> <Substance_modify_yyyymmdd>
20080429

$$$$
