992-59-6
ChemmineR-0915142007XD

 50 53  0  0  0  0  0  0  0  0  2 V2000
    3.5398   -9.6253    0.0000 S    0  0  0  0  0  0  0  0  0  0  0  0
    4.6551  -10.3042    0.0000 C    0  0  0  0  0  0  0  0  0  0  0  0
    5.8188   -9.6253    0.0000 C    0  0  0  0  0  0  0  0  0  0  0  0
    6.9826  -10.3042    0.0000 C    0  0  0  0  0  0  0  0  0  0  0  0
    8.1221   -9.6253    0.0000 N    0  0  0  0  0  0  0  0  0  0  0  0
    9.2859  -10.3042    0.0000 N    0  0  0  0  0  0  0  0  0  0  0  0
   10.4011   -9.6253    0.0000 C    0  0  0  0  0  0  0  0  0  0  0  0
   11.5892  -10.3042    0.0000 C    0  0  0  0  0  0  0  0  0  0  0  0
   12.7529   -9.6253    0.0000 C    0  0  0  0  0  0  0  0  0  0  0  0
   12.7529   -8.3161    0.0000 C    0  0  0  0  0  0  0  0  0  0  0  0
   11.5892   -7.6130    0.0000 C    0  0  0  0  0  0  0  0  0  0  0  0
   10.4011   -8.3161    0.0000 C    0  0  0  0  0  0  0  0  0  0  0  0
   13.8682   -7.6130    0.0000 C    0  0  0  0  0  0  0  0  0  0  0  0
   15.0320   -8.3161    0.0000 C    0  0  0  0  0  0  0  0  0  0  0  0
   16.1957   -7.6130    0.0000 C    0  0  0  0  0  0  0  0  0  0  0  0
   16.1957   -6.2795    0.0000 C    0  0  0  0  0  0  0  0  0  0  0  0
   17.3352   -5.6491    0.0000 N    0  0  0  0  0  0  0  0  0  0  0  0
   18.4990   -6.2795    0.0000 N    0  0  0  0  0  0  0  0  0  0  0  0
   19.6385   -5.6491    0.0000 C    0  0  0  0  0  0  0  0  0  0  0  0
   19.6385   -4.3156    0.0000 C    0  0  0  0  0  0  0  0  0  0  0  0
   20.7781   -3.6368    0.0000 C    0  0  0  0  0  0  0  0  0  0  0  0
   20.7781   -2.3033    0.0000 S    0  0  0  0  0  0  0  0  0  0  0  0
   20.7781   -0.9698    0.0000 O    0  5  0  0  0  0  0  0  0  0  0  0
   19.4446   -2.3033    0.0000 O    0  0  0  0  0  0  0  0  0  0  0  0
   22.1115   -2.3033    0.0000 O    0  0  0  0  0  0  0  0  0  0  0  0
   21.9661   -4.3156    0.0000 C    0  0  0  0  0  0  0  0  0  0  0  0
   21.9661   -5.6491    0.0000 C    0  0  0  0  0  0  0  0  0  0  0  0
   20.7781   -6.2795    0.0000 C    0  0  0  0  0  0  0  0  0  0  0  0
   20.7781   -7.6130    0.0000 N    0  0  0  0  0  0  0  0  0  0  0  0
   23.0813   -6.2795    0.0000 C    0  0  0  0  0  0  0  0  0  0  0  0
   24.2451   -5.6491    0.0000 C    0  0  0  0  0  0  0  0  0  0  0  0
   24.2451   -4.3156    0.0000 C    0  0  0  0  0  0  0  0  0  0  0  0
   23.0813   -3.6368    0.0000 C    0  0  0  0  0  0  0  0  0  0  0  0
   15.0320   -5.6491    0.0000 C    0  0  0  0  0  0  0  0  0  0  0  0
   13.8682   -6.2795    0.0000 C    0  0  0  0  0  0  0  0  0  0  0  0
   17.3352   -8.3161    0.0000 C    0  0  0  0  0  0  0  0  0  0  0  0
   11.5892  -11.6134    0.0000 C    0  0  0  0  0  0  0  0  0  0  0  0
    6.9826  -11.6134    0.0000 C    0  0  0  0  0  0  0  0  0  0  0  0
    5.8188  -12.2923    0.0000 C    0  0  0  0  0  0  0  0  0  0  0  0
    4.6551  -11.6134    0.0000 C    0  0  0  0  0  0  0  0  0  0  0  0
    3.5398  -12.2923    0.0000 C    0  0  0  0  0  0  0  0  0  0  0  0
    3.5398  -13.6257    0.0000 C    0  0  0  0  0  0  0  0  0  0  0  0
    4.6551  -14.2804    0.0000 C    0  0  0  0  0  0  0  0  0  0  0  0
    5.8188  -13.6257    0.0000 C    0  0  0  0  0  0  0  0  0  0  0  0
    8.1221  -12.2923    0.0000 N    0  0  0  0  0  0  0  0  0  0  0  0
    2.3760   -8.9464    0.0000 O    0  5  0  0  0  0  0  0  0  0  0  0
    4.1944   -8.4858    0.0000 O    0  0  0  0  0  0  0  0  0  0  0  0
    2.8367  -10.7648    0.0000 O    0  0  0  0  0  0  0  0  0  0  0  0
    0.0000   -9.5768    0.0000 Na   0  3  0  0  0  0  0  0  0  0  0  0
   23.8087    0.0000    0.0000 Na   0  3  0  0  0  0  0  0  0  0  0  0
  1  2  1  0  0  0  0
  1 46  1  0  0  0  0
  1 47  2  0  0  0  0
  1 48  2  0  0  0  0
  2  3  2  0  0  0  0
  2 40  1  0  0  0  0
  3  4  1  0  0  0  0
  4  5  1  0  0  0  0
  4 38  2  0  0  0  0
  5  6  2  0  0  0  0
  6  7  1  0  0  0  0
  7  8  2  0  0  0  0
  7 12  1  0  0  0  0
  8  9  1  0  0  0  0
  8 37  1  0  0  0  0
  9 10  2  0  0  0  0
 10 11  1  0  0  0  0
 10 13  1  0  0  0  0
 11 12  2  0  0  0  0
 13 14  2  0  0  0  0
 13 35  1  0  0  0  0
 14 15  1  0  0  0  0
 15 16  2  0  0  0  0
 15 36  1  0  0  0  0
 16 17  1  0  0  0  0
 16 34  1  0  0  0  0
 17 18  2  0  0  0  0
 18 19  1  0  0  0  0
 19 20  2  0  0  0  0
 19 28  1  0  0  0  0
 20 21  1  0  0  0  0
 21 22  1  0  0  0  0
 21 26  2  0  0  0  0
 22 23  1  0  0  0  0
 22 24  2  0  0  0  0
 22 25  2  0  0  0  0
 26 27  1  0  0  0  0
 26 33  1  0  0  0  0
 27 28  2  0  0  0  0
 27 30  1  0  0  0  0
 28 29  1  0  0  0  0
 30 31  2  0  0  0  0
 31 32  1  0  0  0  0
 32 33  2  0  0  0  0
 34 35  2  0  0  0  0
 38 39  1  0  0  0  0
 38 45  1  0  0  0  0
 39 40  2  0  0  0  0
 39 44  1  0  0  0  0
 40 41  1  0  0  0  0
 41 42  2  0  0  0  0
 42 43  1  0  0  0  0
 43 44  2  0  0  0  0
M  END
> <ID>
4077

> <Formula>
C34H26N6Na2O6S2

> <FW>
724.7164 (678.7379+22.9892+22.9892)

> <DSSTox_CID>
5203

> <DSSTox_RID>
77700

> <DSSTox_GSID>
25203

> <DSSTox_FileID_Sort>
2383

> <TS_ChemName>
C.I. Direct Red 2

> <TS_ChemName_Synonyms>


> <TS_CASRN>
992-59-6

> <CASRN_ChemName_Relationship>
primary

> <TS_Description>
single chemical compound

> <ChemNote>
C.I. 23500

> <STRUCTURE_Shown>
tested chemical

> <STRUCTURE_Formula>
C34H26N6Na2O6S2

> <STRUCTURE_MW>
724.7164

> <STRUCTURE_ChemType>
defined organic

> <STRUCTURE_DefinedOrganicForm>
salt

> <STRUCTURE_IUPAC>
disodium 3,3'-[(3,3'-dimethylbiphenyl-4,4'-diyl)di(E)diazene-2,1-diyl]bis(4-aminonaphthalene-1-sulfonate)

> <STRUCTURE_SMILES>
[Na+].[Na+].[O-]S(=O)(=O)c5cc(/N=N/c1ccc(cc1C)c4ccc(/N=N/c2cc(c3ccccc3c2N)S([O-])(=O)=O)c(C)c4)c(N)c6ccccc56

> <STRUCTURE_SMILES_Desalt>
O=S(=O)(O)c5cc(/N=N/c1ccc(cc1C)c4ccc(/N=N/c2cc(c3ccccc3c2N)S(=O)(=O)O)c(C)c4)c(N)c6ccccc56

> <Substance_modify_yyyymmdd>
20130608

$$$$
