992-21-2
ChemmineR-0915142007XD

 44 47  0  0  1  0  0  0  0  0  1 V2000
    6.8875   -3.9608    0.0000 C   0  0  0  0  0  0  0  0  0  0  0  0
    4.6047   -3.9608    0.0000 C   0  0  0  0  0  0  0  0  0  0  0  0
    9.1899   -3.9608    0.0000 C   0  0  0  0  0  0  0  0  0  0  0  0
    5.7559   -4.6437    0.0000 C   0  0  0  0  0  0  0  0  0  0  0  0
    8.0387   -4.6437    0.0000 C   0  0  0  0  0  0  0  0  0  0  0  0
    6.8875   -2.6536    0.0000 C   0  0  0  0  0  0  0  0  0  0  0  0
    9.1899   -2.6536    0.0000 C   0  0  0  0  0  0  0  0  0  0  0  0
    3.4535   -4.6437    0.0000 C   0  0  0  0  0  0  0  0  0  0  0  0
    4.6047   -2.6536    0.0000 C   0  0  0  0  0  0  0  0  0  0  0  0
    2.3023   -3.9608    0.0000 C   0  0  0  0  0  0  0  0  0  0  0  0
    3.4535   -1.9707    0.0000 C   0  0  0  0  0  0  0  0  0  0  0  0
    2.3023   -2.6536    0.0000 C   0  0  0  0  0  0  0  0  0  0  0  0
    8.0387   -1.9707    0.0000 C   0  0  0  0  0  0  0  0  0  0  0  0
    5.7559   -1.9707    0.0000 C   0  0  0  0  0  0  0  0  0  0  0  0
   10.3801   -4.6437    0.0000 C   0  0  0  0  0  0  0  0  0  0  0  0
   13.8141   -3.9218    0.0000 C   0  0  0  0  0  0  0  0  0  0  0  0
   11.5117   -3.9608    0.0000 N   0  0  0  0  0  0  0  0  0  0  0  0
    8.0387   -5.9900    0.0000 O   0  0  0  0  0  0  0  0  0  0  0  0
    3.4535   -5.9900    0.0000 O   0  0  0  0  0  0  0  0  0  0  0  0
    8.0387   -0.6439    0.0000 N   0  0  0  0  0  0  0  0  0  0  0  0
    1.1512   -4.6437    0.0000 C   0  0  0  0  0  0  0  0  0  0  0  0
    6.8875   -5.2876    0.0000 O   0  0  0  0  0  0  0  0  0  0  0  0
   11.5117   -2.6340    0.0000 C   0  0  0  0  0  0  0  0  0  0  0  0
   10.3801   -5.9900    0.0000 O   0  0  0  0  0  0  0  0  0  0  0  0
    5.7559   -5.9900    0.0000 O   0  0  0  0  0  0  0  0  0  0  0  0
   10.3801   -1.9511    0.0000 O   0  0  0  0  0  0  0  0  0  0  0  0
   14.9653   -4.5852    0.0000 O   0  0  0  0  0  0  0  0  0  0  0  0
    2.5365   -1.0146    0.0000 O   0  0  0  0  0  0  0  0  0  0  0  0
   13.8141   -2.6145    0.0000 C   0  0  0  0  0  0  0  0  0  0  0  0
   12.6629   -1.9511    0.0000 N   0  0  0  0  0  0  0  0  0  0  0  0
    1.1512   -1.9707    0.0000 C   0  0  0  0  0  0  0  0  0  0  0  0
   12.7214   -4.5852    0.0000 O   0  0  0  0  0  0  0  0  0  0  0  0
    4.2145   -0.9170    0.0000 C   0  0  0  0  0  0  0  0  0  0  0  0
    1.1512   -5.9900    0.0000 O   0  0  0  0  0  0  0  0  0  0  0  0
   19.5114   -1.8731    0.0000 N   0  0  0  0  0  0  0  0  0  0  0  0
    0.0000   -2.6536    0.0000 C   0  0  0  0  0  0  0  0  0  0  0  0
    0.0000   -3.9608    0.0000 C   0  0  0  0  0  0  0  0  0  0  0  0
    9.1899    0.0000    0.0000 C   0  0  0  0  0  0  0  0  0  0  0  0
    6.8875    0.0000    0.0000 C   0  0  0  0  0  0  0  0  0  0  0  0
   18.3407   -2.5365    0.0000 C   0  0  0  0  0  0  0  0  0  0  0  0
   14.9262   -1.9121    0.0000 C   0  0  0  0  0  0  0  0  0  0  0  0
   17.2286   -1.8926    0.0000 C   0  0  0  0  0  0  0  0  0  0  0  0
   16.0774   -2.5950    0.0000 C   0  0  0  0  0  0  0  0  0  0  0  0
    6.8875   -1.3268    0.0000 H   0  0  0  0  0  0  0  0  0  0  0  0
  1  4  1  0  0  0  0
  1  5  1  0  0  0  0
  1  6  1  0  0  0  0
  1 22  1  6  0  0  0
  2  4  2  0  0  0  0
  2  8  1  0  0  0  0
  2  9  1  0  0  0  0
  3  5  1  0  0  0  0
  3 15  1  0  0  0  0
  3  7  2  0  0  0  0
  4 25  1  0  0  0  0
  5 18  2  0  0  0  0
  6 13  1  0  0  0  0
  6 14  1  0  0  0  0
  6 44  1  6  0  0  0
  7 13  1  0  0  0  0
  7 26  1  0  0  0  0
  8 10  1  0  0  0  0
  8 19  2  0  0  0  0
  9 14  1  0  0  0  0
  9 11  1  0  0  0  0
 10 21  1  0  0  0  0
 10 12  2  0  0  0  0
 11 12  1  0  0  0  0
 11 28  1  1  0  0  0
 11 33  1  6  0  0  0
 12 31  1  0  0  0  0
 13 20  1  6  0  0  0
 15 17  1  0  0  0  0
 15 24  2  0  0  0  0
 29 16  1  1  0  0  0
 16 27  2  0  0  0  0
 16 32  1  0  0  0  0
 17 23  1  0  0  0  0
 20 38  1  0  0  0  0
 20 39  1  0  0  0  0
 21 34  1  0  0  0  0
 21 37  2  0  0  0  0
 23 30  1  0  0  0  0
 29 30  1  0  0  0  0
 29 41  1  0  0  0  0
 31 36  2  0  0  0  0
 35 40  1  0  0  0  0
 36 37  1  0  0  0  0
 40 42  1  0  0  0  0
 41 43  1  0  0  0  0
 42 43  1  0  0  0  0
M  END
> <ID>
10882

> <Formula>
C29H38N4O10

> <FW>
602.6328

> <DSSTox_CID>
25344

> <DSSTox_RID>
80812

> <DSSTox_GSID>
45344

> <DSSTox_FileID_Sort>
5493

> <TS_ChemName>
Lymecycline

> <TS_ChemName_Synonyms>


> <TS_CASRN>
992-21-2

> <CASRN_ChemName_Relationship>
primary

> <TS_Description>
single chemical compound

> <ChemNote>
stereochem; tautomers

> <STRUCTURE_Shown>
tested chemical

> <STRUCTURE_Formula>
C29H38N4O10

> <STRUCTURE_MW>
602.6328

> <STRUCTURE_ChemType>
defined organic

> <STRUCTURE_DefinedOrganicForm>
parent

> <STRUCTURE_IUPAC>
N~2~-[({[(4S,4aS,6S,12aS)-4-(dimethylamino)-3,6,10,12,12a-pentahydroxy-6-methyl-1,11-dioxo-1,4,4a,5,5a,6,11,12a-octahydrotetracen-2-yl]carbonyl}amino)methyl]-L-lysine

> <STRUCTURE_SMILES>
O=C(O)[C@H](CCCCN)NCNC(=O)C1=C(O)[C@@H](N(C)C)[C@@H]2CC4C(=C(O)[C@]2(O)C1=O)C(=O)c3c(O)cccc3[C@@]4(C)O

> <STRUCTURE_SMILES_Desalt>
O=C(O)[C@H](CCCCN)NCNC(=O)C1=C(O)[C@@H](N(C)C)[C@@H]2CC4C(=C(O)[C@]2(O)C1=O)C(=O)c3c(O)cccc3[C@@]4(C)O

> <Substance_modify_yyyymmdd>
20100107

$$$$
