993-16-8
ChemmineR-0915142007XD

  5  4  0  0  0  0  0  0  0  0  1 V2000
     1.322    -1.322     0.000 Sn   0  0  0  0  0  0  0  0  0  0  0  0
     1.322    -2.660     0.000 Cl   0  0  0  0  0  0  0  0  0  0  0  0
     0.000    -1.322     0.000 Cl   0  0  0  0  0  0  0  0  0  0  0  0
     2.660    -1.322     0.000 Cl   0  0  0  0  0  0  0  0  0  0  0  0
     1.322     0.000     0.000 C    0  0  0  0  0  0  0  0  0  0  0  0
  1  2  1  0  0  0  0
  1  3  1  0  0  0  0
  1  4  1  0  0  0  0
  1  5  1  0  0  0  0
M  END
> <ID>
5095

> <Formula>
CH3Cl3Sn

> <FW>
240.1035

> <DSSTox_CID>
7346

> <DSSTox_RID>
78419

> <DSSTox_GSID>
27346

> <DSSTox_FileID_Sort>
3102

> <TS_ChemName>
Trichloromethylstannane

> <TS_ChemName_Synonyms>


> <TS_CASRN>
993-16-8

> <CASRN_ChemName_Relationship>
primary

> <TS_Description>
single chemical compound

> <ChemNote>


> <STRUCTURE_Shown>
tested chemical

> <STRUCTURE_Formula>
CH3Cl3Sn

> <STRUCTURE_MW>
240.1035

> <STRUCTURE_ChemType>
organometallic

> <STRUCTURE_DefinedOrganicForm>


> <STRUCTURE_IUPAC>
trichloro(methyl)stannane

> <STRUCTURE_SMILES>
C[Sn](Cl)(Cl)Cl

> <STRUCTURE_SMILES_Desalt>
C[Sn](Cl)(Cl)Cl

> <Substance_modify_yyyymmdd>
20080429

$$$$
