994-05-8
ChemmineR-0915142007XD

  7  6  0  0  0  0  0  0  0  0  1 V2000
    4.2973   -2.3034    0.0000 C   0  0  0  0  0  0  0  0  0  0  0  0
    2.9694   -2.3034    0.0000 O   0  0  0  0  0  0  0  0  0  0  0  0
    2.3034   -1.1517    0.0000 C   0  0  0  0  0  0  0  0  0  0  0  0
    3.4550   -0.4856    0.0000 C   0  0  0  0  0  0  0  0  0  0  0  0
    1.6373    0.0000    0.0000 C   0  0  0  0  0  0  0  0  0  0  0  0
    1.1517   -1.8178    0.0000 C   0  0  0  0  0  0  0  0  0  0  0  0
    0.0000   -1.1517    0.0000 C   0  0  0  0  0  0  0  0  0  0  0  0
  1  2  1  0  0  0  0
  2  3  1  0  0  0  0
  3  4  1  0  0  0  0
  3  5  1  0  0  0  0
  3  6  1  0  0  0  0
  6  7  1  0  0  0  0
M  END
> <ID>
3729

> <Formula>
C6H14O

> <FW>
102.1748

> <DSSTox_CID>
4521

> <DSSTox_RID>
77441

> <DSSTox_GSID>
24521

> <DSSTox_FileID_Sort>
2124

> <TS_ChemName>
tert-Amyl methyl ether

> <TS_ChemName_Synonyms>
tert-Amyl methyl ether (TAME)

> <TS_CASRN>
994-05-8

> <CASRN_ChemName_Relationship>
primary

> <TS_Description>
single chemical compound

> <ChemNote>


> <STRUCTURE_Shown>
tested chemical

> <STRUCTURE_Formula>
C6H14O

> <STRUCTURE_MW>
102.1748

> <STRUCTURE_ChemType>
defined organic

> <STRUCTURE_DefinedOrganicForm>
parent

> <STRUCTURE_IUPAC>
2-methoxy-2-methylbutane

> <STRUCTURE_SMILES>
CC(C)(CC)OC

> <STRUCTURE_SMILES_Desalt>
CC(C)(CC)OC

> <Substance_modify_yyyymmdd>
20080429

$$$$
