99464-64-9
ChemmineR-0915142007XD

 31 33  0  0  0  0  0  0  0  0  1 V2000
   11.5325   -3.8211    0.0000 C   0  0  0  0  0  0  0  0  0  0  0  0
   12.6955   -3.1427    0.0000 N   0  0  0  0  0  0  0  0  0  0  0  0
   13.8446   -3.8211    0.0000 C   0  0  0  0  0  0  0  0  0  0  0  0
   13.8446   -5.1502    0.0000 C   0  0  0  0  0  0  0  0  0  0  0  0
   12.6955   -5.8009    0.0000 C   0  0  0  0  0  0  0  0  0  0  0  0
   11.5325   -5.1502    0.0000 C   0  0  0  0  0  0  0  0  0  0  0  0
    5.7732   -1.7998    0.0000 C   0  0  0  0  0  0  0  0  0  0  0  0
    5.7732   -3.1427    0.0000 C   0  0  0  0  0  0  0  0  0  0  0  0
    6.9084   -3.8211    0.0000 C   0  0  0  0  0  0  0  0  0  0  0  0
    8.0714   -3.1427    0.0000 C   0  0  0  0  0  0  0  0  0  0  0  0
    8.0714   -1.7998    0.0000 N   0  0  0  0  0  0  0  0  0  0  0  0
    6.9084   -1.1491    0.0000 S   0  0  0  0  0  0  0  0  0  0  0  0
    3.4750   -1.7998    0.0000 C   0  0  0  0  0  0  0  0  0  0  0  0
    3.4750   -3.1427    0.0000 C   0  0  0  0  0  0  0  0  0  0  0  0
    4.6102   -3.8211    0.0000 C   0  0  0  0  0  0  0  0  0  0  0  0
    4.6102   -1.1491    0.0000 C   0  0  0  0  0  0  0  0  0  0  0  0
    6.2439    0.0000    0.0000 O   0  0  0  0  0  0  0  0  0  0  0  0
    7.5868    0.0000    0.0000 O   0  0  0  0  0  0  0  0  0  0  0  0
    9.2205   -1.1491    0.0000 C   0  0  0  0  0  0  0  0  0  0  0  0
    9.2205   -3.8211    0.0000 C   0  0  0  0  0  0  0  0  0  0  0  0
   10.3696   -3.1427    0.0000 N   0  0  0  0  0  0  0  0  0  0  0  0
    9.2205   -5.1502    0.0000 O   0  0  0  0  0  0  0  0  0  0  0  0
    6.9084   -5.1502    0.0000 O   0  0  0  0  0  0  0  0  0  0  0  0
    5.7732   -5.8009    0.0000 C   0  0  0  0  0  0  0  0  0  0  0  0
    4.6102   -5.1502    0.0000 O   0  0  0  0  0  0  0  0  0  0  0  0
    3.4750   -5.8009    0.0000 C   0  0  0  0  0  0  0  0  0  0  0  0
    2.3120   -5.1502    0.0000 O   0  0  0  0  0  0  0  0  0  0  0  0
    1.1491   -5.8009    0.0000 C   0  0  0  0  0  0  0  0  0  0  0  0
    0.0000   -5.1502    0.0000 C   0  0  0  0  0  0  0  0  0  0  0  0
    3.4750   -7.1300    0.0000 O   0  0  0  0  0  0  0  0  0  0  0  0
    5.7732   -7.1300    0.0000 C   0  0  0  0  0  0  0  0  0  0  0  0
  1 21  1  0  0  0  0
  1  6  1  0  0  0  0
  1  2  2  0  0  0  0
  2  3  1  0  0  0  0
  3  4  2  0  0  0  0
  4  5  1  0  0  0  0
  5  6  2  0  0  0  0
  7 16  2  0  0  0  0
  7 12  1  0  0  0  0
  7  8  1  0  0  0  0
  8  9  1  0  0  0  0
  8 15  2  0  0  0  0
  9 10  2  0  0  0  0
  9 23  1  0  0  0  0
 10 20  1  0  0  0  0
 10 11  1  0  0  0  0
 11 19  1  0  0  0  0
 11 12  1  0  0  0  0
 12 17  2  0  0  0  0
 12 18  2  0  0  0  0
 13 16  1  0  0  0  0
 13 14  2  0  0  0  0
 14 15  1  0  0  0  0
 20 21  1  0  0  0  0
 20 22  2  0  0  0  0
 23 24  1  0  0  0  0
 24 25  1  0  0  0  0
 24 31  1  0  0  0  0
 25 26  1  0  0  0  0
 26 27  1  0  0  0  0
 26 30  2  0  0  0  0
 27 28  1  0  0  0  0
 28 29  1  0  0  0  0
M  END
> <ID>
11711

> <Formula>
C20H21N3O7S

> <FW>
447.4616

> <DSSTox_CID>
26474

> <DSSTox_RID>
81645

> <DSSTox_GSID>
46474

> <DSSTox_FileID_Sort>
6326

> <TS_ChemName>
Ampiroxicam

> <TS_ChemName_Synonyms>


> <TS_CASRN>
99464-64-9

> <CASRN_ChemName_Relationship>
primary

> <TS_Description>
single chemical compound

> <ChemNote>


> <STRUCTURE_Shown>
tested chemical

> <STRUCTURE_Formula>
C20H21N3O7S

> <STRUCTURE_MW>
447.4616

> <STRUCTURE_ChemType>
defined organic

> <STRUCTURE_DefinedOrganicForm>
parent

> <STRUCTURE_IUPAC>
ethyl 1-{[2-methyl-1,1-dioxido-3-(pyridin-2-ylcarbamoyl)-2H-1,2-benzothiazin-4-yl]oxy}ethyl carbonate

> <STRUCTURE_SMILES>
O=C(OCC)OC(C)OC=2c1ccccc1S(=O)(=O)N(C)C=2C(=O)Nc3ccccn3

> <STRUCTURE_SMILES_Desalt>
O=C(OCC)OC(C)OC=2c1ccccc1S(=O)(=O)N(C)C=2C(=O)Nc3ccccn3

> <Substance_modify_yyyymmdd>
20110812

$$$$
