99592-39-9
ChemmineR-0915142007XD

 31 33  0  0  0  0  0  0  0  0  2 V2000
    8.5126   -2.0512    0.0000 N    0  0  0  0  0  0  0  0  0  0  0  0
    7.4357   -1.2692    0.0000 C    0  0  0  0  0  0  0  0  0  0  0  0
    7.8331    0.0000    0.0000 N    0  0  0  0  0  0  0  0  0  0  0  0
    9.1920    0.0000    0.0000 C    0  0  0  0  0  0  0  0  0  0  0  0
    9.5894   -1.2692    0.0000 C    0  0  0  0  0  0  0  0  0  0  0  0
    3.9614   -3.3076    0.0000 C    0  0  0  0  0  0  0  0  0  0  0  0
    4.0896   -1.9871    0.0000 C    0  0  0  0  0  0  0  0  0  0  0  0
    2.8845   -1.4359    0.0000 S    0  0  0  0  0  0  0  0  0  0  0  0
    2.6666   -3.5768    0.0000 C    0  0  0  0  0  0  0  0  0  0  0  0
    1.9999   -2.4358    0.0000 C    0  0  0  0  0  0  0  0  0  0  0  0
    0.6666   -2.4358    0.0000 C    0  0  0  0  0  0  0  0  0  0  0  0
    0.0000   -3.5768    0.0000 C    0  0  0  0  0  0  0  0  0  0  0  0
    0.6666   -4.7306    0.0000 C    0  0  0  0  0  0  0  0  0  0  0  0
    1.9999   -4.7306    0.0000 C    0  0  0  0  0  0  0  0  0  0  0  0
    0.0000   -1.2692    0.0000 Cl   0  0  0  0  0  0  0  0  0  0  0  0
    5.0639   -4.0383    0.0000 C    0  0  0  0  0  0  0  0  0  0  0  0
    6.2049   -3.3717    0.0000 O    0  0  0  0  0  0  0  0  0  0  0  0
    7.3587   -4.0383    0.0000 C    0  0  0  0  0  0  0  0  0  0  0  0
    7.3587   -5.3716    0.0000 C    0  0  0  0  0  0  0  0  0  0  0  0
    8.5126   -6.0383    0.0000 C    0  0  0  0  0  0  0  0  0  0  0  0
    8.5126   -7.3587    0.0000 C    0  0  0  0  0  0  0  0  0  0  0  0
    7.3587   -8.0126    0.0000 C    0  0  0  0  0  0  0  0  0  0  0  0
    6.2049   -7.3587    0.0000 C    0  0  0  0  0  0  0  0  0  0  0  0
    6.2049   -6.0383    0.0000 C    0  0  0  0  0  0  0  0  0  0  0  0
    9.6792   -5.3716    0.0000 Cl   0  0  0  0  0  0  0  0  0  0  0  0
    7.3587   -9.3587    0.0000 Cl   0  0  0  0  0  0  0  0  0  0  0  0
    8.5126   -3.3717    0.0000 C    0  0  0  0  0  0  0  0  0  0  0  0
   12.1535   -3.3461    0.0000 N    0  3  0  0  0  0  0  0  0  0  0  0
   12.8073   -4.4870    0.0000 O    0  5  0  0  0  0  0  0  0  0  0  0
   12.8201   -2.2051    0.0000 O    0  0  0  0  0  0  0  0  0  0  0  0
   10.8202   -3.3076    0.0000 O    0  0  0  0  0  0  0  0  0  0  0  0
  1  5  1  0  0  0  0
  1  2  1  0  0  0  0
  1 27  1  0  0  0  0
  2  3  2  0  0  0  0
  3  4  1  0  0  0  0
  4  5  2  0  0  0  0
  6  7  2  0  0  0  0
  6 16  1  0  0  0  0
  6  9  1  0  0  0  0
  7  8  1  0  0  0  0
  8 10  1  0  0  0  0
  9 14  1  0  0  0  0
  9 10  2  0  0  0  0
 10 11  1  0  0  0  0
 11 15  1  0  0  0  0
 11 12  2  0  0  0  0
 12 13  1  0  0  0  0
 13 14  2  0  0  0  0
 16 17  1  0  0  0  0
 17 18  1  0  0  0  0
 18 19  1  0  0  0  0
 18 27  1  0  0  0  0
 19 20  2  0  0  0  0
 19 24  1  0  0  0  0
 20 21  1  0  0  0  0
 20 25  1  0  0  0  0
 21 22  2  0  0  0  0
 22 23  1  0  0  0  0
 22 26  1  0  0  0  0
 23 24  2  0  0  0  0
 28 29  1  0  0  0  0
 28 30  2  0  0  0  0
 28 31  1  0  0  0  0
M  END
> <ID>
11000

> <Formula>
C20H16Cl3N3O4S

> <FW>
500.7827 (437.7699+63.0128)

> <DSSTox_CID>
25529

> <DSSTox_RID>
80932

> <DSSTox_GSID>
45529

> <DSSTox_FileID_Sort>
5613

> <TS_ChemName>
Sertaconazole nitrate

> <TS_ChemName_Synonyms>


> <TS_CASRN>
99592-39-9

> <CASRN_ChemName_Relationship>
primary

> <TS_Description>
single chemical compound

> <ChemNote>
parent [99592-32-2]

> <STRUCTURE_Shown>
tested chemical

> <STRUCTURE_Formula>
C20H16Cl3N3O4S

> <STRUCTURE_MW>
500.7827

> <STRUCTURE_ChemType>
defined organic

> <STRUCTURE_DefinedOrganicForm>
complex

> <STRUCTURE_IUPAC>
1-{2-[(7-chloro-1-benzothiophen-3-yl)methoxy]-2-(2,4-dichlorophenyl)ethyl}-1H-imidazole nitrate (1:1)

> <STRUCTURE_SMILES>
[O-][N+](=O)O.Clc1ccc(c(Cl)c1)C(Cn2ccnc2)OCc4csc3c(Cl)cccc34

> <STRUCTURE_SMILES_Desalt>
Clc1ccc(c(Cl)c1)C(Cn2ccnc2)OCc4csc3c(Cl)cccc34

> <Substance_modify_yyyymmdd>
20100107

$$$$
