996-19-0
ChemmineR-0915142007XD

 15 12  0  0  0  0  0  0  0  0  1 V2000
    3.4516   -1.3475    0.0000 N   0  0  0  0  0  0  0  0  0  0  0  0
    2.3010   -2.0212    0.0000 N   0  0  0  0  0  0  0  0  0  0  0  0
    1.1505   -1.3475    0.0000 C   0  0  0  0  0  0  0  0  0  0  0  0
    0.0000   -2.0212    0.0000 N   0  0  0  0  0  0  0  0  0  0  0  0
    1.1505   -0.0207    0.0000 N   0  0  0  0  0  0  0  0  0  0  0  0
    5.3691   -4.7161    0.0000 O   0  0  0  0  0  0  0  0  0  0  0  0
    5.3691   -3.3894    0.0000 S   0  0  0  0  0  0  0  0  0  0  0  0
    4.0424   -3.3894    0.0000 O   0  0  0  0  0  0  0  0  0  0  0  0
    5.3691   -2.0626    0.0000 O   0  0  0  0  0  0  0  0  0  0  0  0
    6.6958   -3.3894    0.0000 O   0  0  0  0  0  0  0  0  0  0  0  0
    6.9135   -1.3267    0.0000 N   0  0  0  0  0  0  0  0  0  0  0  0
    8.0640   -2.0005    0.0000 N   0  0  0  0  0  0  0  0  0  0  0  0
    9.2145   -1.3267    0.0000 C   0  0  0  0  0  0  0  0  0  0  0  0
   10.3651   -2.0005    0.0000 N   0  0  0  0  0  0  0  0  0  0  0  0
    9.2145    0.0000    0.0000 N   0  0  0  0  0  0  0  0  0  0  0  0
  1  2  1  0  0  0  0
  2  3  1  0  0  0  0
  3  4  1  0  0  0  0
  3  5  2  0  0  0  0
  6  7  1  0  0  0  0
  7  8  1  0  0  0  0
  7  9  2  0  0  0  0
  7 10  2  0  0  0  0
 11 12  1  0  0  0  0
 12 13  1  0  0  0  0
 13 14  1  0  0  0  0
 13 15  2  0  0  0  0
M  END
> <ID>
11359

> <Formula>
C2H14N8O4S

> <FW>
246.2488 (74.0851+98.0785+74.0851)

> <DSSTox_CID>
26016

> <DSSTox_RID>
81291

> <DSSTox_GSID>
46016

> <DSSTox_FileID_Sort>
5972

> <TS_ChemName>
Aminoguanidine hemisulfate

> <TS_ChemName_Synonyms>


> <TS_CASRN>
996-19-0

> <CASRN_ChemName_Relationship>
primary

> <TS_Description>
single chemical compound

> <ChemNote>
parent [79-17-4]

> <STRUCTURE_Shown>
tested chemical

> <STRUCTURE_Formula>
C2H14N8O4S

> <STRUCTURE_MW>
246.2488

> <STRUCTURE_ChemType>
defined organic

> <STRUCTURE_DefinedOrganicForm>
complex

> <STRUCTURE_IUPAC>
hydrazinecarboximidamide sulfate (2:1)

> <STRUCTURE_SMILES>
NC(=N)NN.O=S(=O)(O)O.N=C(N)NN

> <STRUCTURE_SMILES_Desalt>
N=C(N)NN

> <Substance_modify_yyyymmdd>
20110824

$$$$
