99617-34-2
ChemmineR-0915142007XD

 22 23  0  0  0  0  0  0  0  0  1 V2000
    1.2087   -1.3932    0.0000 N    0  0  0  0  0  0  0  0  0  0  0  0
    2.4173   -2.0944    0.0000 C    0  0  0  0  0  0  0  0  0  0  0  0
    1.2087    0.0000    0.0000 C    0  0  0  0  0  0  0  0  0  0  0  0
    0.0000   -2.0944    0.0000 C    0  0  0  0  0  0  0  0  0  0  0  0
    1.6423   -2.1775    0.0000 C    0  0  0  0  0  0  0  0  0  0  0  0
    2.8510   -2.8879    0.0000 C    0  0  0  0  0  0  0  0  0  0  0  0
    1.6423   -0.7843    0.0000 C    0  0  0  0  0  0  0  0  0  0  0  0
    0.4336   -2.8879    0.0000 C    0  0  0  0  0  0  0  0  0  0  0  0
    3.8290   -3.8751    0.0000 N    0  0  0  0  0  0  0  0  0  0  0  0
    5.1668   -3.5430    0.0000 C    0  0  0  0  0  0  0  0  0  0  0  0
    6.1356   -4.5302    0.0000 C    0  0  0  0  0  0  0  0  0  0  0  0
    7.5012   -4.1796    0.0000 C    0  0  0  0  0  0  0  0  0  0  0  0
    5.7666   -5.8681    0.0000 C    0  0  0  0  0  0  0  0  0  0  0  0
    8.4699   -5.1853    0.0000 C    0  0  0  0  0  0  0  0  0  0  0  0
    6.7446   -6.8645    0.0000 C    0  0  0  0  0  0  0  0  0  0  0  0
    8.1009   -6.5231    0.0000 C    0  0  0  0  0  0  0  0  0  0  0  0
    5.5544   -2.1959    0.0000 O    0  0  0  0  0  0  0  0  0  0  0  0
    7.8702   -2.8325    0.0000 O    0  0  0  0  0  0  0  0  0  0  0  0
    9.2265   -2.5004    0.0000 C    0  0  0  0  0  0  0  0  0  0  0  0
    9.0789   -7.5104    0.0000 N    0  0  0  0  0  0  0  0  0  0  0  0
    6.3755   -8.2024    0.0000 Cl   0  0  0  0  0  0  0  0  0  0  0  0
    2.5188   -5.1484    0.0000 Cl   0  0  0  0  0  0  0  0  0  0  0  0
  1  2  1  0  0  0  0
  1  3  1  0  0  0  0
  1  4  1  0  0  0  0
  2  6  1  0  0  0  0
  3  7  1  0  0  0  0
  4  8  1  0  0  0  0
  5  6  1  0  0  0  0
  5  7  1  0  0  0  0
  5  8  1  0  0  0  0
  6  9  1  0  0  0  0
  9 10  1  0  0  0  0
 10 11  1  0  0  0  0
 10 17  2  0  0  0  0
 11 12  1  0  0  0  0
 11 13  2  0  0  0  0
 12 14  2  0  0  0  0
 12 18  1  0  0  0  0
 13 15  1  0  0  0  0
 14 16  1  0  0  0  0
 15 16  2  0  0  0  0
 15 21  1  0  0  0  0
 16 20  1  0  0  0  0
 18 19  1  0  0  0  0
M  END
> <ID>
11127

> <Formula>
C15H21Cl2N3O2

> <FW>
346.2521 (309.7912+36.4609)

> <DSSTox_CID>
25686

> <DSSTox_RID>
81058

> <DSSTox_GSID>
45686

> <DSSTox_FileID_Sort>
5739

> <TS_ChemName>
Zacopride hydrochloride

> <TS_ChemName_Synonyms>


> <TS_CASRN>
99617-34-2

> <CASRN_ChemName_Relationship>
primary

> <TS_Description>
single chemical compound

> <ChemNote>


> <STRUCTURE_Shown>
tested chemical

> <STRUCTURE_Formula>
C15H21Cl2N3O2

> <STRUCTURE_MW>
346.2521

> <STRUCTURE_ChemType>
defined organic

> <STRUCTURE_DefinedOrganicForm>
complex

> <STRUCTURE_IUPAC>
4-amino-N-(1-azabicyclo[2.2.2]oct-3-yl)-5-chloro-2-methoxybenzamide hydrochloride (1:1)

> <STRUCTURE_SMILES>
Cl.Clc1cc(c(OC)cc1N)C(=O)NC3CN2CCC3CC2

> <STRUCTURE_SMILES_Desalt>
Clc1cc(c(OC)cc1N)C(=O)NC3CN2CCC3CC2

> <Substance_modify_yyyymmdd>
20100107

$$$$
