99665-00-6
ChemmineR-0915142007XD

 33 35  0  0  1  0  0  0  0  0  1 V2000
   11.8164   -9.9564    0.0000 O   0  0  0  0  0  0  0  0  0  0  0  0
    6.9710   -2.3914    0.0000 C   0  0  0  0  0  0  0  0  0  0  0  0
    8.8310   -3.0010    0.0000 N   0  0  0  0  0  0  0  0  0  0  0  0
    8.2058   -1.8756    0.0000 C   0  0  0  0  0  0  0  0  0  0  0  0
    7.6588   -3.5793    0.0000 C   0  0  0  0  0  0  0  0  0  0  0  0
   13.4576   -5.5956    0.0000 C   0  0  0  0  0  0  0  0  0  0  0  0
   10.0189   -3.5324    0.0000 C   0  0  0  0  0  0  0  0  0  0  0  0
   14.6767   -4.9860    0.0000 N   0  0  0  0  0  0  0  0  0  0  0  0
   13.5826   -6.9242    0.0000 N   0  0  0  0  0  0  0  0  0  0  0  0
   14.9268   -7.2211    0.0000 N   0  0  0  0  0  0  0  0  0  0  0  0
   15.6301   -6.0176    0.0000 N   0  0  0  0  0  0  0  0  0  0  0  0
   10.0502   -4.8766    0.0000 C   0  0  0  0  0  0  0  0  0  0  0  0
    5.7363   -2.8447    0.0000 N   0  0  0  0  0  0  0  0  0  0  0  0
    7.7994   -4.8922    0.0000 O   0  0  0  0  0  0  0  0  0  0  0  0
   11.0818   -2.7353    0.0000 C   0  0  0  0  0  0  0  0  0  0  0  0
   12.3166   -5.0016    0.0000 S   0  0  0  0  0  0  0  0  0  0  0  0
    4.5640   -2.2820    0.0000 C   0  0  0  0  0  0  0  0  0  0  0  0
    8.9248   -5.5643    0.0000 C   0  0  0  0  0  0  0  0  0  0  0  0
    8.7373   -0.6877    0.0000 O   0  0  0  0  0  0  0  0  0  0  0  0
   11.1443   -5.6112    0.0000 C   0  0  0  0  0  0  0  0  0  0  0  0
    1.1566   -3.0635    0.0000 C   0  0  0  0  0  0  0  0  0  0  0  0
    6.4084   -1.2035    0.0000 O   0  0  0  0  0  0  0  0  0  0  0  0
    2.2976   -2.3914    0.0000 S   0  0  0  0  0  0  0  0  0  0  0  0
   10.8786   -1.4067    0.0000 O   0  0  0  0  0  0  0  0  0  0  0  0
    4.3139   -0.9691    0.0000 O   0  0  0  0  0  0  0  0  0  0  0  0
    3.4543   -3.0479    0.0000 C   0  0  0  0  0  0  0  0  0  0  0  0
    0.0000   -2.4070    0.0000 F   0  0  0  0  0  0  0  0  0  0  0  0
    1.1566   -4.3921    0.0000 F   0  0  0  0  0  0  0  0  0  0  0  0
   12.3791   -3.0166    0.0000 O   0  0  0  0  0  0  0  0  0  0  0  0
    6.8147    0.0000    0.0000 C   0  0  0  0  0  0  0  0  0  0  0  0
    6.5334   -4.3764    0.0000 H   0  0  0  0  0  0  0  0  0  0  0  0
   12.8324   -9.1124    0.0000 C   0  0  0  0  0  0  0  0  0  0  0  0
   12.5979   -7.7994    0.0000 C   0  0  0  0  0  0  0  0  0  0  0  0
  1 32  1  0  0  0  0
  2  4  1  0  0  0  0
  2  5  1  0  0  0  0
  2 13  1  1  0  0  0
  2 22  1  0  0  0  0
  3  5  1  0  0  0  0
  3  7  1  0  0  0  0
  3  4  1  0  0  0  0
  4 19  2  0  0  0  0
  5 14  1  0  0  0  0
  5 31  1  6  0  0  0
  6 16  1  0  0  0  0
  6  8  2  0  0  0  0
  6  9  1  0  0  0  0
  7 15  1  0  0  0  0
  7 12  2  0  0  0  0
  8 11  1  0  0  0  0
  9 10  1  0  0  0  0
  9 33  1  0  0  0  0
 10 11  2  0  0  0  0
 12 18  1  0  0  0  0
 12 20  1  0  0  0  0
 13 17  1  0  0  0  0
 14 18  1  0  0  0  0
 15 24  2  0  0  0  0
 15 29  1  0  0  0  0
 16 20  1  0  0  0  0
 17 25  2  0  0  0  0
 17 26  1  0  0  0  0
 21 23  1  0  0  0  0
 21 27  1  0  0  0  0
 21 28  1  0  0  0  0
 22 30  1  0  0  0  0
 23 26  1  0  0  0  0
 32 33  1  0  0  0  0
M  END
> <ID>
13834

> <Formula>
C15H18F2N6O7S2

> <FW>
496.4662

> <DSSTox_CID>
28771

> <DSSTox_RID>
83040

> <DSSTox_GSID>
48845

> <DSSTox_FileID_Sort>
7717

> <TS_ChemName>
Flomoxef

> <TS_ChemName_Synonyms>


> <TS_CASRN>
99665-00-6

> <CASRN_ChemName_Relationship>
primary

> <TS_Description>
single chemical compound

> <ChemNote>


> <STRUCTURE_Shown>
tested chemical

> <STRUCTURE_Formula>
C15H18F2N6O7S2

> <STRUCTURE_MW>
496.4662

> <STRUCTURE_ChemType>
defined organic

> <STRUCTURE_DefinedOrganicForm>
parent

> <STRUCTURE_IUPAC>
(6S,7S)-7-({[(difluoromethyl)sulfanyl]acetyl}amino)-3-({[1-(2-hydroxyethyl)-1H-tetrazol-5-yl]sulfanyl}methyl)-7-methoxy-8-oxo-5-oxa-1-azabicyclo[4.2.0]oct-2-ene-2-carboxylic acid

> <STRUCTURE_SMILES>
O=C2N1C(=C(CO[C@H]1[C@@]2(OC)NC(=O)CSC(F)F)CSc3nnnn3CCO)C(=O)O

> <STRUCTURE_SMILES_Desalt>
O=C2N1C(=C(CO[C@H]1[C@@]2(OC)NC(=O)CSC(F)F)CSc3nnnn3CCO)C(=O)O

> <Substance_modify_yyyymmdd>
20111204

$$$$
