99755-59-6
ChemmineR-0915142007XD

 22 24  0  0  1  0  0  0  0  0  1 V2000
    1.5977    0.0000    0.0000 C   0  0  0  0  0  0  0  0  0  0  0  0
    2.2634   -1.1471    0.0000 C   0  0  0  0  0  0  0  0  0  0  0  0
    3.5949   -1.1471    0.0000 C   0  0  0  0  0  0  0  0  0  0  0  0
    4.2606   -2.3044    0.0000 N   0  0  0  0  0  0  0  0  0  0  0  0
    3.5949   -3.4515    0.0000 C   0  0  0  0  0  0  0  0  0  0  0  0
    2.2634   -3.4515    0.0000 C   0  0  0  0  0  0  0  0  0  0  0  0
    1.5977   -4.6088    0.0000 C   0  0  0  0  0  0  0  0  0  0  0  0
    2.1405   -5.8173    0.0000 C   0  0  0  0  0  0  0  0  0  0  0  0
    1.1471   -6.7084    0.0000 C   0  0  0  0  0  0  0  0  0  0  0  0
    0.0000   -6.0426    0.0000 C   0  0  0  0  0  0  0  0  0  0  0  0
    0.2765   -4.7419    0.0000 S   0  0  0  0  0  0  0  0  0  0  0  0
    5.5920   -2.3044    0.0000 C   0  0  0  0  0  0  0  0  0  0  0  0
    6.2577   -1.1471    0.0000 C   0  0  0  0  0  0  0  0  0  0  0  0
    7.5789   -1.1471    0.0000 C   0  0  0  0  0  0  0  0  0  0  0  0
    8.2446   -2.3044    0.0000 C   0  0  0  0  0  0  0  0  0  0  0  0
    9.5761   -2.3044    0.0000 C   0  0  0  0  0  0  0  0  0  0  0  0
   10.2418   -1.1471    0.0000 O   0  0  0  0  0  0  0  0  0  0  0  0
   10.2418   -3.4515    0.0000 C   0  0  0  0  0  0  0  0  0  0  0  0
    9.5761   -4.6088    0.0000 C   0  0  0  0  0  0  0  0  0  0  0  0
    8.2446   -4.6088    0.0000 C   0  0  0  0  0  0  0  0  0  0  0  0
    7.5789   -3.4515    0.0000 C   0  0  0  0  0  0  0  0  0  0  0  0
    6.2577   -3.4515    0.0000 C   0  0  0  0  0  0  0  0  0  0  0  0
  1  2  1  0  0  0  0
  2  3  1  0  0  0  0
  3  4  1  0  0  0  0
  4  5  1  0  0  0  0
 12  4  1  1  0  0  0
  5  6  1  0  0  0  0
  6  7  1  0  0  0  0
  7  8  2  0  0  0  0
  7 11  1  0  0  0  0
  8  9  1  0  0  0  0
  9 10  2  0  0  0  0
 10 11  1  0  0  0  0
 12 13  1  0  0  0  0
 12 22  1  0  0  0  0
 13 14  1  0  0  0  0
 14 15  1  0  0  0  0
 15 16  2  0  0  0  0
 15 21  1  0  0  0  0
 16 17  1  0  0  0  0
 16 18  1  0  0  0  0
 18 19  2  0  0  0  0
 19 20  1  0  0  0  0
 20 21  2  0  0  0  0
 21 22  1  0  0  0  0
M  END
> <ID>
11957

> <Formula>
C19H25NOS

> <FW>
315.4729

> <DSSTox_CID>
26772

> <DSSTox_RID>
81893

> <DSSTox_GSID>
46772

> <DSSTox_FileID_Sort>
6574

> <TS_ChemName>
Rotigotine

> <TS_ChemName_Synonyms>


> <TS_CASRN>
99755-59-6

> <CASRN_ChemName_Relationship>
primary

> <TS_Description>
single chemical compound

> <ChemNote>
stereochem

> <STRUCTURE_Shown>
tested chemical

> <STRUCTURE_Formula>
C19H25NOS

> <STRUCTURE_MW>
315.4729

> <STRUCTURE_ChemType>
defined organic

> <STRUCTURE_DefinedOrganicForm>
parent

> <STRUCTURE_IUPAC>
(6S)-6-{propyl[2-(thiophen-2-yl)ethyl]amino}-5,6,7,8-tetrahydronaphthalen-1-ol

> <STRUCTURE_SMILES>
Oc2cccc1C[C@H](CCc12)N(CCC)CCc3cccs3

> <STRUCTURE_SMILES_Desalt>
Oc2cccc1C[C@H](CCc12)N(CCC)CCc3cccs3

> <Substance_modify_yyyymmdd>
20110802

$$$$
