998-40-3
ChemmineR-0915142007XD

 13 12  0  0  0  0  0  0  0  0  1 V2000
    4.6002   -0.6716    0.0000 P   0  0  0  0  0  0  0  0  0  0  0  0
    3.4594    0.0000    0.0000 C   0  0  0  0  0  0  0  0  0  0  0  0
    2.3093   -0.6716    0.0000 C   0  0  0  0  0  0  0  0  0  0  0  0
    1.1501    0.0000    0.0000 C   0  0  0  0  0  0  0  0  0  0  0  0
    0.0000   -0.6716    0.0000 C   0  0  0  0  0  0  0  0  0  0  0  0
    4.6002   -2.0057    0.0000 C   0  0  0  0  0  0  0  0  0  0  0  0
    5.7411   -2.6405    0.0000 C   0  0  0  0  0  0  0  0  0  0  0  0
    5.7411   -3.9746    0.0000 C   0  0  0  0  0  0  0  0  0  0  0  0
    6.8911   -4.6462    0.0000 C   0  0  0  0  0  0  0  0  0  0  0  0
    5.7411    0.0000    0.0000 C   0  0  0  0  0  0  0  0  0  0  0  0
    6.8911   -0.6716    0.0000 C   0  0  0  0  0  0  0  0  0  0  0  0
    8.0504    0.0000    0.0000 C   0  0  0  0  0  0  0  0  0  0  0  0
    9.2004   -0.6716    0.0000 C   0  0  0  0  0  0  0  0  0  0  0  0
  1  2  1  0  0  0  0
  1  6  1  0  0  0  0
  1 10  1  0  0  0  0
  2  3  1  0  0  0  0
  3  4  1  0  0  0  0
  4  5  1  0  0  0  0
  6  7  1  0  0  0  0
  7  8  1  0  0  0  0
  8  9  1  0  0  0  0
 10 11  1  0  0  0  0
 11 12  1  0  0  0  0
 12 13  1  0  0  0  0
M  END
> <ID>
12154

> <Formula>
C12H27P

> <FW>
202.3165

> <DSSTox_CID>
26998

> <DSSTox_RID>
82042

> <DSSTox_GSID>
46998

> <DSSTox_FileID_Sort>
6723

> <TS_ChemName>
Tributylphosphine

> <TS_ChemName_Synonyms>


> <TS_CASRN>
998-40-3

> <CASRN_ChemName_Relationship>
primary

> <TS_Description>
single chemical compound

> <ChemNote>


> <STRUCTURE_Shown>
tested chemical

> <STRUCTURE_Formula>
C12H27P

> <STRUCTURE_MW>
202.3165

> <STRUCTURE_ChemType>
defined organic

> <STRUCTURE_DefinedOrganicForm>
parent

> <STRUCTURE_IUPAC>
tributylphosphane

> <STRUCTURE_SMILES>
CCCCP(CCCC)CCCC

> <STRUCTURE_SMILES_Desalt>
CCCCP(CCCC)CCCC

> <Substance_modify_yyyymmdd>
20100317

$$$$
