999-21-3
ChemmineR-0915142007XD

 14 13  0  0  0  0  0  0  0  0  1 V2000
    2.3080   -2.0022    0.0000 O   0  0  0  0  0  0  0  0  0  0  0  0
    2.3080   -3.3351    0.0000 O   0  0  0  0  0  0  0  0  0  0  0  0
    1.1540   -1.3271    0.0000 C   0  0  0  0  0  0  0  0  0  0  0  0
    1.1540   -3.9871    0.0000 C   0  0  0  0  0  0  0  0  0  0  0  0
    0.0000   -2.0022    0.0000 C   0  0  0  0  0  0  0  0  0  0  0  0
    0.0000   -3.3351    0.0000 C   0  0  0  0  0  0  0  0  0  0  0  0
    3.4620   -1.3271    0.0000 C   0  0  0  0  0  0  0  0  0  0  0  0
    4.6160   -2.0022    0.0000 C   0  0  0  0  0  0  0  0  0  0  0  0
    3.4620   -3.9871    0.0000 C   0  0  0  0  0  0  0  0  0  0  0  0
    4.6160   -3.3351    0.0000 C   0  0  0  0  0  0  0  0  0  0  0  0
    5.7700   -1.3271    0.0000 C   0  0  0  0  0  0  0  0  0  0  0  0
    5.7527   -3.9871    0.0000 C   0  0  0  0  0  0  0  0  0  0  0  0
    1.1540    0.0000    0.0000 O   0  0  0  0  0  0  0  0  0  0  0  0
    1.1540   -5.3200    0.0000 O   0  0  0  0  0  0  0  0  0  0  0  0
  1  3  1  0  0  0  0
  1  7  1  0  0  0  0
  2  4  1  0  0  0  0
  2  9  1  0  0  0  0
  3  5  1  0  0  0  0
  3 13  2  0  0  0  0
  4  6  1  0  0  0  0
  4 14  2  0  0  0  0
  5  6  2  0  0  0  0
  7  8  1  0  0  0  0
  8 11  2  0  0  0  0
  9 10  1  0  0  0  0
 10 12  2  0  0  0  0
M  END
> <ID>
10403

> <Formula>
C10H12O4

> <FW>
196.1999

> <DSSTox_CID>
24752

> <DSSTox_RID>
80445

> <DSSTox_GSID>
44752

> <DSSTox_FileID_Sort>
5127

> <TS_ChemName>
Diprop-2-en-1-yl (2Z)-but-2-enedioate

> <TS_ChemName_Synonyms>
Diprop-2-en-1-yl (2Z)-but-2-enedioate (2-Butenedioic acid (2Z)-, di-2-propenyl ester)

> <TS_CASRN>
999-21-3

> <CASRN_ChemName_Relationship>
primary

> <TS_Description>
single chemical compound

> <ChemNote>
stereochem

> <STRUCTURE_Shown>
tested chemical

> <STRUCTURE_Formula>
C10H12O4

> <STRUCTURE_MW>
196.1999

> <STRUCTURE_ChemType>
defined organic

> <STRUCTURE_DefinedOrganicForm>
parent

> <STRUCTURE_IUPAC>
diprop-2-en-1-yl (2Z)-but-2-enedioate

> <STRUCTURE_SMILES>
O=C(\C=C/C(=O)OCC=C)OCC=C

> <STRUCTURE_SMILES_Desalt>
O=C(\C=C/C(=O)OCC=C)OCC=C

> <Substance_modify_yyyymmdd>
20091116

$$$$
