NOCAS_49391
ChemmineR-0915142007XD

 49 48  0  0  0  0  0  0  0  0  2 V2000
   21.2497    0.0000    0.0000 C   0  0  0  0  0  0  0  0  0  0  0  0
    2.6775   -8.0749    0.0000 C   0  0  0  0  0  0  0  0  0  0  0  0
    9.5836  -12.0273    0.0000 C   0  0  0  0  0  0  0  0  0  0  0  0
    7.2886  -12.6648    0.0000 C   0  0  0  0  0  0  0  0  0  0  0  0
   19.8897    0.0000    0.0000 C   0  0  0  0  0  0  0  0  0  0  0  0
    3.8462   -7.3949    0.0000 C   0  0  0  0  0  0  0  0  0  0  0  0
    9.5836  -10.7311    0.0000 C   0  0  0  0  0  0  0  0  0  0  0  0
    6.6087  -11.5386    0.0000 C   0  0  0  0  0  0  0  0  0  0  0  0
   19.2310   -1.1687    0.0000 C   0  0  0  0  0  0  0  0  0  0  0  0
    4.9724   -8.0749    0.0000 C   0  0  0  0  0  0  0  0  0  0  0  0
    8.4149  -10.0724    0.0000 C   0  0  0  0  0  0  0  0  0  0  0  0
    7.2886  -10.3699    0.0000 C   0  0  0  0  0  0  0  0  0  0  0  0
   17.9135   -1.1687    0.0000 C   0  0  0  0  0  0  0  0  0  0  0  0
   17.2548   -2.2950    0.0000 C   0  0  0  0  0  0  0  0  0  0  0  0
   15.9373   -2.2950    0.0000 C   0  0  0  0  0  0  0  0  0  0  0  0
   15.2573   -3.4637    0.0000 C   0  0  0  0  0  0  0  0  0  0  0  0
   13.9398   -3.4637    0.0000 C   0  0  0  0  0  0  0  0  0  0  0  0
   13.2386   -4.6324    0.0000 C   0  0  0  0  0  0  0  0  0  0  0  0
   11.9423   -4.6324    0.0000 C   0  0  0  0  0  0  0  0  0  0  0  0
   11.2623   -5.7587    0.0000 C   0  0  0  0  0  0  0  0  0  0  0  0
    9.9449   -5.7587    0.0000 C   0  0  0  0  0  0  0  0  0  0  0  0
    9.2861   -6.9062    0.0000 C   0  0  0  0  0  0  0  0  0  0  0  0
    6.1199   -7.3949    0.0000 C   0  0  0  0  0  0  0  0  0  0  0  0
    8.4149   -8.7336    0.0000 C   0  0  0  0  0  0  0  0  0  0  0  0
    6.6087   -9.2011    0.0000 C   0  0  0  0  0  0  0  0  0  0  0  0
    7.9474   -6.9062    0.0000 C   0  0  0  0  0  0  0  0  0  0  0  0
    7.2886   -8.0749    0.0000 P   0  3  0  0  0  0  0  0  0  0  0  0
   16.3198  -15.1085    0.0000 C   0  0  0  0  0  0  0  0  0  0  0  0
   15.1510  -15.7673    0.0000 C   0  0  0  0  0  0  0  0  0  0  0  0
   14.0248  -15.0660    0.0000 C   0  0  0  0  0  0  0  0  0  0  0  0
   12.8348  -15.7248    0.0000 C   0  0  0  0  0  0  0  0  0  0  0  0
   11.7086  -15.0660    0.0000 C   0  0  0  0  0  0  0  0  0  0  0  0
   10.5823  -15.7035    0.0000 C   0  0  0  0  0  0  0  0  0  0  0  0
    9.4136  -15.0448    0.0000 C   0  0  0  0  0  0  0  0  0  0  0  0
    8.2661  -15.6610    0.0000 C   0  0  0  0  0  0  0  0  0  0  0  0
    7.0974  -14.9810    0.0000 C   0  0  0  0  0  0  0  0  0  0  0  0
    5.9499  -15.6398    0.0000 C   0  0  0  0  0  0  0  0  0  0  0  0
    4.7812  -14.9810    0.0000 C   0  0  0  0  0  0  0  0  0  0  0  0
    1.3812  -12.9198    0.0000 C   0  0  0  0  0  0  0  0  0  0  0  0
    0.2125  -13.5786    0.0000 C   0  0  0  0  0  0  0  0  0  0  0  0
    3.6549  -15.6398    0.0000 C   0  0  0  0  0  0  0  0  0  0  0  0
    2.5287  -13.5998    0.0000 C   0  0  0  0  0  0  0  0  0  0  0  0
    0.2125  -14.9173    0.0000 C   0  0  0  0  0  0  0  0  0  0  0  0
    2.5287  -14.9385    0.0000 C   0  0  0  0  0  0  0  0  0  0  0  0
    1.3600  -15.5973    0.0000 C   0  0  0  0  0  0  0  0  0  0  0  0
    0.0000  -16.8935    0.0000 O   0  5  0  0  0  0  0  0  0  0  0  0
    2.6562  -16.9573    0.0000 O   0  0  0  0  0  0  0  0  0  0  0  0
    1.2962  -18.2535    0.0000 O   0  0  0  0  0  0  0  0  0  0  0  0
    1.3600  -16.9360    0.0000 S   0  0  0  0  0  0  0  0  0  0  0  0
  1  5  1  0  0  0  0
  2  6  1  0  0  0  0
  3  7  1  0  0  0  0
  4  8  1  0  0  0  0
  5  9  1  0  0  0  0
  6 10  1  0  0  0  0
  7 11  1  0  0  0  0
  8 12  1  0  0  0  0
  9 13  1  0  0  0  0
 10 23  1  0  0  0  0
 11 24  1  0  0  0  0
 12 25  1  0  0  0  0
 13 14  1  0  0  0  0
 14 15  1  0  0  0  0
 15 16  1  0  0  0  0
 16 17  1  0  0  0  0
 17 18  1  0  0  0  0
 18 19  1  0  0  0  0
 19 20  1  0  0  0  0
 20 21  1  0  0  0  0
 21 22  1  0  0  0  0
 22 26  1  0  0  0  0
 23 27  1  0  0  0  0
 24 27  1  0  0  0  0
 25 27  1  0  0  0  0
 26 27  1  0  0  0  0
 28 29  1  0  0  0  0
 29 30  1  0  0  0  0
 30 31  1  0  0  0  0
 31 32  1  0  0  0  0
 32 33  1  0  0  0  0
 33 34  1  0  0  0  0
 34 35  1  0  0  0  0
 35 36  1  0  0  0  0
 36 37  1  0  0  0  0
 37 38  1  0  0  0  0
 38 41  1  0  0  0  0
 39 40  2  0  0  0  0
 39 42  1  0  0  0  0
 40 43  1  0  0  0  0
 41 44  1  0  0  0  0
 42 44  2  0  0  0  0
 43 45  2  0  0  0  0
 44 45  1  0  0  0  0
 45 49  1  0  0  0  0
 46 49  1  0  0  0  0
 47 49  2  0  0  0  0
 48 49  2  0  0  0  0
M  END
> <ID>
14255

> <Formula>
C44H85O3PS

> <FW>
725.1827 (399.6961+325.4866)

> <DSSTox_CID>
29350

> <DSSTox_RID>
83466

> <DSSTox_GSID>
49391

> <DSSTox_FileID_Sort>
8141

> <TS_ChemName>
Tributyltetradecylphosphonium dodecylbenzenesulfonate

> <TS_ChemName_Synonyms>


> <TS_CASRN>
NOCAS_49391

> <CASRN_ChemName_Relationship>
no CAS assigned

> <TS_Description>
single chemical compound

> <ChemNote>


> <STRUCTURE_Shown>
tested chemical

> <STRUCTURE_Formula>
C44H85O3PS

> <STRUCTURE_MW>
725.1827

> <STRUCTURE_ChemType>
defined organic

> <STRUCTURE_DefinedOrganicForm>
complex

> <STRUCTURE_IUPAC>
tributyl(tetradecyl)phosphonium 2-dodecylbenzenesulfonate

> <STRUCTURE_SMILES>
O=S([O-])(=O)c1ccccc1CCCCCCCCCCCC.CCCC[P+](CCCC)(CCCC)CCCCCCCCCCCCCC

> <STRUCTURE_SMILES_Desalt>
CCCC[P+](CCCC)(CCCC)CCCCCCCCCCCCCC

> <Substance_modify_yyyymmdd>
20111204

$$$$
