NOCAS_47330
ChemmineR-0915142007XD

 29 32  0  0  0  0  0  0  0  0  1 V2000
    1.8082    0.0000    0.0000 C   0  0  0  0  0  0  0  0  0  0  0  0
    1.1539   -1.1539    0.0000 C   0  0  0  0  0  0  0  0  0  0  0  0
    0.4758   -2.3078    0.0000 C   0  0  0  0  0  0  0  0  0  0  0  0
    0.0000   -0.4758    0.0000 O   0  0  0  0  0  0  0  0  0  0  0  0
    2.2959   -1.8082    0.0000 C   0  0  0  0  0  0  0  0  0  0  0  0
    2.2959   -3.1405    0.0000 C   0  0  0  0  0  0  0  0  0  0  0  0
    3.4498   -3.8185    0.0000 N   0  0  0  0  0  0  0  0  0  0  0  0
    4.6037   -3.1405    0.0000 N   0  0  0  0  0  0  0  0  0  0  0  0
    5.8646   -3.5568    0.0000 C   0  0  0  0  0  0  0  0  0  0  0  0
    6.6497   -2.4862    0.0000 C   0  0  0  0  0  0  0  0  0  0  0  0
    5.8646   -1.4156    0.0000 N   0  0  0  0  0  0  0  0  0  0  0  0
    4.6037   -1.8082    0.0000 C   0  0  0  0  0  0  0  0  0  0  0  0
    3.4498   -1.1539    0.0000 N   0  0  0  0  0  0  0  0  0  0  0  0
    6.2810   -4.8297    0.0000 C   0  0  0  0  0  0  0  0  0  0  0  0
    5.3888   -5.8170    0.0000 C   0  0  0  0  0  0  0  0  0  0  0  0
    5.8051   -7.0661    0.0000 C   0  0  0  0  0  0  0  0  0  0  0  0
    7.1018   -7.3635    0.0000 C   0  0  0  0  0  0  0  0  0  0  0  0
    7.5181   -8.6244    0.0000 F   0  0  0  0  0  0  0  0  0  0  0  0
    8.0059   -6.3642    0.0000 C   0  0  0  0  0  0  0  0  0  0  0  0
    7.5776   -5.1033    0.0000 C   0  0  0  0  0  0  0  0  0  0  0  0
    9.3025   -6.6378    0.0000 C   0  0  0  0  0  0  0  0  0  0  0  0
    9.6951   -7.8988    0.0000 C   0  0  0  0  0  0  0  0  0  0  0  0
    8.8148   -8.8980    0.0000 F   0  0  0  0  0  0  0  0  0  0  0  0
   11.0155   -8.1962    0.0000 C   0  0  0  0  0  0  0  0  0  0  0  0
   11.8958   -7.1970    0.0000 C   0  0  0  0  0  0  0  0  0  0  0  0
   11.4794   -5.9360    0.0000 C   0  0  0  0  0  0  0  0  0  0  0  0
   10.1828   -5.6624    0.0000 C   0  0  0  0  0  0  0  0  0  0  0  0
    9.7783   -4.3895    0.0000 C   0  0  0  0  0  0  0  0  0  0  0  0
    9.3620   -3.1286    0.0000 N   0  0  0  0  0  0  0  0  0  0  0  0
  1  2  1  0  0  0  0
  2  3  1  0  0  0  0
  2  4  1  0  0  0  0
  2  5  1  0  0  0  0
  5  6  1  0  0  0  0
  5 13  2  0  0  0  0
  6  7  2  0  0  0  0
  7  8  1  0  0  0  0
  8  9  1  0  0  0  0
  8 12  1  0  0  0  0
  9 10  2  0  0  0  0
  9 14  1  0  0  0  0
 10 11  1  0  0  0  0
 11 12  2  0  0  0  0
 12 13  1  0  0  0  0
 14 15  1  0  0  0  0
 14 20  2  0  0  0  0
 15 16  2  0  0  0  0
 16 17  1  0  0  0  0
 17 18  1  0  0  0  0
 17 19  2  0  0  0  0
 19 20  1  0  0  0  0
 19 21  1  0  0  0  0
 21 22  1  0  0  0  0
 21 27  2  0  0  0  0
 22 23  1  0  0  0  0
 22 24  2  0  0  0  0
 24 25  1  0  0  0  0
 25 26  2  0  0  0  0
 26 27  1  0  0  0  0
 27 28  1  0  0  0  0
 28 29  3  0  0  0  0
M  END
> <ID>
12472

> <Formula>
C21H15F2N5O

> <FW>
391.3735

> <DSSTox_CID>
27330

> <DSSTox_RID>
82274

> <DSSTox_GSID>
47330

> <DSSTox_FileID_Sort>
6955

> <TS_ChemName>
PharmaGSID_47330

> <TS_ChemName_Synonyms>


> <TS_CASRN>
NOCAS_47330

> <CASRN_ChemName_Relationship>
no CAS assigned

> <TS_Description>
single chemical compound

> <ChemNote>


> <STRUCTURE_Shown>
tested chemical

> <STRUCTURE_Formula>
C21H15F2N5O

> <STRUCTURE_MW>
391.3735

> <STRUCTURE_ChemType>
defined organic

> <STRUCTURE_DefinedOrganicForm>
parent

> <STRUCTURE_IUPAC>
2',6-difluoro-5'-[3-(2-hydroxypropan-2-yl)imidazo[1,2-b][1,2,4]triazin-7-yl]biphenyl-2-carbonitrile

> <STRUCTURE_SMILES>
N#Cc1cccc(F)c1c2cc(ccc2F)c3cnc4nc(cnn34)C(C)(C)O

> <STRUCTURE_SMILES_Desalt>
N#Cc1cccc(F)c1c2cc(ccc2F)c3cnc4nc(cnn34)C(C)(C)O

> <Substance_modify_yyyymmdd>
20130910

$$$$
