NOCAS_47389
ChemmineR-0915142007XD

 36 37  0  0  1  0  0  0  0  0  1 V2000
    5.9820   -1.1529    0.0000 C    0  0  0  0  0  0  0  0  0  0  0  0
    6.6563   -2.3058    0.0000 C    0  0  0  0  0  0  0  0  0  0  0  0
    4.6551   -1.1529    0.0000 C    0  0  0  0  0  0  0  0  0  0  0  0
    5.9820   -3.4587    0.0000 C    0  0  0  0  0  0  0  0  0  0  0  0
    3.9807   -2.3058    0.0000 C    0  0  0  0  0  0  0  0  0  0  0  0
    4.6551   -3.4587    0.0000 C    0  0  0  0  0  0  0  0  0  0  0  0
    7.9832   -2.3058    0.0000 C    0  0  0  0  0  0  0  0  0  0  0  0
    8.6358   -1.1529    0.0000 C    0  0  0  0  0  0  0  0  0  0  0  0
    8.6358   -3.4587    0.0000 C    0  0  0  0  0  0  0  0  0  0  0  0
    9.9627   -1.1529    0.0000 C    0  0  0  0  0  0  0  0  0  0  0  0
    9.9627   -3.4587    0.0000 C    0  0  0  0  0  0  0  0  0  0  0  0
   10.6370   -2.3058    0.0000 C    0  0  0  0  0  0  0  0  0  0  0  0
    2.6538   -2.3058    0.0000 C    0  0  0  0  0  0  0  0  0  0  0  0
    1.9795   -1.1529    0.0000 O    0  0  0  0  0  0  0  0  0  0  0  0
    1.9795   -3.4587    0.0000 O    0  0  0  0  0  0  0  0  0  0  0  0
    0.6743   -1.1529    0.0000 C    0  0  0  0  0  0  0  0  0  0  0  0
    0.0000    0.0000    0.0000 C    0  0  0  0  0  0  0  0  0  0  0  0
   11.9639   -2.3058    0.0000 N    0  0  0  0  0  0  0  0  0  0  0  0
   12.6383   -3.4587    0.0000 C    0  0  0  0  0  0  0  0  0  0  0  0
   13.9652   -3.4587    0.0000 C    0  0  0  0  0  0  0  0  0  0  0  0
   14.6177   -4.6116    0.0000 C    0  0  0  0  0  0  0  0  0  0  0  0
   14.6177   -2.3058    0.0000 O    0  0  0  0  0  0  0  0  0  0  0  0
   15.9447   -4.6116    0.0000 O    0  0  0  0  0  0  0  0  0  0  0  0
   16.5972   -5.7644    0.0000 C    0  0  0  0  0  0  0  0  0  0  0  0
   17.9459   -8.0702    0.0000 C    0  0  0  0  0  0  0  0  0  0  0  0
   18.6202   -6.9173    0.0000 C    0  0  0  0  0  0  0  0  0  0  0  0
   16.5972   -8.0702    0.0000 C    0  0  0  0  0  0  0  0  0  0  0  0
   17.9459   -5.7644    0.0000 C    0  0  0  0  0  0  0  0  0  0  0  0
   15.9447   -6.9173    0.0000 C    0  0  0  0  0  0  0  0  0  0  0  0
   18.6202   -9.2014    0.0000 O    0  0  0  0  0  0  0  0  0  0  0  0
   19.9471   -6.9173    0.0000 N    0  0  0  0  0  0  0  0  0  0  0  0
   20.5997   -5.7644    0.0000 S    0  0  0  0  0  0  0  0  0  0  0  0
   19.4468   -5.0901    0.0000 O    0  0  0  0  0  0  0  0  0  0  0  0
   21.7526   -6.4170    0.0000 C    0  0  0  0  0  0  0  0  0  0  0  0
   21.2740   -4.6116    0.0000 O    0  0  0  0  0  0  0  0  0  0  0  0
   11.2896   -5.2206    0.0000 Cl   0  0  0  0  0  0  0  0  0  0  0  0
  1  2  1  0  0  0  0
  1  3  2  0  0  0  0
  2  4  2  0  0  0  0
  7  2  1  6  0  0  0
  3  5  1  0  0  0  0
  4  6  1  0  0  0  0
  5  6  2  0  0  0  0
  5 13  1  0  0  0  0
  7  8  1  0  0  0  0
  7  9  1  0  0  0  0
  8 10  1  0  0  0  0
  9 11  1  0  0  0  0
 10 12  1  0  0  0  0
 11 12  1  0  0  0  0
 12 18  1  1  0  0  0
 13 14  1  0  0  0  0
 13 15  2  0  0  0  0
 14 16  1  0  0  0  0
 16 17  1  0  0  0  0
 18 19  1  0  0  0  0
 19 20  1  0  0  0  0
 20 21  1  0  0  0  0
 20 22  1  6  0  0  0
 21 23  1  0  0  0  0
 23 24  1  0  0  0  0
 24 28  1  0  0  0  0
 24 29  2  0  0  0  0
 25 26  1  0  0  0  0
 25 27  2  0  0  0  0
 25 30  1  0  0  0  0
 26 28  2  0  0  0  0
 26 31  1  0  0  0  0
 27 29  1  0  0  0  0
 31 32  1  0  0  0  0
 32 33  2  0  0  0  0
 32 34  1  0  0  0  0
 32 35  2  0  0  0  0
M  END
> <ID>
12531

> <Formula>
C25H35ClN2O7S

> <FW>
543.0726 (506.6117+36.4609)

> <DSSTox_CID>
27389

> <DSSTox_RID>
82314

> <DSSTox_GSID>
47389

> <DSSTox_FileID_Sort>
6995

> <TS_ChemName>
SAR150640

> <TS_ChemName_Synonyms>
SAR150640A

> <TS_CASRN>
NOCAS_47389

> <CASRN_ChemName_Relationship>
no CAS assigned

> <TS_Description>
single chemical compound

> <ChemNote>


> <STRUCTURE_Shown>
tested chemical

> <STRUCTURE_Formula>
C25H35ClN2O7S

> <STRUCTURE_MW>
543.0726

> <STRUCTURE_ChemType>
defined organic

> <STRUCTURE_DefinedOrganicForm>
complex

> <STRUCTURE_IUPAC>
ethyl 4-(trans-4-{[(2S)-2-hydroxy-3-{4-hydroxy-3-[(methylsulfonyl)amino]phenoxy}propyl]amino}cyclohexyl)benzoate hydrochloride (1:1)

> <STRUCTURE_SMILES>
Cl.CS(=O)(=O)Nc1cc(ccc1O)OC[C@@H](O)CN[C@H]2CC[C@@H](CC2)c3ccc(cc3)C(=O)OCC

> <STRUCTURE_SMILES_Desalt>
CS(=O)(=O)Nc1cc(ccc1O)OC[C@@H](O)CN[C@H]2CC[C@@H](CC2)c3ccc(cc3)C(=O)OCC

> <Substance_modify_yyyymmdd>
20130910

$$$$
