NOCAS_47383
ChemmineR-0915142007XD

 37 41  0  0  0  0  0  0  0  0  2 V2000
    5.5571   -2.0076    0.0000 C    0  0  0  0  0  0  0  0  0  0  0  0
    5.5571   -3.3407    0.0000 C    0  0  0  0  0  0  0  0  0  0  0  0
    4.4168   -1.3331    0.0000 C    0  0  0  0  0  0  0  0  0  0  0  0
    4.4168   -3.9992    0.0000 C    0  0  0  0  0  0  0  0  0  0  0  0
    3.2604   -2.0076    0.0000 C    0  0  0  0  0  0  0  0  0  0  0  0
    3.2604   -3.3407    0.0000 C    0  0  0  0  0  0  0  0  0  0  0  0
    6.8259   -1.5900    0.0000 N    0  0  0  0  0  0  0  0  0  0  0  0
    7.6129   -2.6822    0.0000 C    0  0  0  0  0  0  0  0  0  0  0  0
    6.8259   -3.7583    0.0000 N    0  0  0  0  0  0  0  0  0  0  0  0
    2.1201   -1.3331    0.0000 C    0  0  0  0  0  0  0  0  0  0  0  0
    2.1201    0.0000    0.0000 O    0  5  0  0  0  0  0  0  0  0  0  0
    0.9637   -2.0076    0.0000 O    0  0  0  0  0  0  0  0  0  0  0  0
    8.9139   -2.6822    0.0000 C    0  0  0  0  0  0  0  0  0  0  0  0
    9.5884   -3.8386    0.0000 O    0  0  0  0  0  0  0  0  0  0  0  0
    9.5884   -1.5258    0.0000 N    0  0  0  0  0  0  0  0  0  0  0  0
   10.9215   -1.5258    0.0000 C    0  0  0  0  0  0  0  0  0  0  0  0
   13.5716   -1.5258    0.0000 N    0  0  0  0  0  0  0  0  0  0  0  0
   12.9291   -0.3694    0.0000 C    0  0  0  0  0  0  0  0  0  0  0  0
   12.9131   -2.6822    0.0000 C    0  0  0  0  0  0  0  0  0  0  0  0
   11.5961   -0.3694    0.0000 C    0  0  0  0  0  0  0  0  0  0  0  0
   11.5800   -2.6822    0.0000 C    0  0  0  0  0  0  0  0  0  0  0  0
    7.2435   -5.0110    0.0000 C    0  0  0  0  0  0  0  0  0  0  0  0
    6.3441   -5.9908    0.0000 C    0  0  0  0  0  0  0  0  0  0  0  0
    6.6171   -7.2917    0.0000 C    0  0  0  0  0  0  0  0  0  0  0  0
    5.0271   -5.8623    0.0000 N    0  0  0  0  0  0  0  0  0  0  0  0
    5.4608   -7.9502    0.0000 C    0  0  0  0  0  0  0  0  0  0  0  0
    4.4810   -7.0669    0.0000 O    0  0  0  0  0  0  0  0  0  0  0  0
    5.3323   -9.2833    0.0000 C    0  0  0  0  0  0  0  0  0  0  0  0
    4.1759   -9.9257    0.0000 S    0  0  0  0  0  0  0  0  0  0  0  0
    6.3120  -10.1506    0.0000 C    0  0  0  0  0  0  0  0  0  0  0  0
    4.4489  -11.2267    0.0000 C    0  0  0  0  0  0  0  0  0  0  0  0
    5.7659  -11.3712    0.0000 C    0  0  0  0  0  0  0  0  0  0  0  0
    3.5655  -12.2224    0.0000 Cl   0  0  0  0  0  0  0  0  0  0  0  0
   14.9046   -1.5258    0.0000 C    0  0  0  0  0  0  0  0  0  0  0  0
   16.0610   -2.2004    0.0000 C    0  0  0  0  0  0  0  0  0  0  0  0
   16.0610   -0.8673    0.0000 C    0  0  0  0  0  0  0  0  0  0  0  0
    0.0000   -0.6585    0.0000 Na   0  3  0  0  0  0  0  0  0  0  0  0
  1  3  2  0  0  0  0
  1  7  1  0  0  0  0
  1  2  1  0  0  0  0
  2  4  2  0  0  0  0
  2  9  1  0  0  0  0
  3  5  1  0  0  0  0
  4  6  1  0  0  0  0
  5  6  2  0  0  0  0
  5 10  1  0  0  0  0
  7  8  2  0  0  0  0
  8  9  1  0  0  0  0
  8 13  1  0  0  0  0
  9 22  1  0  0  0  0
 10 11  1  0  0  0  0
 10 12  2  0  0  0  0
 13 14  2  0  0  0  0
 13 15  1  0  0  0  0
 15 16  1  0  0  0  0
 16 20  1  0  0  0  0
 16 21  1  0  0  0  0
 17 18  1  0  0  0  0
 17 19  1  0  0  0  0
 17 34  1  0  0  0  0
 18 20  1  0  0  0  0
 19 21  1  0  0  0  0
 22 23  1  0  0  0  0
 23 24  1  0  0  0  0
 23 25  2  0  0  0  0
 24 26  2  0  0  0  0
 25 27  1  0  0  0  0
 26 27  1  0  0  0  0
 26 28  1  0  0  0  0
 28 29  1  0  0  0  0
 28 30  2  0  0  0  0
 29 31  1  0  0  0  0
 30 32  1  0  0  0  0
 31 32  2  0  0  0  0
 31 33  1  0  0  0  0
 34 35  1  0  0  0  0
 34 36  1  0  0  0  0
 35 36  1  0  0  0  0
M  END
> <ID>
12525

> <Formula>
C25H23ClN5NaO4S

> <FW>
547.9890 (524.9998+22.9892)

> <DSSTox_CID>
27383

> <DSSTox_RID>
82311

> <DSSTox_GSID>
47383

> <DSSTox_FileID_Sort>
6992

> <TS_ChemName>
AVE3247

> <TS_ChemName_Synonyms>
A003313247A

> <TS_CASRN>
NOCAS_47383

> <CASRN_ChemName_Relationship>
no CAS assigned

> <TS_Description>
single chemical compound

> <ChemNote>


> <STRUCTURE_Shown>
tested chemical

> <STRUCTURE_Formula>
C25H23ClN5NaO4S

> <STRUCTURE_MW>
547.989

> <STRUCTURE_ChemType>
defined organic

> <STRUCTURE_DefinedOrganicForm>
salt

> <STRUCTURE_IUPAC>
sodium 1-{[5-(5-chlorothiophen-2-yl)-1,2-oxazol-3-yl]methyl}-2-[(1-cyclopropylpiperidin-4-yl)carbamoyl]-1H-benzimidazole-5-carboxylate

> <STRUCTURE_SMILES>
[Na+].Clc1ccc(s1)c6onc(Cn4c5ccc(cc5nc4C(=O)NC2CCN(CC2)C3CC3)C([O-])=O)c6

> <STRUCTURE_SMILES_Desalt>
Clc1ccc(s1)c6onc(Cn4c5ccc(cc5nc4C(=O)NC2CCN(CC2)C3CC3)C(=O)O)c6

> <Substance_modify_yyyymmdd>
20130910

$$$$
