NOCAS_47305
ChemmineR-0915142007XD

 37 41  0  0  1  0  0  0  0  0  1 V2000
    5.6678   -5.8647    0.0000 N    0  0  0  0  0  0  0  0  0  0  0  0
    6.0897   -4.5989    0.0000 C    0  0  0  0  0  0  0  0  0  0  0  0
    4.4020   -6.2725    0.0000 C    0  0  0  0  0  0  0  0  0  0  0  0
    6.7507   -6.6523    0.0000 C    0  0  0  0  0  0  0  0  0  0  0  0
    7.4117   -4.5989    0.0000 C    0  0  0  0  0  0  0  0  0  0  0  0
    5.4146   -3.4457    0.0000 N    0  0  0  0  0  0  0  0  0  0  0  0
    3.3332   -5.4990    0.0000 O    0  0  0  0  0  0  0  0  0  0  0  0
    3.9942   -7.5383    0.0000 C    0  0  0  0  0  0  0  0  0  0  0  0
    7.8196   -5.8647    0.0000 N    0  0  0  0  0  0  0  0  0  0  0  0
    8.0727   -3.4457    0.0000 C    0  0  0  0  0  0  0  0  0  0  0  0
    6.0897   -2.2924    0.0000 C    0  0  0  0  0  0  0  0  0  0  0  0
    2.2643   -6.2725    0.0000 C    0  0  0  0  0  0  0  0  0  0  0  0
    2.6581   -7.5383    0.0000 C    0  0  0  0  0  0  0  0  0  0  0  0
    4.7677   -8.6212    0.0000 O    0  0  0  0  0  0  0  0  0  0  0  0
    9.4088   -3.4457    0.0000 N    0  0  0  0  0  0  0  0  0  0  0  0
    7.4117   -2.2924    0.0000 N    0  0  0  0  0  0  0  0  0  0  0  0
    0.9985   -5.8647    0.0000 C    0  0  0  0  0  0  0  0  0  0  0  0
    1.8846   -8.6212    0.0000 N    0  0  0  0  0  0  0  0  0  0  0  0
   10.0698   -2.2924    0.0000 C    0  0  0  0  0  0  0  0  0  0  0  0
    0.7173   -4.5708    0.0000 N    0  0  0  0  0  0  0  0  0  0  0  0
    0.0000   -6.7648    0.0000 O    0  0  0  0  0  0  0  0  0  0  0  0
   11.4059   -2.2924    0.0000 C    0  0  0  0  0  0  0  0  0  0  0  0
    1.7017   -3.6707    0.0000 C    0  0  0  0  0  0  0  0  0  0  0  0
   12.0669   -3.4457    0.0000 C    0  0  0  0  0  0  0  0  0  0  0  0
   12.0669   -1.1392    0.0000 C    0  0  0  0  0  0  0  0  0  0  0  0
   11.4059   -4.5989    0.0000 O    0  0  0  0  0  0  0  0  0  0  0  0
   13.3889   -3.4457    0.0000 C    0  0  0  0  0  0  0  0  0  0  0  0
   13.3889   -1.1392    0.0000 C    0  0  0  0  0  0  0  0  0  0  0  0
   12.0669   -5.7522    0.0000 C    0  0  0  0  0  0  0  0  0  0  0  0
   14.0640   -2.2924    0.0000 C    0  0  0  0  0  0  0  0  0  0  0  0
   14.0640    0.0000    0.0000 Cl   0  0  0  0  0  0  0  0  0  0  0  0
   11.4059   -6.9054    0.0000 C    0  0  0  0  0  0  0  0  0  0  0  0
   10.0698   -7.0461    0.0000 C    0  0  0  0  0  0  0  0  0  0  0  0
   11.9403   -8.1149    0.0000 O    0  0  0  0  0  0  0  0  0  0  0  0
    9.8026   -8.3399    0.0000 C    0  0  0  0  0  0  0  0  0  0  0  0
   10.9558   -9.0009    0.0000 N    0  0  0  0  0  0  0  0  0  0  0  0
    8.5790   -8.8884    0.0000 C    0  0  0  0  0  0  0  0  0  0  0  0
  1  2  1  0  0  0  0
  3  1  1  1  0  0  0
  1  4  1  0  0  0  0
  2  5  2  0  0  0  0
  2  6  1  0  0  0  0
  3  7  1  0  0  0  0
  3  8  1  0  0  0  0
  4  9  2  0  0  0  0
  5 10  1  0  0  0  0
  5  9  1  0  0  0  0
  6 11  2  0  0  0  0
  7 12  1  0  0  0  0
  8 13  1  0  0  0  0
  8 14  1  6  0  0  0
 10 15  1  0  0  0  0
 10 16  2  0  0  0  0
 11 16  1  0  0  0  0
 12 17  1  1  0  0  0
 12 13  1  0  0  0  0
 13 18  1  6  0  0  0
 15 19  1  0  0  0  0
 17 20  1  0  0  0  0
 17 21  2  0  0  0  0
 19 22  1  0  0  0  0
 20 23  1  0  0  0  0
 22 24  1  0  0  0  0
 22 25  2  0  0  0  0
 24 26  1  0  0  0  0
 24 27  2  0  0  0  0
 25 28  1  0  0  0  0
 26 29  1  0  0  0  0
 27 30  1  0  0  0  0
 28 31  1  0  0  0  0
 28 30  2  0  0  0  0
 29 32  1  0  0  0  0
 32 33  2  0  0  0  0
 32 34  1  0  0  0  0
 33 35  1  0  0  0  0
 34 36  1  0  0  0  0
 35 37  1  0  0  0  0
 35 36  2  0  0  0  0
M  END
> <ID>
12447

> <Formula>
C23H25ClN8O5

> <FW>
528.9482

> <DSSTox_CID>
27305

> <DSSTox_RID>
82255

> <DSSTox_GSID>
47305

> <DSSTox_FileID_Sort>
6936

> <TS_ChemName>
CP-608039

> <TS_ChemName_Synonyms>


> <TS_CASRN>
NOCAS_47305

> <CASRN_ChemName_Relationship>
no CAS assigned

> <TS_Description>
single chemical compound

> <ChemNote>
stereochem

> <STRUCTURE_Shown>
tested chemical

> <STRUCTURE_Formula>
C23H25ClN8O5

> <STRUCTURE_MW>
528.9482

> <STRUCTURE_ChemType>
defined organic

> <STRUCTURE_DefinedOrganicForm>
parent

> <STRUCTURE_IUPAC>
(2S,3S,4R,5R)-3-amino-5-[6-({5-chloro-2-[(3-methyl-1,2-oxazol-5-yl)methoxy]benzyl}amino)-9H-purin-9-yl]-4-hydroxy-N-methyltetrahydrofuran-2-carboxamide

> <STRUCTURE_SMILES>
Cc5cc(COc4ccc(Cl)cc4CNc3ncnc2c3ncn2[C@@H]1O[C@H](C(=O)NC)[C@@H](N)[C@H]1O)on5

> <STRUCTURE_SMILES_Desalt>
Cc5cc(COc4ccc(Cl)cc4CNc3ncnc2c3ncn2[C@@H]1O[C@H](C(=O)NC)[C@@H](N)[C@H]1O)on5

> <Substance_modify_yyyymmdd>
20130910

$$$$
