NOCAS_47328
ChemmineR-0915142007XD

 32 32  0  0  0  0  0  0  0  0  2 V2000
    7.6593   -3.9828    0.0000 C   0  0  0  0  0  0  0  0  0  0  0  0
    7.6593   -5.3186    0.0000 C   0  0  0  0  0  0  0  0  0  0  0  0
    6.5073   -3.3088    0.0000 C   0  0  0  0  0  0  0  0  0  0  0  0
    6.5073   -5.9681    0.0000 C   0  0  0  0  0  0  0  0  0  0  0  0
    5.3554   -3.9828    0.0000 C   0  0  0  0  0  0  0  0  0  0  0  0
    5.3554   -5.3186    0.0000 C   0  0  0  0  0  0  0  0  0  0  0  0
    8.8112   -5.9681    0.0000 C   0  0  0  0  0  0  0  0  0  0  0  0
    9.9632   -5.3186    0.0000 C   0  0  0  0  0  0  0  0  0  0  0  0
    8.8112   -7.3039    0.0000 C   0  0  0  0  0  0  0  0  0  0  0  0
   11.1151   -5.9681    0.0000 C   0  0  0  0  0  0  0  0  0  0  0  0
    9.9632   -7.9779    0.0000 C   0  0  0  0  0  0  0  0  0  0  0  0
   11.1151   -7.3039    0.0000 C   0  0  0  0  0  0  0  0  0  0  0  0
    4.1912   -5.9681    0.0000 C   0  0  0  0  0  0  0  0  0  0  0  0
    4.0686   -7.3039    0.0000 N   0  0  0  0  0  0  0  0  0  0  0  0
    2.9779   -5.4289    0.0000 N   0  0  0  0  0  0  0  0  0  0  0  0
    2.7573   -7.5735    0.0000 N   0  5  0  0  0  0  0  0  0  0  0  0
    2.0956   -6.4215    0.0000 C   0  0  0  0  0  0  0  0  0  0  0  0
    9.9632   -3.9828    0.0000 O   0  0  0  0  0  0  0  0  0  0  0  0
   11.1151   -3.3088    0.0000 C   0  0  0  0  0  0  0  0  0  0  0  0
   11.1151   -1.9853    0.0000 C   0  0  0  0  0  0  0  0  0  0  0  0
   12.2548   -1.3235    0.0000 F   0  0  0  0  0  0  0  0  0  0  0  0
    9.9632   -1.3235    0.0000 C   0  0  0  0  0  0  0  0  0  0  0  0
    9.9632   -2.6593    0.0000 F   0  0  0  0  0  0  0  0  0  0  0  0
    9.9632    0.0000    0.0000 F   0  0  0  0  0  0  0  0  0  0  0  0
    8.8112   -1.9853    0.0000 F   0  0  0  0  0  0  0  0  0  0  0  0
    8.7622   -0.7353    0.0000 F   0  0  0  0  0  0  0  0  0  0  0  0
    9.9632   -9.3014    0.0000 F   0  0  0  0  0  0  0  0  0  0  0  0
    0.7721   -6.2745    0.0000 C   0  0  0  0  0  0  0  0  0  0  0  0
    0.2451   -5.0613    0.0000 N   0  0  0  0  0  0  0  0  0  0  0  0
    0.0000   -7.3529    0.0000 O   0  0  0  0  0  0  0  0  0  0  0  0
    5.9068   -7.5857    0.0000 K   0  3  0  0  0  0  0  0  0  0  0  0
    4.1544   -2.2426    0.0000 O   0  0  0  0  0  0  0  0  0  0  0  0
  1  2  1  0  0  0  0
  1  3  2  0  0  0  0
  2  4  2  0  0  0  0
  2  7  1  0  0  0  0
  3  5  1  0  0  0  0
  4  6  1  0  0  0  0
  5  6  2  0  0  0  0
  6 13  1  0  0  0  0
  7  8  1  0  0  0  0
  7  9  2  0  0  0  0
  8 10  2  0  0  0  0
  8 18  1  0  0  0  0
  9 11  1  0  0  0  0
 10 12  1  0  0  0  0
 11 12  2  0  0  0  0
 11 27  1  0  0  0  0
 13 14  2  0  0  0  0
 13 15  1  0  0  0  0
 14 16  1  0  0  0  0
 15 17  2  0  0  0  0
 16 17  1  0  0  0  0
 17 28  1  0  0  0  0
 18 19  1  0  0  0  0
 19 20  1  0  0  0  0
 20 21  1  0  0  0  0
 20 22  1  0  0  0  0
 20 23  1  0  0  0  0
 22 24  1  0  0  0  0
 22 25  1  0  0  0  0
 22 26  1  0  0  0  0
 28 29  1  0  0  0  0
 28 30  2  0  0  0  0
M  END
> <ID>
12470

> <Formula>
C18H13F6KN4O3

> <FW>
486.4095 (429.2965+39.0978+18.0153)

> <DSSTox_CID>
27328

> <DSSTox_RID>
82273

> <DSSTox_GSID>
47328

> <DSSTox_FileID_Sort>
6954

> <TS_ChemName>
MK-274

> <TS_ChemName_Synonyms>


> <TS_CASRN>
NOCAS_47328

> <CASRN_ChemName_Relationship>
no CAS assigned

> <TS_Description>
single chemical compound

> <ChemNote>
tautomers

> <STRUCTURE_Shown>
tested chemical

> <STRUCTURE_Formula>
C18H13F6KN4O3

> <STRUCTURE_MW>
486.4095

> <STRUCTURE_ChemType>
defined organic

> <STRUCTURE_DefinedOrganicForm>
salt complex

> <STRUCTURE_IUPAC>
potassium 5-carbamoyl-3-[5'-fluoro-2'-(2,2,3,3,3-pentafluoropropoxy)biphenyl-3-yl]-1,2,4-triazol-1-ide hydrate (1:1:1)

> <STRUCTURE_SMILES>
[K+].O.FC(F)(F)C(F)(F)COc3ccc(F)cc3c1cccc(c1)c2nc([n-]n2)C(N)=O

> <STRUCTURE_SMILES_Desalt>
FC(F)(F)C(F)(F)COc3ccc(F)cc3c1cccc(c1)c2nc(nn2)C(N)=O

> <Substance_modify_yyyymmdd>
20130910

$$$$
