NOCAS_48514
ChemmineR-0915142007XD

 25 25  0  0  0  0  0  0  0  0  2 V2000
    5.4876   -4.3781    0.0000 Na   0  3  0  0  0  0  0  0  0  0  0  0
    5.7724   -3.3285    0.0000 N    0  5  0  0  0  0  0  0  0  0  0  0
    4.6180   -2.6538    0.0000 C    0  0  0  0  0  0  0  0  0  0  0  0
    4.6180   -1.3344    0.0000 O    0  0  0  0  0  0  0  0  0  0  0  0
    2.3090   -5.3226    0.0000 C    0  0  0  0  0  0  0  0  0  0  0  0
    1.1545   -4.6629    0.0000 C    0  0  0  0  0  0  0  0  0  0  0  0
    1.1545   -3.3285    0.0000 C    0  0  0  0  0  0  0  0  0  0  0  0
    2.3090   -2.6538    0.0000 C    0  0  0  0  0  0  0  0  0  0  0  0
    3.4635   -3.3285    0.0000 C    0  0  0  0  0  0  0  0  0  0  0  0
    3.4635   -4.6629    0.0000 C    0  0  0  0  0  0  0  0  0  0  0  0
    4.6180   -5.3226    0.0000 Cl   0  0  0  0  0  0  0  0  0  0  0  0
    0.0000   -5.3226    0.0000 C    0  0  0  0  0  0  0  0  0  0  0  0
    6.9269   -2.6538    0.0000 S    0  0  0  0  0  0  0  0  0  0  0  0
    7.5866   -3.8083    0.0000 O    0  0  0  0  0  0  0  0  0  0  0  0
    6.2522   -1.5293    0.0000 O    0  0  0  0  0  0  0  0  0  0  0  0
    8.0814   -2.0091    0.0000 C    0  0  0  0  0  0  0  0  0  0  0  0
    9.2359   -2.6538    0.0000 C    0  0  0  0  0  0  0  0  0  0  0  0
   11.5299    0.0000    0.0000 C    0  0  0  0  0  0  0  0  0  0  0  0
   12.6844   -0.6747    0.0000 C    0  0  0  0  0  0  0  0  0  0  0  0
   12.6844   -2.0091    0.0000 C    0  0  0  0  0  0  0  0  0  0  0  0
   11.5299   -2.6538    0.0000 C    0  0  0  0  0  0  0  0  0  0  0  0
   10.3754   -2.0091    0.0000 C    0  0  0  0  0  0  0  0  0  0  0  0
   10.3754   -0.6747    0.0000 C    0  0  0  0  0  0  0  0  0  0  0  0
   13.8389    0.0000    0.0000 O    0  0  0  0  0  0  0  0  0  0  0  0
   14.9934   -0.6747    0.0000 C    0  0  0  0  0  0  0  0  0  0  0  0
  2  3  1  0  0  0  0
  2 13  1  0  0  0  0
  3  4  2  0  0  0  0
  3  9  1  0  0  0  0
  5 10  2  0  0  0  0
  5  6  1  0  0  0  0
  6  7  2  0  0  0  0
  6 12  1  0  0  0  0
  7  8  1  0  0  0  0
  8  9  2  0  0  0  0
  9 10  1  0  0  0  0
 10 11  1  0  0  0  0
 13 14  2  0  0  0  0
 13 15  2  0  0  0  0
 13 16  1  0  0  0  0
 16 17  2  0  0  0  0
 17 22  1  0  0  0  0
 18 23  2  0  0  0  0
 18 19  1  0  0  0  0
 19 20  2  0  0  0  0
 19 24  1  0  0  0  0
 20 21  1  0  0  0  0
 21 22  2  0  0  0  0
 22 23  1  0  0  0  0
 24 25  1  0  0  0  0
M  END
> <ID>
13562

> <Formula>
C17H15ClNNaO4S

> <FW>
387.8131 (22.9892+364.8238)

> <DSSTox_CID>
28488

> <DSSTox_RID>
82765

> <DSSTox_GSID>
48514

> <DSSTox_FileID_Sort>
7442

> <TS_ChemName>
PharmaGSID_48514

> <TS_ChemName_Synonyms>
Sodium (2-chloro-4-methylbenzoyl){[(E)-2-(4-methoxyphenyl)ethenyl]sulfonyl}azanide

> <TS_CASRN>
NOCAS_48514

> <CASRN_ChemName_Relationship>
no CAS assigned

> <TS_Description>
single chemical compound

> <ChemNote>
stereochem

> <STRUCTURE_Shown>
tested chemical

> <STRUCTURE_Formula>
C17H15ClNNaO4S

> <STRUCTURE_MW>
387.8131

> <STRUCTURE_ChemType>
defined organic

> <STRUCTURE_DefinedOrganicForm>
salt

> <STRUCTURE_IUPAC>
sodium (2-chloro-4-methylbenzoyl){[(E)-2-(4-methoxyphenyl)ethenyl]sulfonyl}azanide

> <STRUCTURE_SMILES>
[Na+].O=C([N-]S(=O)(=O)/C=C/c1ccc(OC)cc1)c2ccc(C)cc2Cl

> <STRUCTURE_SMILES_Desalt>
O=C(NS(=O)(=O)/C=C/c1ccc(OC)cc1)c2ccc(C)cc2Cl

> <Substance_modify_yyyymmdd>
20130910

$$$$
