NOCAS_47374
ChemmineR-0915142007XD

 31 34  0  0  0  0  0  0  0  0  1 V2000
    8.1154   -5.9476    0.0000 C   0  0  0  0  0  0  0  0  0  0  0  0
    8.1154   -7.2817    0.0000 C   0  0  0  0  0  0  0  0  0  0  0  0
    6.9620   -5.2667    0.0000 N   0  0  0  0  0  0  0  0  0  0  0  0
    6.9620   -7.9209    0.0000 C   0  0  0  0  0  0  0  0  0  0  0  0
    5.7948   -5.9476    0.0000 C   0  0  0  0  0  0  0  0  0  0  0  0
    5.7948   -7.2817    0.0000 C   0  0  0  0  0  0  0  0  0  0  0  0
    9.2688   -5.2667    0.0000 C   0  0  0  0  0  0  0  0  0  0  0  0
   10.4083   -5.9476    0.0000 C   0  0  0  0  0  0  0  0  0  0  0  0
    9.2688   -7.9209    0.0000 C   0  0  0  0  0  0  0  0  0  0  0  0
   10.4083   -7.2817    0.0000 C   0  0  0  0  0  0  0  0  0  0  0  0
    4.6553   -7.9209    0.0000 C   0  0  0  0  0  0  0  0  0  0  0  0
    3.5019   -7.2678    0.0000 N   0  0  0  0  0  0  0  0  0  0  0  0
    6.9620   -9.2549    0.0000 N   0  0  0  0  0  0  0  0  0  0  0  0
    5.7948   -9.9081    0.0000 C   0  0  0  0  0  0  0  0  0  0  0  0
    5.7948  -11.2421    0.0000 C   0  0  0  0  0  0  0  0  0  0  0  0
    4.6553   -5.2667    0.0000 N   0  0  0  0  0  0  0  0  0  0  0  0
    4.6553   -3.9327    0.0000 C   0  0  0  0  0  0  0  0  0  0  0  0
    3.5019   -3.2795    0.0000 C   0  0  0  0  0  0  0  0  0  0  0  0
    5.7948   -3.2795    0.0000 O   0  0  0  0  0  0  0  0  0  0  0  0
    2.3068   -1.3063    0.0000 C   0  0  0  0  0  0  0  0  0  0  0  0
    3.4880   -1.9455    0.0000 C   0  0  0  0  0  0  0  0  0  0  0  0
    1.1673   -1.9872    0.0000 C   0  0  0  0  0  0  0  0  0  0  0  0
    1.1951   -3.3073    0.0000 C   0  0  0  0  0  0  0  0  0  0  0  0
    2.3485   -3.9743    0.0000 C   0  0  0  0  0  0  0  0  0  0  0  0
    0.0139   -1.3340    0.0000 O   0  0  0  0  0  0  0  0  0  0  0  0
    0.0000    0.0000    0.0000 C   0  0  0  0  0  0  0  0  0  0  0  0
    6.9620  -11.9091    0.0000 C   0  0  0  0  0  0  0  0  0  0  0  0
    6.9620  -13.2432    0.0000 C   0  0  0  0  0  0  0  0  0  0  0  0
    5.7948  -13.8963    0.0000 C   0  0  0  0  0  0  0  0  0  0  0  0
    4.6553  -11.9091    0.0000 C   0  0  0  0  0  0  0  0  0  0  0  0
    4.6553  -13.2432    0.0000 C   0  0  0  0  0  0  0  0  0  0  0  0
  1  3  2  0  0  0  0
  1  7  1  0  0  0  0
  1  2  1  0  0  0  0
  2  4  2  0  0  0  0
  2  9  1  0  0  0  0
  3  5  1  0  0  0  0
  4  6  1  0  0  0  0
  4 13  1  0  0  0  0
  5  6  2  0  0  0  0
  5 16  1  0  0  0  0
  6 11  1  0  0  0  0
  7  8  2  0  0  0  0
  8 10  1  0  0  0  0
  9 10  2  0  0  0  0
 11 12  3  0  0  0  0
 13 14  1  0  0  0  0
 14 15  1  0  0  0  0
 15 27  2  0  0  0  0
 15 30  1  0  0  0  0
 16 17  1  0  0  0  0
 17 18  1  0  0  0  0
 17 19  2  0  0  0  0
 18 21  2  0  0  0  0
 18 24  1  0  0  0  0
 20 21  1  0  0  0  0
 20 22  2  0  0  0  0
 22 23  1  0  0  0  0
 22 25  1  0  0  0  0
 23 24  2  0  0  0  0
 25 26  1  0  0  0  0
 27 28  1  0  0  0  0
 28 29  2  0  0  0  0
 29 31  1  0  0  0  0
 30 31  2  0  0  0  0
M  END
> <ID>
12516

> <Formula>
C25H20N4O2

> <FW>
408.4519

> <DSSTox_CID>
27374

> <DSSTox_RID>
82305

> <DSSTox_GSID>
47374

> <DSSTox_FileID_Sort>
6986

> <TS_ChemName>
SSR161421

> <TS_ChemName_Synonyms>


> <TS_CASRN>
NOCAS_47374

> <CASRN_ChemName_Relationship>
no CAS assigned

> <TS_Description>
single chemical compound

> <ChemNote>


> <STRUCTURE_Shown>
tested chemical

> <STRUCTURE_Formula>
C25H20N4O2

> <STRUCTURE_MW>
408.4519

> <STRUCTURE_ChemType>
defined organic

> <STRUCTURE_DefinedOrganicForm>
parent

> <STRUCTURE_IUPAC>
N-[4-(benzylamino)-3-cyanoquinolin-2-yl]-4-methoxybenzamide

> <STRUCTURE_SMILES>
COc1ccc(cc1)C(=O)Nc3nc4ccccc4c(NCc2ccccc2)c3C#N

> <STRUCTURE_SMILES_Desalt>
COc1ccc(cc1)C(=O)Nc3nc4ccccc4c(NCc2ccccc2)c3C#N

> <Substance_modify_yyyymmdd>
20130910

$$$$
