NOCAS_49389
ChemmineR-0915142007XD

 18 17  0  0  0  0  0  0  0  0  2 V2000
    5.9930   -6.9119    0.0000 C   0  0  0  0  0  0  0  0  0  0  0  0
    7.9906   -3.4519    0.0000 C   0  0  0  0  0  0  0  0  0  0  0  0
    5.3297   -5.7612    0.0000 C   0  0  0  0  0  0  0  0  0  0  0  0
    5.9930   -4.6026    0.0000 C   0  0  0  0  0  0  0  0  0  0  0  0
    7.3274    0.0000    0.0000 C   0  0  0  0  0  0  0  0  0  0  0  0
    5.9930    0.0000    0.0000 C   0  0  0  0  0  0  0  0  0  0  0  0
    7.9906   -1.1506    0.0000 C   0  0  0  0  0  0  0  0  0  0  0  0
    5.3297   -3.4519    0.0000 C   0  0  0  0  0  0  0  0  0  0  0  0
    5.3297   -1.1506    0.0000 C   0  0  0  0  0  0  0  0  0  0  0  0
    7.3274   -2.3013    0.0000 C   0  0  0  0  0  0  0  0  0  0  0  0
    5.9930   -2.3013    0.0000 N   0  3  0  0  0  0  0  0  0  0  0  0
    0.0000   -1.1506    0.0000 F   0  0  0  0  0  0  0  0  0  0  0  0
    0.6632   -2.3013    0.0000 F   0  0  0  0  0  0  0  0  0  0  0  0
    1.9977   -2.3013    0.0000 F   0  0  0  0  0  0  0  0  0  0  0  0
    1.9977    0.0000    0.0000 F   0  0  0  0  0  0  0  0  0  0  0  0
    0.6632    0.0000    0.0000 F   0  0  0  0  0  0  0  0  0  0  0  0
    2.6609   -1.1506    0.0000 F   0  0  0  0  0  0  0  0  0  0  0  0
    1.3344   -1.1506    0.0000 P   0  5  0  0  0  0  0  0  0  0  0  0
  1  3  1  0  0  0  0
  2 10  1  0  0  0  0
  3  4  1  0  0  0  0
  4  8  1  0  0  0  0
  5  6  2  0  0  0  0
  5  7  1  0  0  0  0
  6  9  1  0  0  0  0
  7 10  2  0  0  0  0
  8 11  1  0  0  0  0
  9 11  2  0  0  0  0
 10 11  1  0  0  0  0
 12 18  1  0  0  0  0
 13 18  1  0  0  0  0
 14 18  1  0  0  0  0
 15 18  1  0  0  0  0
 16 18  1  0  0  0  0
 17 18  1  0  0  0  0
M  END
> <ID>
14253

> <Formula>
C10H16F6NP

> <FW>
295.2049 (150.2402+144.9647)

> <DSSTox_CID>
29348

> <DSSTox_RID>
83464

> <DSSTox_GSID>
49389

> <DSSTox_FileID_Sort>
8139

> <TS_ChemName>
1-Butyl-2-methylpyridinium hexafluorophosphate

> <TS_ChemName_Synonyms>


> <TS_CASRN>
NOCAS_49389

> <CASRN_ChemName_Relationship>
no CAS assigned

> <TS_Description>
single chemical compound

> <ChemNote>


> <STRUCTURE_Shown>
tested chemical

> <STRUCTURE_Formula>
C10H16F6NP

> <STRUCTURE_MW>
295.2049

> <STRUCTURE_ChemType>
defined organic

> <STRUCTURE_DefinedOrganicForm>
complex

> <STRUCTURE_IUPAC>
1-butyl-2-methylpyridinium hexafluorophosphate

> <STRUCTURE_SMILES>
Cc1cccc[n+]1CCCC.F[P-](F)(F)(F)(F)F

> <STRUCTURE_SMILES_Desalt>
Cc1cccc[n+]1CCCC

> <Substance_modify_yyyymmdd>
20111204

$$$$
