NOCAS_49386
ChemmineR-0915142007XD

 17 16  0  0  0  0  0  0  0  0  2 V2000
    7.6333   -5.6254    0.0000 C   0  0  0  0  0  0  0  0  0  0  0  0
    5.3289   -2.9652    0.0000 C   0  0  0  0  0  0  0  0  0  0  0  0
    7.6333   -4.2953    0.0000 C   0  0  0  0  0  0  0  0  0  0  0  0
    7.8112    0.0000    0.0000 C   0  0  0  0  0  0  0  0  0  0  0  0
    6.4811    0.0000    0.0000 C   0  0  0  0  0  0  0  0  0  0  0  0
    8.4720   -1.1522    0.0000 C   0  0  0  0  0  0  0  0  0  0  0  0
    6.4811   -3.6345    0.0000 C   0  0  0  0  0  0  0  0  0  0  0  0
    5.8118   -1.1522    0.0000 C   0  0  0  0  0  0  0  0  0  0  0  0
    7.8112   -2.3044    0.0000 C   0  0  0  0  0  0  0  0  0  0  0  0
    6.4811   -2.3044    0.0000 N   0  3  0  0  0  0  0  0  0  0  0  0
    0.0000   -1.1522    0.0000 F   0  0  0  0  0  0  0  0  0  0  0  0
    0.6608   -2.3044    0.0000 F   0  0  0  0  0  0  0  0  0  0  0  0
    1.9909   -2.3044    0.0000 F   0  0  0  0  0  0  0  0  0  0  0  0
    1.9909    0.0000    0.0000 F   0  0  0  0  0  0  0  0  0  0  0  0
    0.6608    0.0000    0.0000 F   0  0  0  0  0  0  0  0  0  0  0  0
    2.6602   -1.1522    0.0000 F   0  0  0  0  0  0  0  0  0  0  0  0
    1.3301   -1.1522    0.0000 P   0  5  0  0  0  0  0  0  0  0  0  0
  1  3  1  0  0  0  0
  2 10  1  0  0  0  0
  3  7  1  0  0  0  0
  4  5  1  0  0  0  0
  4  6  1  0  0  0  0
  5  8  1  0  0  0  0
  6  9  1  0  0  0  0
  7 10  1  0  0  0  0
  8 10  1  0  0  0  0
  9 10  1  0  0  0  0
 11 17  1  0  0  0  0
 12 17  1  0  0  0  0
 13 17  1  0  0  0  0
 14 17  1  0  0  0  0
 15 17  1  0  0  0  0
 16 17  1  0  0  0  0
M  END
> <ID>
14250

> <Formula>
C9H20F6NP

> <FW>
287.2260 (142.2613+144.9647)

> <DSSTox_CID>
29345

> <DSSTox_RID>
83461

> <DSSTox_GSID>
49386

> <DSSTox_FileID_Sort>
8136

> <TS_ChemName>
1-Methyl-1-propylpiperidinium hexafluorophosphate

> <TS_ChemName_Synonyms>


> <TS_CASRN>
NOCAS_49386

> <CASRN_ChemName_Relationship>
no CAS assigned

> <TS_Description>
single chemical compound

> <ChemNote>


> <STRUCTURE_Shown>
tested chemical

> <STRUCTURE_Formula>
C9H20F6NP

> <STRUCTURE_MW>
287.226

> <STRUCTURE_ChemType>
defined organic

> <STRUCTURE_DefinedOrganicForm>
complex

> <STRUCTURE_IUPAC>
1-methyl-1-propylpiperidinium hexafluorophosphate

> <STRUCTURE_SMILES>
CCC[N+]1(C)CCCCC1.F[P-](F)(F)(F)(F)F

> <STRUCTURE_SMILES_Desalt>
CCC[N+]1(C)CCCCC1

> <Substance_modify_yyyymmdd>
20111204

$$$$
