NOCAS_48516
ChemmineR-0915142007XD

 23 23  0  0  0  0  0  0  0  0  2 V2000
    5.7640   -4.4592    0.0000 Na   0  3  0  0  0  0  0  0  0  0  0  0
    5.7514   -3.3317    0.0000 N    0  5  0  0  0  0  0  0  0  0  0  0
    4.6112   -2.6603    0.0000 C    0  0  0  0  0  0  0  0  0  0  0  0
    4.6112   -1.3302    0.0000 O    0  0  0  0  0  0  0  0  0  0  0  0
    2.3056   -5.3207    0.0000 C    0  0  0  0  0  0  0  0  0  0  0  0
    1.1528   -4.6619    0.0000 C    0  0  0  0  0  0  0  0  0  0  0  0
    1.1528   -3.3317    0.0000 C    0  0  0  0  0  0  0  0  0  0  0  0
    2.3056   -2.6603    0.0000 C    0  0  0  0  0  0  0  0  0  0  0  0
    3.4584   -3.3317    0.0000 C    0  0  0  0  0  0  0  0  0  0  0  0
    3.4584   -4.6619    0.0000 C    0  0  0  0  0  0  0  0  0  0  0  0
    4.6112   -5.3207    0.0000 Cl   0  0  0  0  0  0  0  0  0  0  0  0
    0.0000   -5.3207    0.0000 F    0  0  0  0  0  0  0  0  0  0  0  0
    6.9042   -2.6603    0.0000 S    0  0  0  0  0  0  0  0  0  0  0  0
    7.5756   -3.8131    0.0000 O    0  0  0  0  0  0  0  0  0  0  0  0
    6.2454   -1.5075    0.0000 O    0  0  0  0  0  0  0  0  0  0  0  0
    8.0570   -2.0016    0.0000 C    0  0  0  0  0  0  0  0  0  0  0  0
    9.2098   -2.6603    0.0000 C    0  0  0  0  0  0  0  0  0  0  0  0
   11.5154    0.0000    0.0000 C    0  0  0  0  0  0  0  0  0  0  0  0
   12.6682   -0.6714    0.0000 C    0  0  0  0  0  0  0  0  0  0  0  0
   12.6682   -2.0016    0.0000 C    0  0  0  0  0  0  0  0  0  0  0  0
   11.5154   -2.6603    0.0000 C    0  0  0  0  0  0  0  0  0  0  0  0
   10.3626   -2.0016    0.0000 C    0  0  0  0  0  0  0  0  0  0  0  0
   10.3626   -0.6714    0.0000 C    0  0  0  0  0  0  0  0  0  0  0  0
  2  3  1  0  0  0  0
  2 13  1  0  0  0  0
  3  4  2  0  0  0  0
  3  9  1  0  0  0  0
  5 10  2  0  0  0  0
  5  6  1  0  0  0  0
  6  7  2  0  0  0  0
  6 12  1  0  0  0  0
  7  8  1  0  0  0  0
  8  9  2  0  0  0  0
  9 10  1  0  0  0  0
 10 11  1  0  0  0  0
 13 14  2  0  0  0  0
 13 15  2  0  0  0  0
 13 16  1  0  0  0  0
 16 17  2  0  0  0  0
 17 22  1  0  0  0  0
 18 23  2  0  0  0  0
 18 19  1  0  0  0  0
 19 20  2  0  0  0  0
 20 21  1  0  0  0  0
 21 22  2  0  0  0  0
 22 23  1  0  0  0  0
M  END
> <ID>
13564

> <Formula>
C15H10ClFNNaO3S

> <FW>
361.7510 (22.9892+338.7618)

> <DSSTox_CID>
28490

> <DSSTox_RID>
82766

> <DSSTox_GSID>
48516

> <DSSTox_FileID_Sort>
7443

> <TS_ChemName>
PharmaGSID_48516

> <TS_ChemName_Synonyms>
Sodium (2-chloro-4-fluorobenzoyl){[(E)-2-phenylethenyl]sulfonyl}azanide

> <TS_CASRN>
NOCAS_48516

> <CASRN_ChemName_Relationship>
no CAS assigned

> <TS_Description>
single chemical compound

> <ChemNote>
stereochem

> <STRUCTURE_Shown>
tested chemical

> <STRUCTURE_Formula>
C15H10ClFNNaO3S

> <STRUCTURE_MW>
361.751

> <STRUCTURE_ChemType>
defined organic

> <STRUCTURE_DefinedOrganicForm>
salt

> <STRUCTURE_IUPAC>
sodium (2-chloro-4-fluorobenzoyl){[(E)-2-phenylethenyl]sulfonyl}azanide

> <STRUCTURE_SMILES>
[Na+].O=C([N-]S(=O)(=O)/C=C/c1ccccc1)c2ccc(F)cc2Cl

> <STRUCTURE_SMILES_Desalt>
O=C(NS(=O)(=O)/C=C/c1ccccc1)c2ccc(F)cc2Cl

> <Substance_modify_yyyymmdd>
20130910

$$$$
