NOCAS_47362
ChemmineR-0915142007XD

 21 23  0  0  1  0  0  0  0  0  1 V2000
    2.3410   -3.1776    0.0000 C   0  0  0  0  0  0  0  0  0  0  0  0
    2.3410   -4.5352    0.0000 C   0  0  0  0  0  0  0  0  0  0  0  0
    1.1815   -2.4878    0.0000 C   0  0  0  0  0  0  0  0  0  0  0  0
    1.1815   -5.2103    0.0000 C   0  0  0  0  0  0  0  0  0  0  0  0
    0.0000   -3.1776    0.0000 C   0  0  0  0  0  0  0  0  0  0  0  0
    0.0000   -4.5352    0.0000 C   0  0  0  0  0  0  0  0  0  0  0  0
    3.6399   -2.7519    0.0000 C   0  0  0  0  0  0  0  0  0  0  0  0
    4.4398   -3.8527    0.0000 C   0  0  0  0  0  0  0  0  0  0  0  0
    3.6399   -4.9462    0.0000 O   0  0  0  0  0  0  0  0  0  0  0  0
    5.1957   -4.9829    0.0000 C   0  0  0  0  0  0  0  0  0  0  0  0
    5.7828   -3.5885    0.0000 C   0  0  0  0  0  0  0  0  0  0  0  0
    6.5533   -4.8948    0.0000 C   0  0  0  0  0  0  0  0  0  0  0  0
    7.3092   -6.0469    0.0000 C   0  0  0  0  0  0  0  0  0  0  0  0
    6.6854   -7.2578    0.0000 C   0  0  0  0  0  0  0  0  0  0  0  0
    4.5866   -6.2084    0.0000 C   0  0  0  0  0  0  0  0  0  0  0  0
    5.3424   -7.3385    0.0000 C   0  0  0  0  0  0  0  0  0  0  0  0
    4.0655   -1.4604    0.0000 N   0  0  0  0  0  0  0  0  0  0  0  0
    6.2231   -2.3116    0.0000 O   0  0  0  0  0  0  0  0  0  0  0  0
    5.3204   -1.2769    0.0000 C   0  0  0  0  0  0  0  0  0  0  0  0
    6.2231   -4.0949    0.0000 O   0  0  0  0  0  0  0  0  0  0  0  0
    5.7681    0.0000    0.0000 C   0  0  0  0  0  0  0  0  0  0  0  0
  1  3  2  0  0  0  0
  1  7  1  0  0  0  0
  1  2  1  0  0  0  0
  2  4  2  0  0  0  0
  2  9  1  0  0  0  0
  3  5  1  0  0  0  0
  4  6  1  0  0  0  0
  5  6  2  0  0  0  0
  7  8  1  0  0  0  0
  7 17  1  6  0  0  0
  8  9  1  0  0  0  0
  8 10  1  0  0  0  0
  8 11  1  6  0  0  0
 10 12  2  0  0  0  0
 10 15  1  0  0  0  0
 11 18  1  0  0  0  0
 11 20  2  0  0  0  0
 12 13  1  0  0  0  0
 13 14  2  0  0  0  0
 14 16  1  0  0  0  0
 15 16  2  0  0  0  0
 18 19  1  0  0  0  0
 19 21  1  0  0  0  0
M  END
> <ID>
12504

> <Formula>
C17H17NO3

> <FW>
283.3218

> <DSSTox_CID>
27362

> <DSSTox_RID>
82297

> <DSSTox_GSID>
47362

> <DSSTox_FileID_Sort>
6978

> <TS_ChemName>
SSR150106

> <TS_ChemName_Synonyms>
SAR150106

> <TS_CASRN>
NOCAS_47362

> <CASRN_ChemName_Relationship>
no CAS assigned

> <TS_Description>
single chemical compound

> <ChemNote>


> <STRUCTURE_Shown>
tested chemical

> <STRUCTURE_Formula>
C17H17NO3

> <STRUCTURE_MW>
283.3218

> <STRUCTURE_ChemType>
defined organic

> <STRUCTURE_DefinedOrganicForm>
parent

> <STRUCTURE_IUPAC>
ethyl (2R,3S)-3-amino-2-phenyl-2,3-dihydro-1-benzofuran-2-carboxylate

> <STRUCTURE_SMILES>
O=C(OCC)[C@@]2(Oc1ccccc1[C@@H]2N)c3ccccc3

> <STRUCTURE_SMILES_Desalt>
O=C(OCC)[C@@]2(Oc1ccccc1[C@@H]2N)c3ccccc3

> <Substance_modify_yyyymmdd>
20130910

$$$$
