NOCAS_47364
ChemmineR-0915142007XD

 31 33  0  0  1  0  0  0  0  0  1 V2000
   10.0366   -3.6823    0.0000 Cl   0  0  0  0  0  0  0  0  0  0  0  0
    8.7440   -1.3686    0.0000 N    0  0  0  0  0  0  0  0  0  0  0  0
    9.9389   -2.0638    0.0000 C    0  0  0  0  0  0  0  0  0  0  0  0
    8.7440    0.0000    0.0000 C    0  0  0  0  0  0  0  0  0  0  0  0
    7.5492   -2.0638    0.0000 C    0  0  0  0  0  0  0  0  0  0  0  0
    9.1785   -2.1507    0.0000 C    0  0  0  0  0  0  0  0  0  0  0  0
   10.3625   -2.8459    0.0000 C    0  0  0  0  0  0  0  0  0  0  0  0
    9.1785   -0.7712    0.0000 C    0  0  0  0  0  0  0  0  0  0  0  0
    7.9837   -2.8459    0.0000 C    0  0  0  0  0  0  0  0  0  0  0  0
    7.6144   -4.1711    0.0000 C    0  0  0  0  0  0  0  0  0  0  0  0
    8.5811   -5.1487    0.0000 C    0  0  0  0  0  0  0  0  0  0  0  0
    9.9063   -4.8119    0.0000 C    0  0  0  0  0  0  0  0  0  0  0  0
    8.2118   -6.4739    0.0000 C    0  0  0  0  0  0  0  0  0  0  0  0
   10.8622   -5.7895    0.0000 C    0  0  0  0  0  0  0  0  0  0  0  0
    9.1785   -7.4406    0.0000 C    0  0  0  0  0  0  0  0  0  0  0  0
   10.4929   -7.1147    0.0000 C    0  0  0  0  0  0  0  0  0  0  0  0
    6.2783   -4.5187    0.0000 N    0  0  0  0  0  0  0  0  0  0  0  0
    5.9090   -5.8438    0.0000 C    0  0  0  0  0  0  0  0  0  0  0  0
    6.8758   -6.8214    0.0000 O    0  0  0  0  0  0  0  0  0  0  0  0
    4.5838   -6.1697    0.0000 C    0  0  0  0  0  0  0  0  0  0  0  0
    4.2037   -7.4949    0.0000 C    0  0  0  0  0  0  0  0  0  0  0  0
    3.6280   -5.1921    0.0000 C    0  0  0  0  0  0  0  0  0  0  0  0
    2.8785   -7.8425    0.0000 C    0  0  0  0  0  0  0  0  0  0  0  0
    2.2811   -5.5288    0.0000 C    0  0  0  0  0  0  0  0  0  0  0  0
    1.9226   -6.8540    0.0000 C    0  0  0  0  0  0  0  0  0  0  0  0
    3.9864   -3.8669    0.0000 Cl   0  0  0  0  0  0  0  0  0  0  0  0
    5.1813   -8.4725    0.0000 Cl   0  0  0  0  0  0  0  0  0  0  0  0
    1.3252   -4.5512    0.0000 C    0  0  0  0  0  0  0  0  0  0  0  0
    1.7054   -3.2261    0.0000 F    0  0  0  0  0  0  0  0  0  0  0  0
    0.0000   -4.8988    0.0000 F    0  0  0  0  0  0  0  0  0  0  0  0
    0.9559   -5.8764    0.0000 F    0  0  0  0  0  0  0  0  0  0  0  0
  2  3  1  0  0  0  0
  2  4  1  0  0  0  0
  2  5  1  0  0  0  0
  3  7  1  0  0  0  0
  4  8  1  0  0  0  0
  5  9  1  0  0  0  0
  6  7  1  0  0  0  0
  6  8  1  0  0  0  0
  9  6  1  6  0  0  0
  9 10  1  0  0  0  0
 10 11  1  0  0  0  0
 10 17  1  1  0  0  0
 11 12  1  0  0  0  0
 11 13  2  0  0  0  0
 12 14  2  0  0  0  0
 13 15  1  0  0  0  0
 14 16  1  0  0  0  0
 15 16  2  0  0  0  0
 17 18  1  0  0  0  0
 18 19  2  0  0  0  0
 18 20  1  0  0  0  0
 20 21  1  0  0  0  0
 20 22  2  0  0  0  0
 21 23  2  0  0  0  0
 21 27  1  0  0  0  0
 22 24  1  0  0  0  0
 22 26  1  0  0  0  0
 23 25  1  0  0  0  0
 24 25  2  0  0  0  0
 24 28  1  0  0  0  0
 28 29  1  0  0  0  0
 28 30  1  0  0  0  0
 28 31  1  0  0  0  0
M  END
> <ID>
12506

> <Formula>
C22H22Cl3F3N2O

> <FW>
493.7771 (36.4609+457.3161)

> <DSSTox_CID>
27364

> <DSSTox_RID>
82299

> <DSSTox_GSID>
47364

> <DSSTox_FileID_Sort>
6980

> <TS_ChemName>
SSR103800

> <TS_ChemName_Synonyms>
SSR103800A

> <TS_CASRN>
NOCAS_47364

> <CASRN_ChemName_Relationship>
no CAS assigned

> <TS_Description>
single chemical compound

> <ChemNote>
stereochem

> <STRUCTURE_Shown>
tested chemical

> <STRUCTURE_Formula>
C22H22Cl3F3N2O

> <STRUCTURE_MW>
493.7771

> <STRUCTURE_ChemType>
defined organic

> <STRUCTURE_DefinedOrganicForm>
complex

> <STRUCTURE_IUPAC>
N-[(S)-(3S)-1-azabicyclo[2.2.2]oct-3-yl(phenyl)methyl]-2,6-dichloro-3-(trifluoromethyl)benzamide hydrochloride (1:1)

> <STRUCTURE_SMILES>
Cl.FC(F)(F)c1ccc(Cl)c(c1Cl)C(=O)N[C@@H]([C@@H]3CN2CCC3CC2)c4ccccc4

> <STRUCTURE_SMILES_Desalt>
FC(F)(F)c1ccc(Cl)c(c1Cl)C(=O)N[C@@H]([C@@H]3CN2CCC3CC2)c4ccccc4

> <Substance_modify_yyyymmdd>
20130910

$$$$
