NOCAS_48172
ChemmineR-0915142007XD

 39 42  0  0  0  0  0  0  0  0  1 V2000
    2.6153   -1.9105    0.0000 C   0  0  0  0  0  0  0  0  0  0  0  0
    2.1702   -3.1903    0.0000 C   0  0  0  0  0  0  0  0  0  0  0  0
    4.3218   -3.2089    0.0000 N   0  0  0  0  0  0  0  0  0  0  0  0
    3.9323   -1.9290    0.0000 C   0  0  0  0  0  0  0  0  0  0  0  0
    3.2274   -3.9694    0.0000 C   0  0  0  0  0  0  0  0  0  0  0  0
    1.7250   -0.9274    0.0000 C   0  0  0  0  0  0  0  0  0  0  0  0
    0.8718   -3.4315    0.0000 C   0  0  0  0  0  0  0  0  0  0  0  0
    0.0000   -2.4484    0.0000 C   0  0  0  0  0  0  0  0  0  0  0  0
    0.4266   -1.1871    0.0000 C   0  0  0  0  0  0  0  0  0  0  0  0
    3.2274   -5.3049    0.0000 O   0  0  0  0  0  0  0  0  0  0  0  0
    4.7484   -0.8718    0.0000 O   0  0  0  0  0  0  0  0  0  0  0  0
    5.5831   -3.6540    0.0000 C   0  0  0  0  0  0  0  0  0  0  0  0
    6.5847   -2.7637    0.0000 C   0  0  0  0  0  0  0  0  0  0  0  0
    9.5525   -4.4702    0.0000 O   0  0  0  0  0  0  0  0  0  0  0  0
    8.2355   -4.4702    0.0000 N   0  0  0  0  0  0  0  0  0  0  0  0
    7.8460   -3.1903    0.0000 C   0  0  0  0  0  0  0  0  0  0  0  0
    8.9404   -2.4298    0.0000 N   0  0  0  0  0  0  0  0  0  0  0  0
    9.9791   -3.2089    0.0000 C   0  0  0  0  0  0  0  0  0  0  0  0
   12.3162   -3.6169    0.0000 S   0  0  0  0  0  0  0  0  0  0  0  0
   13.4105   -2.8565    0.0000 C   0  0  0  0  0  0  0  0  0  0  0  0
   11.2589   -2.8379    0.0000 C   0  0  0  0  0  0  0  0  0  0  0  0
   11.6855   -1.5766    0.0000 C   0  0  0  0  0  0  0  0  0  0  0  0
   13.0025   -1.5952    0.0000 C   0  0  0  0  0  0  0  0  0  0  0  0
   14.6718   -3.3016    0.0000 C   0  0  0  0  0  0  0  0  0  0  0  0
   15.6734   -2.4298    0.0000 N   0  0  0  0  0  0  0  0  0  0  0  0
   16.8791   -2.9492    0.0000 C   0  0  0  0  0  0  0  0  0  0  0  0
   18.0476   -2.3186    0.0000 C   0  0  0  0  0  0  0  0  0  0  0  0
   18.2888   -1.0016    0.0000 C   0  0  0  0  0  0  0  0  0  0  0  0
   17.4170    0.0000    0.0000 C   0  0  0  0  0  0  0  0  0  0  0  0
   16.0815   -0.0556    0.0000 C   0  0  0  0  0  0  0  0  0  0  0  0
   15.3210   -1.1500    0.0000 C   0  0  0  0  0  0  0  0  0  0  0  0
   13.8557   -6.3065    0.0000 C   0  0  0  0  0  0  0  0  0  0  0  0
   15.0799   -7.0113    0.0000 C   0  0  0  0  0  0  0  0  0  0  0  0
   16.2113   -6.3065    0.0000 C   0  0  0  0  0  0  0  0  0  0  0  0
   17.3428   -7.0113    0.0000 C   0  0  0  0  0  0  0  0  0  0  0  0
   13.8557   -5.0266    0.0000 O   0  0  0  0  0  0  0  0  0  0  0  0
   12.7242   -7.0113    0.0000 O   0  0  0  0  0  0  0  0  0  0  0  0
   17.3428   -8.2912    0.0000 O   0  0  0  0  0  0  0  0  0  0  0  0
   18.5485   -6.3065    0.0000 O   0  0  0  0  0  0  0  0  0  0  0  0
  1  2  2  0  0  0  0
  1  4  1  0  0  0  0
  1  6  1  0  0  0  0
  2  5  1  0  0  0  0
  2  7  1  0  0  0  0
  3  4  1  0  0  0  0
  3  5  1  0  0  0  0
  3 12  1  0  0  0  0
  4 11  2  0  0  0  0
  5 10  2  0  0  0  0
  6  9  2  0  0  0  0
  7  8  2  0  0  0  0
  8  9  1  0  0  0  0
 12 13  1  0  0  0  0
 13 16  1  0  0  0  0
 14 15  1  0  0  0  0
 14 18  1  0  0  0  0
 15 16  2  0  0  0  0
 16 17  1  0  0  0  0
 17 18  2  0  0  0  0
 18 21  1  0  0  0  0
 19 20  1  0  0  0  0
 19 21  1  0  0  0  0
 20 23  2  0  0  0  0
 20 24  1  0  0  0  0
 21 22  2  0  0  0  0
 22 23  1  0  0  0  0
 24 25  1  0  0  0  0
 25 26  1  0  0  0  0
 25 31  1  0  0  0  0
 26 27  1  0  0  0  0
 27 28  1  0  0  0  0
 28 29  1  0  0  0  0
 29 30  1  0  0  0  0
 30 31  1  0  0  0  0
 32 33  1  0  0  0  0
 32 37  1  0  0  0  0
 32 36  2  0  0  0  0
 33 34  2  0  0  0  0
 34 35  1  0  0  0  0
 35 39  1  0  0  0  0
 35 38  2  0  0  0  0
M  END
> <ID>
13233

> <Formula>
C27H28N4O7S

> <FW>
552.5988 (436.5267+116.0722)

> <DSSTox_CID>
28146

> <DSSTox_RID>
82711

> <DSSTox_GSID>
48172

> <DSSTox_FileID_Sort>
7388

> <TS_ChemName>
PharmaGSID_48172

> <TS_ChemName_Synonyms>
2-(2-{5-[5-(Azepan-1-ylmethyl)-2-thienyl]-1,2,4-oxadiazol-3-yl}ethyl)-1H-isoindole-1,3(2H)-dione (2E)-but-2-enedioate (1:1)

> <TS_CASRN>
NOCAS_48172

> <CASRN_ChemName_Relationship>
no CAS assigned

> <TS_Description>
single chemical compound

> <ChemNote>
parent [201545-86-0]

> <STRUCTURE_Shown>
tested chemical

> <STRUCTURE_Formula>
C27H28N4O7S

> <STRUCTURE_MW>
552.5988

> <STRUCTURE_ChemType>
defined organic

> <STRUCTURE_DefinedOrganicForm>
complex

> <STRUCTURE_IUPAC>
2-(2-{5-[5-(azepan-1-ylmethyl)thiophen-2-yl]-1,2,4-oxadiazol-3-yl}ethyl)-1H-isoindole-1,3(2H)-dione (2E)-but-2-enedioate (1:1)

> <STRUCTURE_SMILES>
O=C(O)/C=C/C(=O)O.O=C5c1ccccc1C(=O)N5CCc2nc(on2)c4ccc(CN3CCCCCC3)s4

> <STRUCTURE_SMILES_Desalt>
O=C5c1ccccc1C(=O)N5CCc2nc(on2)c4ccc(CN3CCCCCC3)s4

> <Substance_modify_yyyymmdd>
20130910

$$$$
