NOCAS_47351
ChemmineR-0915142007XD

 55 59  0  0  1  0  0  0  0  0  1 V2000
   11.5170  -11.9841    0.0000 C    0  0  0  0  0  0  0  0  0  0  0  0
   11.5170  -13.3049    0.0000 C    0  0  0  0  0  0  0  0  0  0  0  0
   10.3572  -11.3076    0.0000 C    0  0  0  0  0  0  0  0  0  0  0  0
   10.3572  -13.9654    0.0000 C    0  0  0  0  0  0  0  0  0  0  0  0
    9.2136  -11.9841    0.0000 C    0  0  0  0  0  0  0  0  0  0  0  0
    9.2136  -13.3049    0.0000 C    0  0  0  0  0  0  0  0  0  0  0  0
   12.6767  -11.3076    0.0000 C    0  0  0  0  0  0  0  0  0  0  0  0
   13.8204  -11.9841    0.0000 C    0  0  0  0  0  0  0  0  0  0  0  0
   12.6767  -13.9654    0.0000 C    0  0  0  0  0  0  0  0  0  0  0  0
   13.8204  -13.3049    0.0000 C    0  0  0  0  0  0  0  0  0  0  0  0
    8.0538  -11.3076    0.0000 S    0  0  0  0  0  0  0  0  0  0  0  0
   14.9640  -13.9654    0.0000 O    0  0  0  0  0  0  0  0  0  0  0  0
   16.1077  -13.3049    0.0000 C    0  0  0  0  0  0  0  0  0  0  0  0
    8.0538   -9.9706    0.0000 N    0  0  0  0  0  0  0  0  0  0  0  0
    6.8941   -9.3102    0.0000 C    0  0  0  0  0  0  0  0  0  0  0  0
    5.7504   -9.9706    0.0000 C    0  0  0  0  0  0  0  0  0  0  0  0
    5.7504  -11.3076    0.0000 C    0  0  0  0  0  0  0  0  0  0  0  0
    4.6068   -9.2941    0.0000 C    0  0  0  0  0  0  0  0  0  0  0  0
    4.6068  -11.9519    0.0000 C    0  0  0  0  0  0  0  0  0  0  0  0
    3.4631   -9.9706    0.0000 C    0  0  0  0  0  0  0  0  0  0  0  0
    3.4631  -11.3076    0.0000 C    0  0  0  0  0  0  0  0  0  0  0  0
    2.1906   -9.5680    0.0000 O    0  0  0  0  0  0  0  0  0  0  0  0
    1.4014  -10.6150    0.0000 C    0  0  0  0  0  0  0  0  0  0  0  0
    2.1906  -11.7264    0.0000 O    0  0  0  0  0  0  0  0  0  0  0  0
    6.8941   -7.9733    0.0000 C    0  0  0  0  0  0  0  0  0  0  0  0
    5.7504   -7.3129    0.0000 C    0  0  0  0  0  0  0  0  0  0  0  0
    5.7504   -5.9921    0.0000 N    0  0  0  0  0  0  0  0  0  0  0  0
    4.6068   -7.9572    0.0000 O    0  0  0  0  0  0  0  0  0  0  0  0
    4.6068   -5.2994    0.0000 C    0  0  0  0  0  0  0  0  0  0  0  0
    6.8941  -11.9841    0.0000 O    0  0  0  0  0  0  0  0  0  0  0  0
    8.0538  -12.6284    0.0000 O    0  0  0  0  0  0  0  0  0  0  0  0
    4.6068   -3.9786    0.0000 C    0  0  0  0  0  0  0  0  0  0  0  0
    3.4631   -5.9921    0.0000 C    0  0  0  0  0  0  0  0  0  0  0  0
    2.3034   -5.2994    0.0000 N    0  0  0  0  0  0  0  0  0  0  0  0
    1.1598   -5.9921    0.0000 C    0  0  0  0  0  0  0  0  0  0  0  0
    2.3034   -3.9786    0.0000 C    0  0  0  0  0  0  0  0  0  0  0  0
    0.0000   -5.2994    0.0000 C    0  0  0  0  0  0  0  0  0  0  0  0
    1.1598   -7.3129    0.0000 C    0  0  0  0  0  0  0  0  0  0  0  0
    3.4631   -7.3129    0.0000 O    0  0  0  0  0  0  0  0  0  0  0  0
    5.7504   -3.3343    0.0000 C    0  0  0  0  0  0  0  0  0  0  0  0
    5.7504   -1.9974    0.0000 C    0  0  0  0  0  0  0  0  0  0  0  0
    6.8941   -3.9947    0.0000 C    0  0  0  0  0  0  0  0  0  0  0  0
    6.8941   -1.3369    0.0000 C    0  0  0  0  0  0  0  0  0  0  0  0
    8.0538   -3.3343    0.0000 C    0  0  0  0  0  0  0  0  0  0  0  0
    8.0538   -1.9974    0.0000 C    0  0  0  0  0  0  0  0  0  0  0  0
    9.2136   -1.3369    0.0000 C    0  0  0  0  0  0  0  0  0  0  0  0
   10.3572   -1.9974    0.0000 N    0  0  0  0  0  0  0  0  0  0  0  0
   11.5170   -1.3369    0.0000 C    0  0  0  0  0  0  0  0  0  0  0  0
   10.3572   -3.3343    0.0000 C    0  0  0  0  0  0  0  0  0  0  0  0
   12.6767   -1.9974    0.0000 C    0  0  0  0  0  0  0  0  0  0  0  0
   11.5170   -3.9947    0.0000 C    0  0  0  0  0  0  0  0  0  0  0  0
   12.6767   -3.3343    0.0000 C    0  0  0  0  0  0  0  0  0  0  0  0
   11.5170    0.0000    0.0000 C    0  0  0  0  0  0  0  0  0  0  0  0
    9.2136   -3.9947    0.0000 C    0  0  0  0  0  0  0  0  0  0  0  0
   10.6311   -7.5062    0.0000 Cl   0  0  0  0  0  0  0  0  0  0  0  0
  1  3  2  0  0  0  0
  1  7  1  0  0  0  0
  1  2  1  0  0  0  0
  2  4  2  0  0  0  0
  2  9  1  0  0  0  0
  3  5  1  0  0  0  0
  4  6  1  0  0  0  0
  5  6  2  0  0  0  0
  5 11  1  0  0  0  0
  7  8  2  0  0  0  0
  8 10  1  0  0  0  0
  9 10  2  0  0  0  0
 10 12  1  0  0  0  0
 11 14  1  0  0  0  0
 11 30  2  0  0  0  0
 11 31  2  0  0  0  0
 12 13  1  0  0  0  0
 15 14  1  1  0  0  0
 15 16  1  0  0  0  0
 15 25  1  0  0  0  0
 16 17  1  0  0  0  0
 16 18  2  0  0  0  0
 17 19  2  0  0  0  0
 18 20  1  0  0  0  0
 19 21  1  0  0  0  0
 20 21  2  0  0  0  0
 20 22  1  0  0  0  0
 21 24  1  0  0  0  0
 22 23  1  0  0  0  0
 23 24  1  0  0  0  0
 25 26  1  0  0  0  0
 26 27  1  0  0  0  0
 26 28  2  0  0  0  0
 29 27  1  1  0  0  0
 29 32  1  0  0  0  0
 29 33  1  0  0  0  0
 32 40  1  0  0  0  0
 33 34  1  0  0  0  0
 33 39  2  0  0  0  0
 34 35  1  0  0  0  0
 34 36  1  0  0  0  0
 35 37  1  0  0  0  0
 35 38  1  0  0  0  0
 40 41  1  0  0  0  0
 40 42  2  0  0  0  0
 41 43  2  0  0  0  0
 42 44  1  0  0  0  0
 43 45  1  0  0  0  0
 44 45  2  0  0  0  0
 45 46  1  0  0  0  0
 46 47  1  0  0  0  0
 47 48  1  0  0  0  0
 47 49  1  0  0  0  0
 48 50  1  0  0  0  0
 48 53  1  1  0  0  0
 49 51  1  0  0  0  0
 49 54  1  1  0  0  0
 50 52  1  0  0  0  0
 51 52  1  0  0  0  0
M  END
> <ID>
12493

> <Formula>
C42H53ClN4O7S

> <FW>
793.4108 (756.9499+36.4609)

> <DSSTox_CID>
27351

> <DSSTox_RID>
82289

> <DSSTox_GSID>
47351

> <DSSTox_FileID_Sort>
6970

> <TS_ChemName>
SSR240612

> <TS_ChemName_Synonyms>


> <TS_CASRN>
NOCAS_47351

> <CASRN_ChemName_Relationship>
no CAS assigned

> <TS_Description>
single chemical compound

> <ChemNote>
stereochem

> <STRUCTURE_Shown>
tested chemical

> <STRUCTURE_Formula>
C42H53ClN4O7S

> <STRUCTURE_MW>
793.4108

> <STRUCTURE_ChemType>
defined organic

> <STRUCTURE_DefinedOrganicForm>
complex

> <STRUCTURE_IUPAC>
Nalpha-[(3R)-3-(1,3-benzodioxol-5-yl)-3-{[(6-methoxynaphthalen-2-yl)sulfonyl]amino}propanoyl]-4-{[(2R,6S)-2,6-dimethylpiperidin-1-yl]methyl}-N-methyl-N-propan-2-yl-D-phenylalaninamide hydrochloride (1:1)

> <STRUCTURE_SMILES>
Cl.CC(C)N(C)C(=O)[C@@H](Cc2ccc(CN1[C@H](C)CCC[C@@H]1C)cc2)NC(=O)C[C@@H](NS(=O)(=O)c3cc4ccc(OC)cc4cc3)c5ccc6OCOc6c5

> <STRUCTURE_SMILES_Desalt>
CC(C)N(C)C(=O)[C@@H](Cc2ccc(CN1[C@H](C)CCC[C@@H]1C)cc2)NC(=O)C[C@@H](NS(=O)(=O)c3cc4ccc(OC)cc4cc3)c5ccc6OCOc6c5

> <Substance_modify_yyyymmdd>
20130910

$$$$
