NOCAS_48518
ChemmineR-0915142007XD

 21 22  0  0  0  0  0  0  0  0  1 V2000
    4.6027   -2.2702    0.0000 C    0  0  0  0  0  0  0  0  0  0  0  0
    4.6027   -0.9355    0.0000 O    0  0  0  0  0  0  0  0  0  0  0  0
    3.4427   -2.9438    0.0000 C    0  0  0  0  0  0  0  0  0  0  0  0
    3.4427   -4.2660    0.0000 C    0  0  0  0  0  0  0  0  0  0  0  0
    2.3076   -2.2702    0.0000 C    0  0  0  0  0  0  0  0  0  0  0  0
    2.3076   -4.9271    0.0000 C    0  0  0  0  0  0  0  0  0  0  0  0
    1.1600   -2.9438    0.0000 C    0  0  0  0  0  0  0  0  0  0  0  0
    1.1600   -4.2660    0.0000 C    0  0  0  0  0  0  0  0  0  0  0  0
    5.7503   -2.9438    0.0000 N    0  0  0  0  0  0  0  0  0  0  0  0
    4.6027   -4.9271    0.0000 Br   0  0  0  0  0  0  0  0  0  0  0  0
    0.0000   -4.9271    0.0000 F    0  0  0  0  0  0  0  0  0  0  0  0
    6.9104   -2.2702    0.0000 S    0  0  0  0  0  0  0  0  0  0  0  0
    7.5839   -3.4178    0.0000 O    0  0  0  0  0  0  0  0  0  0  0  0
    6.2493   -1.1101    0.0000 O    0  0  0  0  0  0  0  0  0  0  0  0
    8.0704   -1.6091    0.0000 C    0  0  0  0  0  0  0  0  0  0  0  0
    9.2180   -2.2702    0.0000 C    0  0  0  0  0  0  0  0  0  0  0  0
   10.5027   -0.2744    0.0000 S    0  0  0  0  0  0  0  0  0  0  0  0
   11.8125    0.0000    0.0000 C    0  0  0  0  0  0  0  0  0  0  0  0
   10.3780   -1.6091    0.0000 C    0  0  0  0  0  0  0  0  0  0  0  0
   11.5879   -2.1330    0.0000 C    0  0  0  0  0  0  0  0  0  0  0  0
   12.4736   -1.1600    0.0000 C    0  0  0  0  0  0  0  0  0  0  0  0
  1  2  2  0  0  0  0
  1  3  1  0  0  0  0
  1  9  1  0  0  0  0
  3  4  2  0  0  0  0
  3  5  1  0  0  0  0
  4  6  1  0  0  0  0
  4 10  1  0  0  0  0
  5  7  2  0  0  0  0
  6  8  2  0  0  0  0
  7  8  1  0  0  0  0
  8 11  1  0  0  0  0
  9 12  1  0  0  0  0
 12 13  2  0  0  0  0
 12 14  2  0  0  0  0
 12 15  1  0  0  0  0
 15 16  2  0  0  0  0
 16 19  1  0  0  0  0
 17 18  1  0  0  0  0
 17 19  1  0  0  0  0
 18 21  2  0  0  0  0
 19 20  2  0  0  0  0
 20 21  1  0  0  0  0
M  END
> <ID>
13566

> <Formula>
C13H9BrFNO3S2

> <FW>
390.2479

> <DSSTox_CID>
28492

> <DSSTox_RID>
82767

> <DSSTox_GSID>
48518

> <DSSTox_FileID_Sort>
7444

> <TS_ChemName>
PharmaGSID_48518

> <TS_ChemName_Synonyms>
2-Bromo-4-fluoro-N-{[(E)-2-(thiophen-2-yl)ethenyl]sulfonyl}benzamide

> <TS_CASRN>
NOCAS_48518

> <CASRN_ChemName_Relationship>
no CAS assigned

> <TS_Description>
single chemical compound

> <ChemNote>
stereochem

> <STRUCTURE_Shown>
tested chemical

> <STRUCTURE_Formula>
C13H9BrFNO3S2

> <STRUCTURE_MW>
390.2479

> <STRUCTURE_ChemType>
defined organic

> <STRUCTURE_DefinedOrganicForm>
parent

> <STRUCTURE_IUPAC>
2-bromo-4-fluoro-N-{[(E)-2-(thiophen-2-yl)ethenyl]sulfonyl}benzamide

> <STRUCTURE_SMILES>
O=S(=O)(/C=C/c1cccs1)NC(=O)c2ccc(F)cc2Br

> <STRUCTURE_SMILES_Desalt>
O=S(=O)(/C=C/c1cccs1)NC(=O)c2ccc(F)cc2Br

> <Substance_modify_yyyymmdd>
20130910

$$$$
