NOCAS_49388
ChemmineR-0915142007XD

 19 18  0  0  0  0  0  0  0  0  2 V2000
    7.3149   -7.0822    0.0000 C   0  0  0  0  0  0  0  0  0  0  0  0
    9.3065   -3.6295    0.0000 C   0  0  0  0  0  0  0  0  0  0  0  0
    6.6448   -5.9282    0.0000 C   0  0  0  0  0  0  0  0  0  0  0  0
    7.3149   -4.7835    0.0000 C   0  0  0  0  0  0  0  0  0  0  0  0
    8.6457   -0.1768    0.0000 C   0  0  0  0  0  0  0  0  0  0  0  0
    7.3149   -0.1768    0.0000 C   0  0  0  0  0  0  0  0  0  0  0  0
    9.3065   -1.3308    0.0000 C   0  0  0  0  0  0  0  0  0  0  0  0
    6.6448   -3.6295    0.0000 C   0  0  0  0  0  0  0  0  0  0  0  0
    6.6448   -1.3308    0.0000 C   0  0  0  0  0  0  0  0  0  0  0  0
    8.6457   -2.4755    0.0000 C   0  0  0  0  0  0  0  0  0  0  0  0
    7.3149   -2.4755    0.0000 N   0  3  0  0  0  0  0  0  0  0  0  0
    1.3308   -1.3308    0.0000 C   0  0  0  0  0  0  0  0  0  0  0  0
    0.0000   -1.3308    0.0000 F   0  0  0  0  0  0  0  0  0  0  0  0
    1.3308   -2.6617    0.0000 F   0  0  0  0  0  0  0  0  0  0  0  0
    1.3308    0.0000    0.0000 F   0  0  0  0  0  0  0  0  0  0  0  0
    2.6617   -2.6617    0.0000 O   0  5  0  0  0  0  0  0  0  0  0  0
    2.6617    0.0000    0.0000 O   0  0  0  0  0  0  0  0  0  0  0  0
    3.9832   -1.3308    0.0000 O   0  0  0  0  0  0  0  0  0  0  0  0
    2.6617   -1.3308    0.0000 S   0  0  0  0  0  0  0  0  0  0  0  0
  1  3  1  0  0  0  0
  2 10  1  0  0  0  0
  3  4  1  0  0  0  0
  4  8  1  0  0  0  0
  5  6  2  0  0  0  0
  5  7  1  0  0  0  0
  6  9  1  0  0  0  0
  7 10  2  0  0  0  0
  8 11  1  0  0  0  0
  9 11  2  0  0  0  0
 10 11  1  0  0  0  0
 12 13  1  0  0  0  0
 12 14  1  0  0  0  0
 12 15  1  0  0  0  0
 12 19  1  0  0  0  0
 16 19  1  0  0  0  0
 17 19  2  0  0  0  0
 18 19  2  0  0  0  0
M  END
> <ID>
14252

> <Formula>
C11H16F3NO3S

> <FW>
299.3098 (150.2402+149.0697)

> <DSSTox_CID>
29347

> <DSSTox_RID>
83463

> <DSSTox_GSID>
49388

> <DSSTox_FileID_Sort>
8138

> <TS_ChemName>
1-Butyl-2-methylpyridinium trifluoromethanesulfonate

> <TS_ChemName_Synonyms>


> <TS_CASRN>
NOCAS_49388

> <CASRN_ChemName_Relationship>
no CAS assigned

> <TS_Description>
single chemical compound

> <ChemNote>


> <STRUCTURE_Shown>
tested chemical

> <STRUCTURE_Formula>
C11H16F3NO3S

> <STRUCTURE_MW>
299.3098

> <STRUCTURE_ChemType>
defined organic

> <STRUCTURE_DefinedOrganicForm>
complex

> <STRUCTURE_IUPAC>
1-butyl-2-methylpyridinium trifluoromethanesulfonate

> <STRUCTURE_SMILES>
Cc1cccc[n+]1CCCC.FC(F)(F)S([O-])(=O)=O

> <STRUCTURE_SMILES_Desalt>
Cc1cccc[n+]1CCCC

> <Substance_modify_yyyymmdd>
20111204

$$$$
