NOCAS_47311
ChemmineR-0915142007XD

 48 54  0  0  0  0  0  0  0  0  1 V2000
    5.6127  -14.0035    0.0000 C    0  0  0  0  0  0  0  0  0  0  0  0
    7.3325  -15.2886    0.0000 C    0  0  0  0  0  0  0  0  0  0  0  0
    6.5010  -14.5894    0.0000 C    0  0  0  0  0  0  0  0  0  0  0  0
    4.9324  -14.5894    0.0000 C    0  0  0  0  0  0  0  0  0  0  0  0
    4.7056  -13.2854    0.0000 N    0  0  0  0  0  0  0  0  0  0  0  0
    7.1057  -13.9657    0.0000 C    0  0  0  0  0  0  0  0  0  0  0  0
    4.0820  -15.7611    0.0000 C    0  0  0  0  0  0  0  0  0  0  0  0
    5.0836  -15.1374    0.0000 C    0  0  0  0  0  0  0  0  0  0  0  0
    7.3514  -16.4981    0.0000 N    0  0  0  0  0  0  0  0  0  0  0  0
    6.5388  -17.5564    0.0000 C    0  0  0  0  0  0  0  0  0  0  0  0
    5.2348  -17.5753    0.0000 C    0  0  0  0  0  0  0  0  0  0  0  0
    7.3514  -18.6336    0.0000 N    0  0  0  0  0  0  0  0  0  0  0  0
    8.5987  -18.1989    0.0000 C    0  0  0  0  0  0  0  0  0  0  0  0
    9.7514  -18.8981    0.0000 C    0  0  0  0  0  0  0  0  0  0  0  0
   10.9042  -18.2367    0.0000 C    0  0  0  0  0  0  0  0  0  0  0  0
   10.9042  -16.8949    0.0000 C    0  0  0  0  0  0  0  0  0  0  0  0
    9.7514  -16.2146    0.0000 C    0  0  0  0  0  0  0  0  0  0  0  0
    8.5987  -16.8949    0.0000 C    0  0  0  0  0  0  0  0  0  0  0  0
    8.6176    0.0000    0.0000 C    0  0  0  0  0  0  0  0  0  0  0  0
    9.0333   -1.2284    0.0000 N    0  0  0  0  0  0  0  0  0  0  0  0
    8.1451   -2.2489    0.0000 S    0  0  0  0  0  0  0  0  0  0  0  0
    9.1278   -3.1371    0.0000 O    0  0  0  0  0  0  0  0  0  0  0  0
    7.1624   -1.3418    0.0000 O    0  0  0  0  0  0  0  0  0  0  0  0
    7.2569   -3.2505    0.0000 C    0  0  0  0  0  0  0  0  0  0  0  0
    7.6726   -4.5167    0.0000 C    0  0  0  0  0  0  0  0  0  0  0  0
    6.7655   -5.4994    0.0000 C    0  0  0  0  0  0  0  0  0  0  0  0
    7.1813   -6.7655    0.0000 C    0  0  0  0  0  0  0  0  0  0  0  0
    8.4853   -7.0490    0.0000 O    0  0  0  0  0  0  0  0  0  0  0  0
    6.2931   -7.7482    0.0000 N    0  0  0  0  0  0  0  0  0  0  0  0
    4.9891   -7.4837    0.0000 C    0  0  0  0  0  0  0  0  0  0  0  0
    4.0820   -8.4475    0.0000 C    0  0  0  0  0  0  0  0  0  0  0  0
    4.5167   -9.7136    0.0000 C    0  0  0  0  0  0  0  0  0  0  0  0
    4.2143  -11.0365    0.0000 C    0  0  0  0  0  0  0  0  0  0  0  0
    5.2348  -11.9247    0.0000 C    0  0  0  0  0  0  0  0  0  0  0  0
    5.8017   -9.9971    0.0000 C    0  0  0  0  0  0  0  0  0  0  0  0
    6.6899   -9.0333    0.0000 C    0  0  0  0  0  0  0  0  0  0  0  0
    3.2316  -10.1294    0.0000 C    0  0  0  0  0  0  0  0  0  0  0  0
    2.9859  -11.4334    0.0000 C    0  0  0  0  0  0  0  0  0  0  0  0
    1.7008  -11.8491    0.0000 C    0  0  0  0  0  0  0  0  0  0  0  0
    0.6992  -10.9798    0.0000 C    0  0  0  0  0  0  0  0  0  0  0  0
    0.9827   -9.6381    0.0000 C    0  0  0  0  0  0  0  0  0  0  0  0
    0.0000   -8.7687    0.0000 F    0  0  0  0  0  0  0  0  0  0  0  0
    2.2489   -9.2601    0.0000 C    0  0  0  0  0  0  0  0  0  0  0  0
    5.4616   -5.2159    0.0000 C    0  0  0  0  0  0  0  0  0  0  0  0
    4.5545   -6.2175    0.0000 Cl   0  0  0  0  0  0  0  0  0  0  0  0
    5.0458   -3.9686    0.0000 C    0  0  0  0  0  0  0  0  0  0  0  0
    5.9529   -2.9670    0.0000 C    0  0  0  0  0  0  0  0  0  0  0  0
    5.5183   -1.7008    0.0000 F    0  0  0  0  0  0  0  0  0  0  0  0
  1  5  1  0  0  0  0
  1  6  1  0  0  0  0
  1  8  1  0  0  0  0
  2  3  1  0  0  0  0
  2  6  1  0  0  0  0
  2  9  1  0  0  0  0
  3  4  1  0  0  0  0
  4  5  1  0  0  0  0
  4  7  1  0  0  0  0
  5 34  1  0  0  0  0
  7  8  1  0  0  0  0
  9 10  1  0  0  0  0
  9 18  1  0  0  0  0
 10 11  1  0  0  0  0
 10 12  2  0  0  0  0
 12 13  1  0  0  0  0
 13 14  1  0  0  0  0
 13 18  2  0  0  0  0
 14 15  2  0  0  0  0
 15 16  1  0  0  0  0
 16 17  2  0  0  0  0
 17 18  1  0  0  0  0
 19 20  1  0  0  0  0
 20 21  1  0  0  0  0
 21 22  2  0  0  0  0
 21 23  2  0  0  0  0
 21 24  1  0  0  0  0
 24 25  1  0  0  0  0
 24 47  2  0  0  0  0
 25 26  2  0  0  0  0
 26 27  1  0  0  0  0
 26 44  1  0  0  0  0
 27 28  2  0  0  0  0
 27 29  1  0  0  0  0
 29 30  1  0  0  0  0
 29 36  1  0  0  0  0
 30 31  1  0  0  0  0
 31 32  1  0  0  0  0
 32 33  1  0  0  0  0
 32 35  1  0  0  0  0
 32 37  1  0  0  0  0
 33 34  1  0  0  0  0
 35 36  1  0  0  0  0
 37 38  1  0  0  0  0
 37 43  2  0  0  0  0
 38 39  2  0  0  0  0
 39 40  1  0  0  0  0
 40 41  2  0  0  0  0
 41 42  1  0  0  0  0
 41 43  1  0  0  0  0
 44 45  1  0  0  0  0
 44 46  2  0  0  0  0
 46 47  1  0  0  0  0
 47 48  1  0  0  0  0
M  END
> <ID>
12453

> <Formula>
C36H40ClF2N5O3S

> <FW>
696.2493

> <DSSTox_CID>
27311

> <DSSTox_RID>
82261

> <DSSTox_GSID>
47311

> <DSSTox_FileID_Sort>
6942

> <TS_ChemName>
GSK163929B

> <TS_ChemName_Synonyms>


> <TS_CASRN>
NOCAS_47311

> <CASRN_ChemName_Relationship>
no CAS assigned

> <TS_Description>
single chemical compound

> <ChemNote>


> <STRUCTURE_Shown>
tested chemical

> <STRUCTURE_Formula>
C36H40ClF2N5O3S

> <STRUCTURE_MW>
696.2493

> <STRUCTURE_ChemType>
defined organic

> <STRUCTURE_DefinedOrganicForm>
parent

> <STRUCTURE_IUPAC>
4-chloro-2-fluoro-5-{[4-(3-fluorophenyl)-4-{2-[3-(2-methyl-1H-benzimidazol-1-yl)-8-azabicyclo[3.2.1]oct-8-yl]ethyl}piperidin-1-yl]carbonyl}-N-methylbenzenesulfonamide

> <STRUCTURE_SMILES>
CNS(=O)(=O)c1cc(c(Cl)cc1F)C(=O)N2CCC(CC2)(CCN6C3CCC6CC(C3)n4c5ccccc5nc4C)c7cccc(F)c7

> <STRUCTURE_SMILES_Desalt>
CNS(=O)(=O)c1cc(c(Cl)cc1F)C(=O)N2CCC(CC2)(CCN6C3CCC6CC(C3)n4c5ccccc5nc4C)c7cccc(F)c7

> <Substance_modify_yyyymmdd>
20130910

$$$$
