NOCAS_47381
ChemmineR-0915142007XD

 29 30  0  0  0  0  0  0  0  0  1 V2000
    3.3322   -1.1485    0.0000 C    0  0  0  0  0  0  0  0  0  0  0  0
    3.9954   -2.2970    0.0000 C    0  0  0  0  0  0  0  0  0  0  0  0
    2.0058   -1.1485    0.0000 C    0  0  0  0  0  0  0  0  0  0  0  0
    3.3322   -3.4454    0.0000 C    0  0  0  0  0  0  0  0  0  0  0  0
    1.3264   -2.2970    0.0000 C    0  0  0  0  0  0  0  0  0  0  0  0
    2.0058   -3.4454    0.0000 C    0  0  0  0  0  0  0  0  0  0  0  0
    5.3218   -2.2970    0.0000 C    0  0  0  0  0  0  0  0  0  0  0  0
    6.0012   -1.1485    0.0000 C    0  0  0  0  0  0  0  0  0  0  0  0
    6.0012   -3.4454    0.0000 C    0  0  0  0  0  0  0  0  0  0  0  0
    7.3276   -1.1485    0.0000 C    0  0  0  0  0  0  0  0  0  0  0  0
    7.3276   -3.4454    0.0000 C    0  0  0  0  0  0  0  0  0  0  0  0
    7.9908   -2.2970    0.0000 N    0  0  0  0  0  0  0  0  0  0  0  0
    1.3264   -4.5939    0.0000 C    0  0  0  0  0  0  0  0  0  0  0  0
    0.0000   -4.5939    0.0000 N    0  0  0  0  0  0  0  0  0  0  0  0
    3.9954    0.0000    0.0000 F    0  0  0  0  0  0  0  0  0  0  0  0
    9.3173   -2.2970    0.0000 C    0  0  0  0  0  0  0  0  0  0  0  0
    9.9805   -3.4454    0.0000 C    0  0  0  0  0  0  0  0  0  0  0  0
    9.9805   -1.1485    0.0000 O    0  0  0  0  0  0  0  0  0  0  0  0
   11.3069   -3.5910    0.0000 S    0  0  0  0  0  0  0  0  0  0  0  0
   11.5980   -4.8851    0.0000 C    0  0  0  0  0  0  0  0  0  0  0  0
    9.4467   -4.6586    0.0000 C    0  0  0  0  0  0  0  0  0  0  0  0
   10.4334   -5.5645    0.0000 C    0  0  0  0  0  0  0  0  0  0  0  0
    8.1364   -4.9336    0.0000 C    0  0  0  0  0  0  0  0  0  0  0  0
   10.2878   -6.8747    0.0000 Br   0  0  0  0  0  0  0  0  0  0  0  0
   12.8112   -5.4351    0.0000 O    0  0  0  0  0  0  0  0  0  0  0  0
   13.8788   -4.6425    0.0000 C    0  0  0  0  0  0  0  0  0  0  0  0
   15.1082   -5.1924    0.0000 C    0  0  0  0  0  0  0  0  0  0  0  0
   16.1758   -4.4160    0.0000 C    0  0  0  0  0  0  0  0  0  0  0  0
   12.9083   -7.1982    0.0000 Cl   0  0  0  0  0  0  0  0  0  0  0  0
  1  2  1  0  0  0  0
  1  3  2  0  0  0  0
  1 15  1  0  0  0  0
  2  4  2  0  0  0  0
  2  7  1  0  0  0  0
  3  5  1  0  0  0  0
  4  6  1  0  0  0  0
  5  6  2  0  0  0  0
  6 13  1  0  0  0  0
  7  8  1  0  0  0  0
  7  9  1  0  0  0  0
  8 10  1  0  0  0  0
  9 11  1  0  0  0  0
 10 12  1  0  0  0  0
 11 12  1  0  0  0  0
 12 16  1  0  0  0  0
 13 14  1  0  0  0  0
 16 17  1  0  0  0  0
 16 18  2  0  0  0  0
 17 19  1  0  0  0  0
 17 21  2  0  0  0  0
 19 20  1  0  0  0  0
 20 22  2  0  0  0  0
 20 25  1  0  0  0  0
 21 22  1  0  0  0  0
 21 23  1  0  0  0  0
 22 24  1  0  0  0  0
 25 26  1  0  0  0  0
 26 27  1  0  0  0  0
 27 28  1  0  0  0  0
M  END
> <ID>
12523

> <Formula>
C21H27BrClFN2O2S

> <FW>
505.8717 (469.4107+36.4609)

> <DSSTox_CID>
27381

> <DSSTox_RID>
82310

> <DSSTox_GSID>
47381

> <DSSTox_FileID_Sort>
6991

> <TS_ChemName>
AVE8923

> <TS_ChemName_Synonyms>
SAR157682A

> <TS_CASRN>
NOCAS_47381

> <CASRN_ChemName_Relationship>
no CAS assigned

> <TS_Description>
single chemical compound

> <ChemNote>


> <STRUCTURE_Shown>
tested chemical

> <STRUCTURE_Formula>
C21H27BrClFN2O2S

> <STRUCTURE_MW>
505.8717

> <STRUCTURE_ChemType>
defined organic

> <STRUCTURE_DefinedOrganicForm>
complex

> <STRUCTURE_IUPAC>
{4-[5-(aminomethyl)-2-fluorophenyl]piperidin-1-yl}(4-bromo-3-methyl-5-propoxythiophen-2-yl)methanone hydrochloride (1:1)

> <STRUCTURE_SMILES>
Cl.CCCOc1sc(c(C)c1Br)C(=O)N2CCC(CC2)c3cc(CN)ccc3F

> <STRUCTURE_SMILES_Desalt>
CCCOc1sc(c(C)c1Br)C(=O)N2CCC(CC2)c3cc(CN)ccc3F

> <Substance_modify_yyyymmdd>
20130910

$$$$
