NOCAS_47342
ChemmineR-0915142007XD

 26 27  0  0  0  0  0  0  0  0  1 V2000
    1.3689   -7.5397    0.0000 C    0  0  0  0  0  0  0  0  0  0  0  0
    0.2064   -6.8987    0.0000 C    0  0  0  0  0  0  0  0  0  0  0  0
    2.5965   -7.0508    0.0000 C    0  0  0  0  0  0  0  0  0  0  0  0
    0.0000   -5.5733    0.0000 C    0  0  0  0  0  0  0  0  0  0  0  0
    2.9659   -5.7797    0.0000 C    0  0  0  0  0  0  0  0  0  0  0  0
    2.2163   -4.6824    0.0000 N    0  0  0  0  0  0  0  0  0  0  0  0
    0.8909   -4.5847    0.0000 C    0  0  0  0  0  0  0  0  0  0  0  0
    2.8681   -3.5200    0.0000 C    0  0  0  0  0  0  0  0  0  0  0  0
    2.2163   -2.3792    0.0000 C    0  0  0  0  0  0  0  0  0  0  0  0
    2.8573   -1.2168    0.0000 C    0  0  0  0  0  0  0  0  0  0  0  0
    4.1936   -1.2168    0.0000 C    0  0  0  0  0  0  0  0  0  0  0  0
    4.8454   -0.0543    0.0000 C    0  0  0  0  0  0  0  0  0  0  0  0
    4.8563   -2.3575    0.0000 C    0  0  0  0  0  0  0  0  0  0  0  0
    6.1817   -0.0326    0.0000 C    0  0  0  0  0  0  0  0  0  0  0  0
    6.2034   -2.3467    0.0000 C    0  0  0  0  0  0  0  0  0  0  0  0
    6.8444   -1.1842    0.0000 C    0  0  0  0  0  0  0  0  0  0  0  0
    8.1807   -1.1842    0.0000 C    0  0  0  0  0  0  0  0  0  0  0  0
    8.8326    0.0000    0.0000 C    0  0  0  0  0  0  0  0  0  0  0  0
    8.8651   -2.3141    0.0000 C    0  0  0  0  0  0  0  0  0  0  0  0
   10.1688    0.0000    0.0000 C    0  0  0  0  0  0  0  0  0  0  0  0
   10.1906   -2.3141    0.0000 C    0  0  0  0  0  0  0  0  0  0  0  0
   10.8316   -1.1516    0.0000 C    0  0  0  0  0  0  0  0  0  0  0  0
    6.8770   -3.4874    0.0000 Cl   0  0  0  0  0  0  0  0  0  0  0  0
   10.8642   -3.4548    0.0000 O    0  0  0  0  0  0  0  0  0  0  0  0
   10.2014   -4.6064    0.0000 C    0  0  0  0  0  0  0  0  0  0  0  0
    5.5081   -4.9106    0.0000 Cl   0  0  0  0  0  0  0  0  0  0  0  0
  1  2  1  0  0  0  0
  1  3  1  0  0  0  0
  2  4  1  0  0  0  0
  3  5  1  0  0  0  0
  4  7  1  0  0  0  0
  5  6  1  0  0  0  0
  6  7  1  0  0  0  0
  6  8  1  0  0  0  0
  8  9  1  0  0  0  0
  9 10  2  0  0  0  0
 10 11  1  0  0  0  0
 11 12  1  0  0  0  0
 11 13  2  0  0  0  0
 12 14  2  0  0  0  0
 13 15  1  0  0  0  0
 14 16  1  0  0  0  0
 15 16  2  0  0  0  0
 15 23  1  0  0  0  0
 16 17  1  0  0  0  0
 17 18  1  0  0  0  0
 17 19  2  0  0  0  0
 18 20  2  0  0  0  0
 19 21  1  0  0  0  0
 20 22  1  0  0  0  0
 21 22  2  0  0  0  0
 21 24  1  0  0  0  0
 24 25  1  0  0  0  0
M  END
> <ID>
12484

> <Formula>
C22H27Cl2NO

> <FW>
392.3619 (355.9009+36.4609)

> <DSSTox_CID>
27342

> <DSSTox_RID>
82283

> <DSSTox_GSID>
47342

> <DSSTox_FileID_Sort>
6964

> <TS_ChemName>
SR125047

> <TS_ChemName_Synonyms>
SSR125047A

> <TS_CASRN>
NOCAS_47342

> <CASRN_ChemName_Relationship>
no CAS assigned

> <TS_Description>
single chemical compound

> <ChemNote>
stereochem

> <STRUCTURE_Shown>
tested chemical

> <STRUCTURE_Formula>
C22H27Cl2NO

> <STRUCTURE_MW>
392.3619

> <STRUCTURE_ChemType>
defined organic

> <STRUCTURE_DefinedOrganicForm>
complex

> <STRUCTURE_IUPAC>
1-[(2Z)-3-(2-chloro-3'-methoxybiphenyl-4-yl)prop-2-en-1-yl]azepane hydrochloride (1:1)

> <STRUCTURE_SMILES>
Cl.COc1cccc(c1)c2ccc(cc2Cl)/C=C\CN3CCCCCC3

> <STRUCTURE_SMILES_Desalt>
COc1cccc(c1)c2ccc(cc2Cl)/C=C\CN3CCCCCC3

> <Substance_modify_yyyymmdd>
20130910

$$$$
