NOCAS_47366
ChemmineR-0915142007XD

 30 34  0  0  0  0  0  0  0  0  1 V2000
    3.4482   -2.6346    0.0000 C   0  0  0  0  0  0  0  0  0  0  0  0
    3.4482   -3.9648    0.0000 C   0  0  0  0  0  0  0  0  0  0  0  0
    2.2859   -1.9501    0.0000 C   0  0  0  0  0  0  0  0  0  0  0  0
    2.2859   -4.6105    0.0000 C   0  0  0  0  0  0  0  0  0  0  0  0
    1.1365   -2.6346    0.0000 C   0  0  0  0  0  0  0  0  0  0  0  0
    1.1365   -3.9648    0.0000 C   0  0  0  0  0  0  0  0  0  0  0  0
    4.7138   -2.2084    0.0000 C   0  0  0  0  0  0  0  0  0  0  0  0
    5.5016   -3.2803    0.0000 C   0  0  0  0  0  0  0  0  0  0  0  0
    4.7138   -4.3780    0.0000 N   0  0  0  0  0  0  0  0  0  0  0  0
    0.0000   -1.9501    0.0000 F   0  0  0  0  0  0  0  0  0  0  0  0
    6.8318   -3.2803    0.0000 C   0  0  0  0  0  0  0  0  0  0  0  0
    5.1271   -5.6308    0.0000 C   0  0  0  0  0  0  0  0  0  0  0  0
    6.4315   -5.9149    0.0000 C   0  0  0  0  0  0  0  0  0  0  0  0
    8.6140   -5.1917    0.0000 C   0  0  0  0  0  0  0  0  0  0  0  0
    9.0273   -6.4573    0.0000 C   0  0  0  0  0  0  0  0  0  0  0  0
    7.3097   -4.9205    0.0000 C   0  0  0  0  0  0  0  0  0  0  0  0
    8.1362   -7.4517    0.0000 C   0  0  0  0  0  0  0  0  0  0  0  0
    6.8447   -7.1805    0.0000 C   0  0  0  0  0  0  0  0  0  0  0  0
    8.5365   -8.7173    0.0000 F   0  0  0  0  0  0  0  0  0  0  0  0
    7.4775   -4.4426    0.0000 O   0  0  0  0  0  0  0  0  0  0  0  0
    7.4775   -2.1309    0.0000 N   0  0  0  0  0  0  0  0  0  0  0  0
    8.8077   -2.1309    0.0000 C   0  0  0  0  0  0  0  0  0  0  0  0
   11.4682   -2.1309    0.0000 C   0  0  0  0  0  0  0  0  0  0  0  0
   10.8095   -0.9944    0.0000 C   0  0  0  0  0  0  0  0  0  0  0  0
   10.8095   -3.2803    0.0000 C   0  0  0  0  0  0  0  0  0  0  0  0
    9.4793   -0.9944    0.0000 C   0  0  0  0  0  0  0  0  0  0  0  0
    9.4793   -3.2803    0.0000 C   0  0  0  0  0  0  0  0  0  0  0  0
   12.7854   -1.8597    0.0000 N   0  0  0  0  0  0  0  0  0  0  0  0
   12.9146   -0.5424    0.0000 C   0  0  0  0  0  0  0  0  0  0  0  0
   11.7006    0.0000    0.0000 C   0  0  0  0  0  0  0  0  0  0  0  0
  1  3  2  0  0  0  0
  1  7  1  0  0  0  0
  1  2  1  0  0  0  0
  2  4  2  0  0  0  0
  2  9  1  0  0  0  0
  3  5  1  0  0  0  0
  4  6  1  0  0  0  0
  5  6  2  0  0  0  0
  5 10  1  0  0  0  0
  7  8  2  0  0  0  0
  8  9  1  0  0  0  0
  8 11  1  0  0  0  0
  9 12  1  0  0  0  0
 11 20  2  0  0  0  0
 11 21  1  0  0  0  0
 12 13  1  0  0  0  0
 13 16  1  0  0  0  0
 13 18  2  0  0  0  0
 14 15  1  0  0  0  0
 14 16  2  0  0  0  0
 15 17  2  0  0  0  0
 17 18  1  0  0  0  0
 17 19  1  0  0  0  0
 21 22  1  0  0  0  0
 22 26  1  0  0  0  0
 22 27  2  0  0  0  0
 23 25  2  0  0  0  0
 23 28  1  0  0  0  0
 23 24  1  0  0  0  0
 24 26  2  0  0  0  0
 24 30  1  0  0  0  0
 25 27  1  0  0  0  0
 28 29  1  0  0  0  0
 29 30  2  0  0  0  0
M  END
> <ID>
12508

> <Formula>
C24H17F2N3O

> <FW>
401.4081

> <DSSTox_CID>
27366

> <DSSTox_RID>
82300

> <DSSTox_GSID>
47366

> <DSSTox_FileID_Sort>
6981

> <TS_ChemName>
SAR115740

> <TS_ChemName_Synonyms>


> <TS_CASRN>
NOCAS_47366

> <CASRN_ChemName_Relationship>
no CAS assigned

> <TS_Description>
single chemical compound

> <ChemNote>


> <STRUCTURE_Shown>
tested chemical

> <STRUCTURE_Formula>
C24H17F2N3O

> <STRUCTURE_MW>
401.4081

> <STRUCTURE_ChemType>
defined organic

> <STRUCTURE_DefinedOrganicForm>
parent

> <STRUCTURE_IUPAC>
5-fluoro-1-(3-fluorobenzyl)-N-(1H-indol-5-yl)-1H-indole-2-carboxamide

> <STRUCTURE_SMILES>
Fc1cccc(c1)Cn4c5ccc(F)cc5cc4C(=O)Nc2cc3ccnc3cc2

> <STRUCTURE_SMILES_Desalt>
Fc1cccc(c1)Cn4c5ccc(F)cc5cc4C(=O)Nc2cc3ccnc3cc2

> <Substance_modify_yyyymmdd>
20130910

$$$$
