NOCAS_47265
ChemmineR-0915142007XD

 32 34  0  0  0  0  0  0  0  0  1 V2000
    3.3272   -5.7494    0.0000 C   0  0  0  0  0  0  0  0  0  0  0  0
    3.9926   -4.6048    0.0000 N   0  0  0  0  0  0  0  0  0  0  0  0
    2.3423   -6.6411    0.0000 C   0  0  0  0  0  0  0  0  0  0  0  0
    4.4851   -6.4148    0.0000 C   0  0  0  0  0  0  0  0  0  0  0  0
    2.2758   -4.9243    0.0000 C   0  0  0  0  0  0  0  0  0  0  0  0
    5.3235   -4.6048    0.0000 S   0  0  0  0  0  0  0  0  0  0  0  0
    3.3272   -3.4470    0.0000 C   0  0  0  0  0  0  0  0  0  0  0  0
    2.8747   -7.8655    0.0000 C   0  0  0  0  0  0  0  0  0  0  0  0
    4.2056   -7.7191    0.0000 C   0  0  0  0  0  0  0  0  0  0  0  0
    1.0381   -5.4300    0.0000 N   0  0  0  0  0  0  0  0  0  0  0  0
    2.4754   -3.6333    0.0000 O   0  0  0  0  0  0  0  0  0  0  0  0
    6.6411   -4.6048    0.0000 C   0  0  0  0  0  0  0  0  0  0  0  0
    5.3235   -5.9357    0.0000 O   0  0  0  0  0  0  0  0  0  0  0  0
    5.3235   -3.2740    0.0000 O   0  0  0  0  0  0  0  0  0  0  0  0
    3.9926   -2.2891    0.0000 C   0  0  0  0  0  0  0  0  0  0  0  0
    0.0000   -4.6048    0.0000 O   0  0  0  0  0  0  0  0  0  0  0  0
    7.3198   -3.4470    0.0000 C   0  0  0  0  0  0  0  0  0  0  0  0
    7.3198   -5.7494    0.0000 C   0  0  0  0  0  0  0  0  0  0  0  0
    3.3272   -1.1446    0.0000 C   0  0  0  0  0  0  0  0  0  0  0  0
    8.6507   -3.4470    0.0000 C   0  0  0  0  0  0  0  0  0  0  0  0
    8.6507   -5.7494    0.0000 C   0  0  0  0  0  0  0  0  0  0  0  0
    2.0096   -1.1446    0.0000 O   0  0  0  0  0  0  0  0  0  0  0  0
    3.9926    0.0000    0.0000 O   0  0  0  0  0  0  0  0  0  0  0  0
    9.3162   -4.6048    0.0000 C   0  0  0  0  0  0  0  0  0  0  0  0
   10.6470   -4.6048    0.0000 O   0  0  0  0  0  0  0  0  0  0  0  0
   11.3125   -3.4470    0.0000 C   0  0  0  0  0  0  0  0  0  0  0  0
   10.6470   -2.2891    0.0000 C   0  0  0  0  0  0  0  0  0  0  0  0
   12.6567   -3.4470    0.0000 C   0  0  0  0  0  0  0  0  0  0  0  0
   11.3125   -1.1446    0.0000 C   0  0  0  0  0  0  0  0  0  0  0  0
   13.3088   -2.2891    0.0000 C   0  0  0  0  0  0  0  0  0  0  0  0
   12.6567   -1.1446    0.0000 C   0  0  0  0  0  0  0  0  0  0  0  0
   13.3088    0.0000    0.0000 F   0  0  0  0  0  0  0  0  0  0  0  0
  1  2  1  0  0  0  0
  1  3  1  0  0  0  0
  1  4  1  0  0  0  0
  1  5  1  0  0  0  0
  2  6  1  0  0  0  0
  2  7  1  0  0  0  0
  3  8  1  0  0  0  0
  4  9  1  0  0  0  0
  5 10  1  0  0  0  0
  5 11  2  0  0  0  0
  6 12  1  0  0  0  0
  6 13  2  0  0  0  0
  6 14  2  0  0  0  0
  7 15  1  0  0  0  0
  8  9  1  0  0  0  0
 10 16  1  0  0  0  0
 12 17  2  0  0  0  0
 12 18  1  0  0  0  0
 15 19  1  0  0  0  0
 17 20  1  0  0  0  0
 18 21  2  0  0  0  0
 19 22  1  0  0  0  0
 19 23  2  0  0  0  0
 20 24  2  0  0  0  0
 21 24  1  0  0  0  0
 24 25  1  0  0  0  0
 25 26  1  0  0  0  0
 26 27  1  0  0  0  0
 26 28  2  0  0  0  0
 27 29  2  0  0  0  0
 28 30  1  0  0  0  0
 29 31  1  0  0  0  0
 30 31  2  0  0  0  0
 31 32  1  0  0  0  0
M  END
> <ID>
12407

> <Formula>
C21H23FN2O7S

> <FW>
466.4799

> <DSSTox_CID>
27265

> <DSSTox_RID>
82222

> <DSSTox_GSID>
47265

> <DSSTox_FileID_Sort>
6903

> <TS_ChemName>
CP-471358

> <TS_ChemName_Synonyms>


> <TS_CASRN>
NOCAS_47265

> <CASRN_ChemName_Relationship>
no CAS assigned

> <TS_Description>
single chemical compound

> <ChemNote>


> <STRUCTURE_Shown>
tested chemical

> <STRUCTURE_Formula>
C21H23FN2O7S

> <STRUCTURE_MW>
466.4799

> <STRUCTURE_ChemType>
defined organic

> <STRUCTURE_DefinedOrganicForm>
parent

> <STRUCTURE_IUPAC>
N-{[4-(4-fluorophenoxy)phenyl]sulfonyl}-N-[1-(hydroxycarbamoyl)cyclopentyl]-beta-alanine

> <STRUCTURE_SMILES>
O=S(=O)(N(CCC(=O)O)C1(CCCC1)C(=O)NO)c3ccc(Oc2ccc(F)cc2)cc3

> <STRUCTURE_SMILES_Desalt>
O=S(=O)(N(CCC(=O)O)C1(CCCC1)C(=O)NO)c3ccc(Oc2ccc(F)cc2)cc3

> <Substance_modify_yyyymmdd>
20130910

$$$$
