NOCAS_47385
ChemmineR-0915142007XD

 41 43  0  0  0  0  0  0  0  0  1 V2000
    8.0707   -1.6286    0.0000 C    0  0  0  0  0  0  0  0  0  0  0  0
    8.0707   -2.9677    0.0000 C    0  0  0  0  0  0  0  0  0  0  0  0
    6.9125   -0.9591    0.0000 C    0  0  0  0  0  0  0  0  0  0  0  0
    6.9125   -3.6191    0.0000 C    0  0  0  0  0  0  0  0  0  0  0  0
    5.7544   -1.6286    0.0000 C    0  0  0  0  0  0  0  0  0  0  0  0
    5.7544   -2.9677    0.0000 N    0  0  0  0  0  0  0  0  0  0  0  0
    9.3193   -1.2124    0.0000 C    0  0  0  0  0  0  0  0  0  0  0  0
   10.1155   -2.2801    0.0000 C    0  0  0  0  0  0  0  0  0  0  0  0
    9.3193   -3.3839    0.0000 N    0  0  0  0  0  0  0  0  0  0  0  0
    4.5963   -0.9591    0.0000 O    0  0  0  0  0  0  0  0  0  0  0  0
   11.4365   -2.2801    0.0000 C    0  0  0  0  0  0  0  0  0  0  0  0
   12.0879   -3.4382    0.0000 O    0  0  0  0  0  0  0  0  0  0  0  0
   12.0879   -1.1400    0.0000 N    0  0  0  0  0  0  0  0  0  0  0  0
   13.4270   -1.1400    0.0000 C    0  0  0  0  0  0  0  0  0  0  0  0
   16.0871   -1.1400    0.0000 N    0  0  0  0  0  0  0  0  0  0  0  0
   15.4356    0.0000    0.0000 C    0  0  0  0  0  0  0  0  0  0  0  0
   15.4356   -2.2801    0.0000 C    0  0  0  0  0  0  0  0  0  0  0  0
   14.0965    0.0000    0.0000 C    0  0  0  0  0  0  0  0  0  0  0  0
   14.0965   -2.2801    0.0000 C    0  0  0  0  0  0  0  0  0  0  0  0
    9.7355   -4.6325    0.0000 C    0  0  0  0  0  0  0  0  0  0  0  0
    8.8307   -5.6278    0.0000 C    0  0  0  0  0  0  0  0  0  0  0  0
   17.4261   -1.1400    0.0000 C    0  0  0  0  0  0  0  0  0  0  0  0
   18.0957   -2.2801    0.0000 C    0  0  0  0  0  0  0  0  0  0  0  0
   18.0957    0.0000    0.0000 C    0  0  0  0  0  0  0  0  0  0  0  0
    3.4563   -1.6286    0.0000 C    0  0  0  0  0  0  0  0  0  0  0  0
    2.2982   -0.9591    0.0000 C    0  0  0  0  0  0  0  0  0  0  0  0
    1.1400   -1.6286    0.0000 O    0  0  0  0  0  0  0  0  0  0  0  0
    0.0000   -0.9591    0.0000 C    0  0  0  0  0  0  0  0  0  0  0  0
    9.2650   -6.8945    0.0000 N    0  0  0  0  0  0  0  0  0  0  0  0
    7.5640   -5.3563    0.0000 O    0  0  0  0  0  0  0  0  0  0  0  0
    8.3783   -7.8716    0.0000 C    0  0  0  0  0  0  0  0  0  0  0  0
    7.0754   -7.6002    0.0000 C    0  0  0  0  0  0  0  0  0  0  0  0
    8.7945   -9.1383    0.0000 N    0  0  0  0  0  0  0  0  0  0  0  0
    6.1706   -8.5773    0.0000 C    0  0  0  0  0  0  0  0  0  0  0  0
    7.8897  -10.1336    0.0000 C    0  0  0  0  0  0  0  0  0  0  0  0
    6.5868   -9.8440    0.0000 C    0  0  0  0  0  0  0  0  0  0  0  0
    5.7001  -10.8393    0.0000 Cl   0  0  0  0  0  0  0  0  0  0  0  0
    1.5924   -4.5239    0.0000 C    0  0  0  0  0  0  0  0  0  0  0  0
    2.9134   -4.5239    0.0000 C    0  0  0  0  0  0  0  0  0  0  0  0
    3.5829   -5.6820    0.0000 O    0  0  0  0  0  0  0  0  0  0  0  0
    3.6010   -3.3658    0.0000 O    0  0  0  0  0  0  0  0  0  0  0  0
  1  3  2  0  0  0  0
  1  7  1  0  0  0  0
  1  2  1  0  0  0  0
  2  4  2  0  0  0  0
  2  9  1  0  0  0  0
  3  5  1  0  0  0  0
  4  6  1  0  0  0  0
  5  6  2  0  0  0  0
  5 10  1  0  0  0  0
  7  8  2  0  0  0  0
  8  9  1  0  0  0  0
  8 11  1  0  0  0  0
  9 20  1  0  0  0  0
 10 25  1  0  0  0  0
 11 12  2  0  0  0  0
 11 13  1  0  0  0  0
 13 14  1  0  0  0  0
 14 18  1  0  0  0  0
 14 19  1  0  0  0  0
 15 16  1  0  0  0  0
 15 17  1  0  0  0  0
 15 22  1  0  0  0  0
 16 18  1  0  0  0  0
 17 19  1  0  0  0  0
 20 21  1  0  0  0  0
 21 29  1  0  0  0  0
 21 30  2  0  0  0  0
 22 23  1  0  0  0  0
 22 24  1  0  0  0  0
 25 26  1  0  0  0  0
 26 27  1  0  0  0  0
 27 28  1  0  0  0  0
 29 31  1  0  0  0  0
 31 32  1  0  0  0  0
 31 33  2  0  0  0  0
 32 34  2  0  0  0  0
 33 35  1  0  0  0  0
 34 36  1  0  0  0  0
 35 36  2  0  0  0  0
 36 37  1  0  0  0  0
 38 39  1  0  0  0  0
 39 40  1  0  0  0  0
 39 41  2  0  0  0  0
M  END
> <ID>
12527

> <Formula>
C28H37ClN6O6

> <FW>
589.0830 (529.0310+60.0520)

> <DSSTox_CID>
27385

> <DSSTox_RID>
82312

> <DSSTox_GSID>
47385

> <DSSTox_FileID_Sort>
6993

> <TS_ChemName>
SAR377142

> <TS_ChemName_Synonyms>


> <TS_CASRN>
NOCAS_47385

> <CASRN_ChemName_Relationship>
no CAS assigned

> <TS_Description>
single chemical compound

> <ChemNote>


> <STRUCTURE_Shown>
tested chemical

> <STRUCTURE_Formula>
C28H37ClN6O6

> <STRUCTURE_MW>
589.083

> <STRUCTURE_ChemType>
defined organic

> <STRUCTURE_DefinedOrganicForm>
complex

> <STRUCTURE_IUPAC>
1-{2-[(5-chloropyridin-2-yl)amino]-2-oxoethyl}-5-(2-methoxyethoxy)-N-[1-(propan-2-yl)piperidin-4-yl]-1H-pyrrolo[2,3-c]pyridine-2-carboxamide acetate (1:1)

> <STRUCTURE_SMILES>
CC(C)N4CCC(NC(=O)c3cc1cc(OCCOC)ncc1n3CC(=O)Nc2ccc(Cl)cn2)CC4.CC(=O)O

> <STRUCTURE_SMILES_Desalt>
CC(C)N4CCC(NC(=O)c3cc1cc(OCCOC)ncc1n3CC(=O)Nc2ccc(Cl)cn2)CC4

> <Substance_modify_yyyymmdd>
20130910

$$$$
