NOCAS_47248
ChemmineR-0915142007XD

 30 34  0  0  1  0  0  0  0  0  1 V2000
    3.4929   -2.0518    0.0000 C   0  0  0  0  0  0  0  0  0  0  0  0
    3.4929   -3.4075    0.0000 C   0  0  0  0  0  0  0  0  0  0  0  0
    4.6532   -1.3801    0.0000 N   0  0  0  0  0  0  0  0  0  0  0  0
    2.3327   -1.3801    0.0000 C   0  0  0  0  0  0  0  0  0  0  0  0
    4.4456   -4.2868    0.0000 C   0  0  0  0  0  0  0  0  0  0  0  0
    2.3327   -4.0792    0.0000 C   0  0  0  0  0  0  0  0  0  0  0  0
    5.8989   -1.7709    0.0000 C   0  0  0  0  0  0  0  0  0  0  0  0
    4.2135    0.0000    0.0000 C   0  0  0  0  0  0  0  0  0  0  0  0
    2.7602    0.0000    0.0000 C   0  0  0  0  0  0  0  0  0  0  0  0
    1.1358   -2.0518    0.0000 C   0  0  0  0  0  0  0  0  0  0  0  0
    4.0425   -5.5692    0.0000 C   0  0  0  0  0  0  0  0  0  0  0  0
    5.7157   -4.0914    0.0000 N   0  0  0  0  0  0  0  0  0  0  0  0
    1.1358   -3.4075    0.0000 C   0  0  0  0  0  0  0  0  0  0  0  0
    6.3752   -2.9678    0.0000 C   0  0  0  0  0  0  0  0  0  0  0  0
    6.7905   -0.8061    0.0000 O   0  0  0  0  0  0  0  0  0  0  0  0
    2.7479   -5.8623    0.0000 C   0  0  0  0  0  0  0  0  0  0  0  0
    4.9463   -6.5340    0.0000 C   0  0  0  0  0  0  0  0  0  0  0  0
    0.0000   -4.0670    0.0000 C   0  0  0  0  0  0  0  0  0  0  0  0
    7.6698   -2.9678    0.0000 N   0  0  0  0  0  0  0  0  0  0  0  0
    2.3571   -7.1202    0.0000 C   0  0  0  0  0  0  0  0  0  0  0  0
    4.5555   -7.8164    0.0000 C   0  0  0  0  0  0  0  0  0  0  0  0
    8.3049   -4.0914    0.0000 C   0  0  0  0  0  0  0  0  0  0  0  0
    3.2609   -8.1095    0.0000 C   0  0  0  0  0  0  0  0  0  0  0  0
    9.6239   -4.0914    0.0000 C   0  0  0  0  0  0  0  0  0  0  0  0
    7.6698   -5.2150    0.0000 O   0  0  0  0  0  0  0  0  0  0  0  0
   10.2590   -5.2150    0.0000 C   0  0  0  0  0  0  0  0  0  0  0  0
   10.2590   -2.9678    0.0000 C   0  0  0  0  0  0  0  0  0  0  0  0
   11.5536   -5.2150    0.0000 C   0  0  0  0  0  0  0  0  0  0  0  0
   11.5536   -2.9678    0.0000 C   0  0  0  0  0  0  0  0  0  0  0  0
   12.2131   -4.0914    0.0000 N   0  0  0  0  0  0  0  0  0  0  0  0
  1  2  1  0  0  0  0
  1  3  1  0  0  0  0
  1  4  2  0  0  0  0
  2  5  1  0  0  0  0
  2  6  2  0  0  0  0
  3  7  1  0  0  0  0
  3  8  1  0  0  0  0
  4  9  1  0  0  0  0
  4 10  1  0  0  0  0
  5 11  1  0  0  0  0
  5 12  2  0  0  0  0
  6 13  1  0  0  0  0
  7 14  1  0  0  0  0
  7 15  2  0  0  0  0
  8  9  1  0  0  0  0
 10 13  2  0  0  0  0
 11 16  1  0  0  0  0
 11 17  2  0  0  0  0
 12 14  1  0  0  0  0
 13 18  1  0  0  0  0
 14 19  1  6  0  0  0
 16 20  2  0  0  0  0
 17 21  1  0  0  0  0
 19 22  1  0  0  0  0
 20 23  1  0  0  0  0
 21 23  2  0  0  0  0
 22 24  1  0  0  0  0
 22 25  2  0  0  0  0
 24 26  2  0  0  0  0
 24 27  1  0  0  0  0
 26 28  1  0  0  0  0
 27 29  2  0  0  0  0
 28 30  2  0  0  0  0
 29 30  1  0  0  0  0
M  END
> <ID>
12390

> <Formula>
C24H20N4O2

> <FW>
396.4412

> <DSSTox_CID>
27248

> <DSSTox_RID>
82208

> <DSSTox_GSID>
47248

> <DSSTox_FileID_Sort>
6889

> <TS_ChemName>
CI-1018

> <TS_ChemName_Synonyms>
PD-168787

> <TS_CASRN>
NOCAS_47248

> <CASRN_ChemName_Relationship>
no CAS assigned

> <TS_Description>
single chemical compound

> <ChemNote>
stereochem

> <STRUCTURE_Shown>
tested chemical

> <STRUCTURE_Formula>
C24H20N4O2

> <STRUCTURE_MW>
396.4412

> <STRUCTURE_ChemType>
defined organic

> <STRUCTURE_DefinedOrganicForm>
parent

> <STRUCTURE_IUPAC>
N-[(3R)-9-methyl-4-oxo-1-phenyl-3,4,6,7-tetrahydro[1,4]diazepino[6,7,1-hi]indol-3-yl]pyridine-4-carboxamide

> <STRUCTURE_SMILES>
Cc2cc3C(=N[C@@H](NC(=O)c1ccncc1)C(=O)N4CCc(c2)c34)c5ccccc5

> <STRUCTURE_SMILES_Desalt>
Cc2cc3C(=N[C@@H](NC(=O)c1ccncc1)C(=O)N4CCc(c2)c34)c5ccccc5

> <Substance_modify_yyyymmdd>
20131114

$$$$
