NOCAS_47255
ChemmineR-0915142007XD

 29 29  0  0  0  0  0  0  0  0  2 V2000
   10.3269   -5.1192    0.0000 C    0  0  0  0  0  0  0  0  0  0  0  0
   11.4898   -4.4367    0.0000 C    0  0  0  0  0  0  0  0  0  0  0  0
   10.3269   -6.4464    0.0000 C    0  0  0  0  0  0  0  0  0  0  0  0
    9.3031   -4.2597    0.0000 N    0  0  0  0  0  0  0  0  0  0  0  0
   12.6401   -5.1192    0.0000 C    0  0  0  0  0  0  0  0  0  0  0  0
   11.4898   -3.1095    0.0000 C    0  0  0  0  0  0  0  0  0  0  0  0
   11.4898   -7.1037    0.0000 C    0  0  0  0  0  0  0  0  0  0  0  0
    9.1767   -7.1037    0.0000 C    0  0  0  0  0  0  0  0  0  0  0  0
    7.9885   -4.4872    0.0000 C    0  0  0  0  0  0  0  0  0  0  0  0
   12.6401   -6.4464    0.0000 C    0  0  0  0  0  0  0  0  0  0  0  0
   10.3269   -2.4522    0.0000 C    0  0  0  0  0  0  0  0  0  0  0  0
   12.6401   -2.4395    0.0000 C    0  0  0  0  0  0  0  0  0  0  0  0
    8.0391   -6.4338    0.0000 C    0  0  0  0  0  0  0  0  0  0  0  0
    9.1767   -8.4309    0.0000 C    0  0  0  0  0  0  0  0  0  0  0  0
    7.1416   -3.4760    0.0000 N    0  5  0  0  0  0  0  0  0  0  0  0
    7.5588   -5.7386    0.0000 O    0  0  0  0  0  0  0  0  0  0  0  0
    5.8524   -3.7162    0.0000 S    0  0  0  0  0  0  0  0  0  0  0  0
    4.5378   -3.9437    0.0000 C    0  0  0  0  0  0  0  0  0  0  0  0
    5.5869   -2.4016    0.0000 O    0  0  0  0  0  0  0  0  0  0  0  0
    6.0672   -5.0181    0.0000 O    0  0  0  0  0  0  0  0  0  0  0  0
    3.5771   -3.0336    0.0000 C    0  0  0  0  0  0  0  0  0  0  0  0
    3.9437   -5.1445    0.0000 O    0  0  0  0  0  0  0  0  0  0  0  0
    2.4016   -3.6530    0.0000 C    0  0  0  0  0  0  0  0  0  0  0  0
    2.6291   -4.9676    0.0000 C    0  0  0  0  0  0  0  0  0  0  0  0
    1.2008   -3.0842    0.0000 C    0  0  0  0  0  0  0  0  0  0  0  0
    1.7823   -1.8834    0.0000 C    0  0  0  0  0  0  0  0  0  0  0  0
    0.6194   -4.2850    0.0000 C    0  0  0  0  0  0  0  0  0  0  0  0
    0.0000   -2.5027    0.0000 O    0  0  0  0  0  0  0  0  0  0  0  0
    6.2189    0.0000    0.0000 Na   0  3  0  0  0  0  0  0  0  0  0  0
  1  2  1  0  0  0  0
  1  3  2  0  0  0  0
  1  4  1  0  0  0  0
  2  5  2  0  0  0  0
  2  6  1  0  0  0  0
  3  7  1  0  0  0  0
  3  8  1  0  0  0  0
  4  9  1  0  0  0  0
  5 10  1  0  0  0  0
  6 11  1  0  0  0  0
  6 12  1  0  0  0  0
  7 10  2  0  0  0  0
  8 13  1  0  0  0  0
  8 14  1  0  0  0  0
  9 15  1  0  0  0  0
  9 16  2  0  0  0  0
 15 17  1  0  0  0  0
 17 18  1  0  0  0  0
 17 19  2  0  0  0  0
 17 20  2  0  0  0  0
 18 21  2  0  0  0  0
 18 22  1  0  0  0  0
 21 23  1  0  0  0  0
 22 24  1  0  0  0  0
 23 25  1  0  0  0  0
 23 24  2  0  0  0  0
 25 26  1  0  0  0  0
 25 27  1  0  0  0  0
 25 28  1  0  0  0  0
M  END
> <ID>
12397

> <Formula>
C20H27N2NaO5S

> <FW>
430.4935 (407.5043+22.9892)

> <DSSTox_CID>
27255

> <DSSTox_RID>
82214

> <DSSTox_GSID>
47255

> <DSSTox_FileID_Sort>
6895

> <TS_ChemName>
CP-465394

> <TS_ChemName_Synonyms>


> <TS_CASRN>
NOCAS_47255

> <CASRN_ChemName_Relationship>
no CAS assigned

> <TS_Description>
single chemical compound

> <ChemNote>


> <STRUCTURE_Shown>
tested chemical

> <STRUCTURE_Formula>
C20H27N2NaO5S

> <STRUCTURE_MW>
430.4935

> <STRUCTURE_ChemType>
defined organic

> <STRUCTURE_DefinedOrganicForm>
salt

> <STRUCTURE_IUPAC>
sodium {[2,6-di(propan-2-yl)phenyl]carbamoyl}{[4-(2-hydroxypropan-2-yl)furan-2-yl]sulfonyl}azanide

> <STRUCTURE_SMILES>
[Na+].OC(C)(C)c1coc(c1)S(=O)(=O)[N-]C(=O)Nc2c(cccc2C(C)C)C(C)C

> <STRUCTURE_SMILES_Desalt>
OC(C)(C)c1coc(c1)S(=O)(=O)NC(=O)Nc2c(cccc2C(C)C)C(C)C

> <Substance_modify_yyyymmdd>
20130910

$$$$
