NOCAS_47333
ChemmineR-0915142007XD

 28 30  0  0  1  0  0  0  0  0  1 V2000
    1.1471   -5.2587    0.0000 C   0  0  0  0  0  0  0  0  0  0  0  0
    2.2793   -5.9737    0.0000 C   0  0  0  0  0  0  0  0  0  0  0  0
    3.4114   -5.2587    0.0000 C   0  0  0  0  0  0  0  0  0  0  0  0
    4.5585   -5.9737    0.0000 C   0  0  0  0  0  0  0  0  0  0  0  0
    5.7503   -5.2587    0.0000 C   0  0  0  0  0  0  0  0  0  0  0  0
    6.8974   -5.9737    0.0000 C   0  0  0  0  0  0  0  0  0  0  0  0
    8.0444   -5.2587    0.0000 C   0  0  0  0  0  0  0  0  0  0  0  0
    9.1915   -5.9737    0.0000 C   0  0  0  0  0  0  0  0  0  0  0  0
   10.3386   -5.2587    0.0000 C   0  0  0  0  0  0  0  0  0  0  0  0
    1.1471   -3.9775    0.0000 O   0  0  0  0  0  0  0  0  0  0  0  0
    0.0000   -5.9737    0.0000 O   0  0  0  0  0  0  0  0  0  0  0  0
    2.3240   -1.9813    0.0000 N   0  0  0  0  0  0  0  0  0  0  0  0
    4.6181   -1.9813    0.0000 N   0  0  0  0  0  0  0  0  0  0  0  0
    3.4114   -1.3407    0.0000 C   0  0  0  0  0  0  0  0  0  0  0  0
    3.4114   -3.9775    0.0000 C   0  0  0  0  0  0  0  0  0  0  0  0
    2.2793   -3.3221    0.0000 C   0  0  0  0  0  0  0  0  0  0  0  0
    4.5585   -3.3221    0.0000 C   0  0  0  0  0  0  0  0  0  0  0  0
    3.4114    0.0000    0.0000 C   0  0  0  0  0  0  0  0  0  0  0  0
   11.5304   -7.3145    0.0000 N   0  0  0  0  0  0  0  0  0  0  0  0
   11.4857   -5.9737    0.0000 C   0  0  0  0  0  0  0  0  0  0  0  0
   12.6179   -5.2587    0.0000 C   0  0  0  0  0  0  0  0  0  0  0  0
   13.8096   -5.9737    0.0000 C   0  0  0  0  0  0  0  0  0  0  0  0
   13.8096   -7.3145    0.0000 C   0  0  0  0  0  0  0  0  0  0  0  0
   14.8971   -7.9551    0.0000 C   0  0  0  0  0  0  0  0  0  0  0  0
   14.8971   -9.2362    0.0000 C   0  0  0  0  0  0  0  0  0  0  0  0
   13.7500   -9.9364    0.0000 C   0  0  0  0  0  0  0  0  0  0  0  0
   12.6179   -9.2362    0.0000 N   0  0  0  0  0  0  0  0  0  0  0  0
   12.6179   -7.9551    0.0000 C   0  0  0  0  0  0  0  0  0  0  0  0
  1  2  1  0  0  0  0
  1 11  1  0  0  0  0
  1 10  2  0  0  0  0
  2  3  1  0  0  0  0
  3  4  1  1  0  0  0
  3 15  1  0  0  0  0
  4  5  1  0  0  0  0
  5  6  1  0  0  0  0
  6  7  1  0  0  0  0
  7  8  1  0  0  0  0
  8  9  1  0  0  0  0
  9 20  1  0  0  0  0
 12 14  2  0  0  0  0
 12 16  1  0  0  0  0
 13 14  1  0  0  0  0
 13 17  2  0  0  0  0
 14 18  1  0  0  0  0
 15 16  2  0  0  0  0
 15 17  1  0  0  0  0
 19 20  2  0  0  0  0
 19 28  1  0  0  0  0
 20 21  1  0  0  0  0
 21 22  2  0  0  0  0
 22 23  1  0  0  0  0
 23 24  1  0  0  0  0
 23 28  2  0  0  0  0
 24 25  1  0  0  0  0
 25 26  1  0  0  0  0
 26 27  1  0  0  0  0
 27 28  1  0  0  0  0
M  END
> <ID>
12475

> <Formula>
C22H30N4O2

> <FW>
382.4992

> <DSSTox_CID>
27333

> <DSSTox_RID>
82276

> <DSSTox_GSID>
47333

> <DSSTox_FileID_Sort>
6957

> <TS_ChemName>
PharmaGSID_47333

> <TS_ChemName_Synonyms>


> <TS_CASRN>
NOCAS_47333

> <CASRN_ChemName_Relationship>
no CAS assigned

> <TS_Description>
single chemical compound

> <ChemNote>
stereochem

> <STRUCTURE_Shown>
tested chemical

> <STRUCTURE_Formula>
C22H30N4O2

> <STRUCTURE_MW>
382.4992

> <STRUCTURE_ChemType>
defined organic

> <STRUCTURE_DefinedOrganicForm>
parent

> <STRUCTURE_IUPAC>
(3S)-3-(2-methylpyrimidin-5-yl)-9-(5,6,7,8-tetrahydro-1,8-naphthyridin-2-yl)nonanoic acid

> <STRUCTURE_SMILES>
Cc1ncc(cn1)[C@H](CC(=O)O)CCCCCCc2ccc3CCCNc3n2

> <STRUCTURE_SMILES_Desalt>
Cc1ncc(cn1)[C@H](CC(=O)O)CCCCCCc2ccc3CCCNc3n2

> <Substance_modify_yyyymmdd>
20130910

$$$$
