NOCAS_49385
ChemmineR-0915142007XD

 18 17  0  0  0  0  0  0  0  0  2 V2000
    8.7779   -6.2938    0.0000 C   0  0  0  0  0  0  0  0  0  0  0  0
    5.3194   -2.9669    0.0000 C   0  0  0  0  0  0  0  0  0  0  0  0
    7.6280   -5.6266    0.0000 C   0  0  0  0  0  0  0  0  0  0  0  0
    7.6280   -4.3012    0.0000 C   0  0  0  0  0  0  0  0  0  0  0  0
    7.8036    0.0000    0.0000 C   0  0  0  0  0  0  0  0  0  0  0  0
    6.4781    0.0000    0.0000 C   0  0  0  0  0  0  0  0  0  0  0  0
    8.4707   -1.1499    0.0000 C   0  0  0  0  0  0  0  0  0  0  0  0
    6.4781   -3.6341    0.0000 C   0  0  0  0  0  0  0  0  0  0  0  0
    5.8110   -1.1499    0.0000 C   0  0  0  0  0  0  0  0  0  0  0  0
    7.8036   -2.3086    0.0000 C   0  0  0  0  0  0  0  0  0  0  0  0
    6.4781   -2.3086    0.0000 N   0  3  0  0  0  0  0  0  0  0  0  0
    0.0000   -1.1499    0.0000 F   0  0  0  0  0  0  0  0  0  0  0  0
    0.6671   -2.3086    0.0000 F   0  0  0  0  0  0  0  0  0  0  0  0
    1.9926   -2.3086    0.0000 F   0  0  0  0  0  0  0  0  0  0  0  0
    1.9926    0.0000    0.0000 F   0  0  0  0  0  0  0  0  0  0  0  0
    0.6671    0.0000    0.0000 F   0  0  0  0  0  0  0  0  0  0  0  0
    2.6597   -1.1499    0.0000 F   0  0  0  0  0  0  0  0  0  0  0  0
    1.3255   -1.1499    0.0000 P   0  5  0  0  0  0  0  0  0  0  0  0
  1  3  1  0  0  0  0
  2 11  1  0  0  0  0
  3  4  1  0  0  0  0
  4  8  1  0  0  0  0
  5  6  1  0  0  0  0
  5  7  1  0  0  0  0
  6  9  1  0  0  0  0
  7 10  1  0  0  0  0
  8 11  1  0  0  0  0
  9 11  1  0  0  0  0
 10 11  1  0  0  0  0
 12 18  1  0  0  0  0
 13 18  1  0  0  0  0
 14 18  1  0  0  0  0
 15 18  1  0  0  0  0
 16 18  1  0  0  0  0
 17 18  1  0  0  0  0
M  END
> <ID>
14249

> <Formula>
C10H22F6NP

> <FW>
301.2526 (156.2878+144.9647)

> <DSSTox_CID>
29344

> <DSSTox_RID>
83460

> <DSSTox_GSID>
49385

> <DSSTox_FileID_Sort>
8135

> <TS_ChemName>
1-Butyl-1-methylpiperidinium hexafluorophosphate

> <TS_ChemName_Synonyms>


> <TS_CASRN>
NOCAS_49385

> <CASRN_ChemName_Relationship>
no CAS assigned

> <TS_Description>
single chemical compound

> <ChemNote>


> <STRUCTURE_Shown>
tested chemical

> <STRUCTURE_Formula>
C10H22F6NP

> <STRUCTURE_MW>
301.2526

> <STRUCTURE_ChemType>
defined organic

> <STRUCTURE_DefinedOrganicForm>
complex

> <STRUCTURE_IUPAC>
1-butyl-1-methylpiperidinium hexafluorophosphate

> <STRUCTURE_SMILES>
F[P-](F)(F)(F)(F)F.C[N+]1(CCCC)CCCCC1

> <STRUCTURE_SMILES_Desalt>
C[N+]1(CCCC)CCCCC1

> <Substance_modify_yyyymmdd>
20111204

$$$$
