NOCAS_47349
ChemmineR-0915142007XD

 32 34  0  0  1  0  0  0  0  0  1 V2000
    4.2639   -2.0213    0.0000 C    0  0  0  0  0  0  0  0  0  0  0  0
    3.7180   -3.2311    0.0000 N    0  0  0  0  0  0  0  0  0  0  0  0
    3.4820   -0.9443    0.0000 C    0  0  0  0  0  0  0  0  0  0  0  0
    2.4049   -3.3639    0.0000 C    0  0  0  0  0  0  0  0  0  0  0  0
    2.1688   -1.0770    0.0000 N    0  0  0  0  0  0  0  0  0  0  0  0
    1.6377   -2.2869    0.0000 C    0  0  0  0  0  0  0  0  0  0  0  0
    1.8590   -4.5738    0.0000 C    0  0  0  0  0  0  0  0  0  0  0  0
    2.6410   -5.6508    0.0000 C    0  0  0  0  0  0  0  0  0  0  0  0
    0.5459   -4.7213    0.0000 C    0  0  0  0  0  0  0  0  0  0  0  0
    2.1098   -6.8754    0.0000 C    0  0  0  0  0  0  0  0  0  0  0  0
    0.0000   -5.9311    0.0000 C    0  0  0  0  0  0  0  0  0  0  0  0
    0.7820   -7.0082    0.0000 C    0  0  0  0  0  0  0  0  0  0  0  0
    4.5147   -4.3082    0.0000 C    0  0  0  0  0  0  0  0  0  0  0  0
    5.8278   -4.1754    0.0000 C    0  0  0  0  0  0  0  0  0  0  0  0
    6.5065   -3.0098    0.0000 O    0  0  0  0  0  0  0  0  0  0  0  0
    6.7131   -5.1639    0.0000 C    0  0  0  0  0  0  0  0  0  0  0  0
    7.8049   -3.3049    0.0000 C    0  0  0  0  0  0  0  0  0  0  0  0
    7.9229   -4.6180    0.0000 C    0  0  0  0  0  0  0  0  0  0  0  0
    9.0885   -5.2967    0.0000 C    0  0  0  0  0  0  0  0  0  0  0  0
   10.2245   -4.6180    0.0000 C    0  0  0  0  0  0  0  0  0  0  0  0
    9.0737   -6.6098    0.0000 C    0  0  0  0  0  0  0  0  0  0  0  0
   11.3754   -5.2967    0.0000 C    0  0  0  0  0  0  0  0  0  0  0  0
   10.2245   -7.2885    0.0000 C    0  0  0  0  0  0  0  0  0  0  0  0
   11.3754   -6.6246    0.0000 C    0  0  0  0  0  0  0  0  0  0  0  0
   12.6590   -4.8836    0.0000 O    0  0  0  0  0  0  0  0  0  0  0  0
   13.4262   -5.9606    0.0000 C    0  0  0  0  0  0  0  0  0  0  0  0
   12.6442   -7.0524    0.0000 N    0  0  0  0  0  0  0  0  0  0  0  0
    0.2213   -8.2180    0.0000 F    0  0  0  0  0  0  0  0  0  0  0  0
   14.7540   -5.9606    0.0000 O    0  0  0  0  0  0  0  0  0  0  0  0
    1.3869    0.0000    0.0000 C    0  0  0  0  0  0  0  0  0  0  0  0
    6.1377   -6.1819    0.0000 O    0  0  0  0  0  0  0  0  0  0  0  0
    7.5393   -7.2442    0.0000 Cl   0  0  0  0  0  0  0  0  0  0  0  0
  1  2  1  0  0  0  0
  1  3  1  0  0  0  0
  2  4  1  0  0  0  0
  2 13  1  0  0  0  0
  3  5  1  0  0  0  0
  4  6  1  0  0  0  0
  4  7  1  1  0  0  0
  5  6  1  0  0  0  0
  5 30  1  0  0  0  0
  7  8  2  0  0  0  0
  7  9  1  0  0  0  0
  8 10  1  0  0  0  0
  9 11  2  0  0  0  0
 10 12  2  0  0  0  0
 11 12  1  0  0  0  0
 12 28  1  0  0  0  0
 13 14  1  0  0  0  0
 14 15  1  0  0  0  0
 14 16  2  0  0  0  0
 15 17  1  0  0  0  0
 16 18  1  0  0  0  0
 17 18  2  0  0  0  0
 18 19  1  0  0  0  0
 19 20  1  0  0  0  0
 19 21  2  0  0  0  0
 20 22  2  0  0  0  0
 21 23  1  0  0  0  0
 22 25  1  0  0  0  0
 22 24  1  0  0  0  0
 23 24  2  0  0  0  0
 24 27  1  0  0  0  0
 25 26  1  0  0  0  0
 26 27  2  0  0  0  0
 26 29  1  0  0  0  0
M  END
> <ID>
12491

> <Formula>
C23H25ClFN3O4

> <FW>
461.9137 (407.4375+18.0153+36.4609)

> <DSSTox_CID>
27349

> <DSSTox_RID>
82288

> <DSSTox_GSID>
47349

> <DSSTox_FileID_Sort>
6969

> <TS_ChemName>
AVE8488

> <TS_ChemName_Synonyms>
A003268488B

> <TS_CASRN>
NOCAS_47349

> <CASRN_ChemName_Relationship>
no CAS assigned

> <TS_Description>
single chemical compound

> <ChemNote>
tautomers; stereochem

> <STRUCTURE_Shown>
tested chemical

> <STRUCTURE_Formula>
C23H25ClFN3O4

> <STRUCTURE_MW>
461.9137

> <STRUCTURE_ChemType>
defined organic

> <STRUCTURE_DefinedOrganicForm>
complex

> <STRUCTURE_IUPAC>
6-(5-{[(2S)-2-(4-fluorophenyl)-4-methylpiperazin-1-yl]methyl}furan-3-yl)-1,3-benzoxazol-2-ol hydrochloride hydrate

> <STRUCTURE_SMILES>
Cl.O.Fc1ccc(cc1)[C@H]5CN(C)CCN5Cc2cc(co2)c3ccc4nc(O)oc4c3

> <STRUCTURE_SMILES_Desalt>
Fc1ccc(cc1)[C@H]5CN(C)CCN5Cc2cc(co2)c3ccc4nc(O)oc4c3

> <Substance_modify_yyyymmdd>
20130910

$$$$
