NOCAS_47299
ChemmineR-0915142007XD

 33 35  0  0  1  0  0  0  0  0  1 V2000
    6.4991   -3.9994    0.0000 C   0  0  0  0  0  0  0  0  0  0  0  0
    5.6381   -5.0271    0.0000 C   0  0  0  0  0  0  0  0  0  0  0  0
    7.4989   -4.8465    0.0000 N   0  0  0  0  0  0  0  0  0  0  0  0
    7.6517   -3.3190    0.0000 C   0  0  0  0  0  0  0  0  0  0  0  0
    5.3465   -3.3190    0.0000 C   0  0  0  0  0  0  0  0  0  0  0  0
    4.3327   -4.7910    0.0000 C   0  0  0  0  0  0  0  0  0  0  0  0
    6.0964   -6.2630    0.0000 C   0  0  0  0  0  0  0  0  0  0  0  0
    7.2629   -6.1658    0.0000 C   0  0  0  0  0  0  0  0  0  0  0  0
    8.7488   -4.4022    0.0000 C   0  0  0  0  0  0  0  0  0  0  0  0
    7.6517   -1.9997    0.0000 C   0  0  0  0  0  0  0  0  0  0  0  0
    5.3465   -1.9997    0.0000 C   0  0  0  0  0  0  0  0  0  0  0  0
    3.4856   -5.8047    0.0000 C   0  0  0  0  0  0  0  0  0  0  0  0
    5.2493   -7.2768    0.0000 C   0  0  0  0  0  0  0  0  0  0  0  0
    8.2766   -7.0129    0.0000 C   0  0  0  0  0  0  0  0  0  0  0  0
    9.7625   -5.2493    0.0000 C   0  0  0  0  0  0  0  0  0  0  0  0
    6.4991   -1.3331    0.0000 C   0  0  0  0  0  0  0  0  0  0  0  0
    3.9439   -7.0684    0.0000 C   0  0  0  0  0  0  0  0  0  0  0  0
    2.1664   -5.5687    0.0000 O   0  0  0  0  0  0  0  0  0  0  0  0
    9.5264   -6.5685    0.0000 N   0  0  0  0  0  0  0  0  0  0  0  0
    6.4991    0.0000    0.0000 C   0  0  0  0  0  0  0  0  0  0  0  0
    1.3193   -6.5963    0.0000 C   0  0  0  0  0  0  0  0  0  0  0  0
   10.5541   -7.4156    0.0000 C   0  0  0  0  0  0  0  0  0  0  0  0
    0.0000   -6.3741    0.0000 C   0  0  0  0  0  0  0  0  0  0  0  0
   10.3041   -8.7349    0.0000 C   0  0  0  0  0  0  0  0  0  0  0  0
   11.8039   -6.9712    0.0000 C   0  0  0  0  0  0  0  0  0  0  0  0
   11.3178   -9.5959    0.0000 C   0  0  0  0  0  0  0  0  0  0  0  0
   12.8176   -7.8322    0.0000 C   0  0  0  0  0  0  0  0  0  0  0  0
   12.5677   -9.1515    0.0000 C   0  0  0  0  0  0  0  0  0  0  0  0
   11.2206   -3.7495    0.0000 C   0  0  0  0  0  0  0  0  0  0  0  0
   12.5538   -3.7495    0.0000 S   0  0  0  0  0  0  0  0  0  0  0  0
   12.5538   -5.0687    0.0000 O   0  0  0  0  0  0  0  0  0  0  0  0
   12.5538   -2.4163    0.0000 O   0  0  0  0  0  0  0  0  0  0  0  0
   13.8869   -3.7495    0.0000 O   0  0  0  0  0  0  0  0  0  0  0  0
  1  2  1  6  0  0  0
  1  3  1  1  0  0  0
  1  4  1  0  0  0  0
  1  5  1  0  0  0  0
  2  6  2  0  0  0  0
  2  7  1  0  0  0  0
  3  8  1  0  0  0  0
  3  9  1  0  0  0  0
  4 10  1  0  0  0  0
  5 11  1  0  0  0  0
  6 12  1  0  0  0  0
  7 13  2  0  0  0  0
  8 14  1  0  0  0  0
  9 15  1  0  0  0  0
 10 16  1  0  0  0  0
 11 16  1  0  0  0  0
 12 17  2  0  0  0  0
 12 18  1  0  0  0  0
 13 17  1  0  0  0  0
 14 19  1  0  0  0  0
 15 19  1  0  0  0  0
 16 20  1  1  0  0  0
 18 21  1  0  0  0  0
 19 22  1  0  0  0  0
 21 23  1  0  0  0  0
 22 24  1  0  0  0  0
 22 25  2  0  0  0  0
 24 26  2  0  0  0  0
 25 27  1  0  0  0  0
 26 28  1  0  0  0  0
 27 28  2  0  0  0  0
 29 30  1  0  0  0  0
 30 31  2  0  0  0  0
 30 32  1  0  0  0  0
 30 33  2  0  0  0  0
M  END
> <ID>
12441

> <Formula>
C26H38N2O4S

> <FW>
474.6559 (378.5503+96.1057)

> <DSSTox_CID>
27299

> <DSSTox_RID>
82251

> <DSSTox_GSID>
47299

> <DSSTox_FileID_Sort>
6932

> <TS_ChemName>
CP-422935

> <TS_ChemName_Synonyms>


> <TS_CASRN>
NOCAS_47299

> <CASRN_ChemName_Relationship>
no CAS assigned

> <TS_Description>
single chemical compound

> <ChemNote>
stereochem

> <STRUCTURE_Shown>
tested chemical

> <STRUCTURE_Formula>
C26H38N2O4S

> <STRUCTURE_MW>
474.6559

> <STRUCTURE_ChemType>
defined organic

> <STRUCTURE_DefinedOrganicForm>
complex

> <STRUCTURE_IUPAC>
1-[cis-1-(3-ethoxyphenyl)-4-methylcyclohexyl]-4-phenylpiperazine methanesulfonate (1:1)

> <STRUCTURE_SMILES>
CS(=O)(=O)O.CCOc1cccc(c1)[C@@]2(CC[C@@H](C)CC2)N3CCN(CC3)c4ccccc4

> <STRUCTURE_SMILES_Desalt>
CCOc1cccc(c1)[C@@]2(CC[C@@H](C)CC2)N3CCN(CC3)c4ccccc4

> <Substance_modify_yyyymmdd>
20130910

$$$$
