NOCAS_48505
ChemmineR-0915142007XD

 25 28  0  0  0  0  0  0  0  0  2 V2000
    6.0272   -0.3861    0.0000 N    0  0  0  0  0  0  0  0  0  0  0  0
    7.1762   -0.9512    0.0000 C    0  0  0  0  0  0  0  0  0  0  0  0
    7.4493   -2.2602    0.0000 C    0  0  0  0  0  0  0  0  0  0  0  0
    6.6205   -3.2491    0.0000 N    0  0  0  0  0  0  0  0  0  0  0  0
    5.3115   -3.2491    0.0000 C    0  0  0  0  0  0  0  0  0  0  0  0
    4.4922   -2.1943    0.0000 C    0  0  0  0  0  0  0  0  0  0  0  0
    4.8312   -0.9135    0.0000 C    0  0  0  0  0  0  0  0  0  0  0  0
    3.8518    0.0000    0.0000 C    0  0  0  0  0  0  0  0  0  0  0  0
    2.5710   -0.3579    0.0000 C    0  0  0  0  0  0  0  0  0  0  0  0
    2.2414   -1.6387    0.0000 C    0  0  0  0  0  0  0  0  0  0  0  0
    3.2114   -2.5145    0.0000 C    0  0  0  0  0  0  0  0  0  0  0  0
    8.3628   -0.2731    0.0000 N    0  0  0  0  0  0  0  0  0  0  0  0
    9.3893   -1.2149    0.0000 N    0  0  0  0  0  0  0  0  0  0  0  0
    8.7960   -2.4486    0.0000 C    0  0  0  0  0  0  0  0  0  0  0  0
    4.7182   -6.7995    0.0000 C    0  0  0  0  0  0  0  0  0  0  0  0
    3.3903   -6.7995    0.0000 C    0  0  0  0  0  0  0  0  0  0  0  0
    2.7217   -5.6505    0.0000 C    0  0  0  0  0  0  0  0  0  0  0  0
    3.3903   -4.5016    0.0000 C    0  0  0  0  0  0  0  0  0  0  0  0
    4.7182   -4.5016    0.0000 C    0  0  0  0  0  0  0  0  0  0  0  0
    5.3680   -5.6505    0.0000 C    0  0  0  0  0  0  0  0  0  0  0  0
    6.6959   -5.6505    0.0000 Cl   0  0  0  0  0  0  0  0  0  0  0  0
    9.4176   -3.5881    0.0000 C    0  0  0  0  0  0  0  0  0  0  0  0
    0.9794   -2.0154    0.0000 N    0  3  0  0  0  0  0  0  0  0  0  0
    0.0000   -1.1207    0.0000 O    0  5  0  0  0  0  0  0  0  0  0  0
    0.6592   -3.3150    0.0000 O    0  0  0  0  0  0  0  0  0  0  0  0
  1  2  1  0  0  0  0
  1  7  1  0  0  0  0
  2  3  1  0  0  0  0
  2 12  2  0  0  0  0
  3  4  1  0  0  0  0
  3 14  2  0  0  0  0
  4  5  2  0  0  0  0
  5  6  1  0  0  0  0
  5 19  1  0  0  0  0
  6  7  2  0  0  0  0
  6 11  1  0  0  0  0
  7  8  1  0  0  0  0
  8  9  2  0  0  0  0
  9 10  1  0  0  0  0
 10 11  2  0  0  0  0
 10 23  1  0  0  0  0
 12 13  1  0  0  0  0
 13 14  1  0  0  0  0
 14 22  1  0  0  0  0
 15 20  2  0  0  0  0
 15 16  1  0  0  0  0
 16 17  2  0  0  0  0
 17 18  1  0  0  0  0
 18 19  2  0  0  0  0
 19 20  1  0  0  0  0
 20 21  1  0  0  0  0
 23 24  1  0  0  0  0
 23 25  2  0  0  0  0
M  END
> <ID>
13553

> <Formula>
C17H12ClN5O2

> <FW>
353.7625

> <DSSTox_CID>
28479

> <DSSTox_RID>
82757

> <DSSTox_GSID>
48505

> <DSSTox_FileID_Sort>
7434

> <TS_ChemName>
PharmaGSID_48505

> <TS_ChemName_Synonyms>
5-(2-Chlorophenyl)-3-methyl-7-nitro-2,10-dihydropyrazolo[3,4-b][1,4]benzodiazepine

> <TS_CASRN>
NOCAS_48505

> <CASRN_ChemName_Relationship>
no CAS assigned

> <TS_Description>
single chemical compound

> <ChemNote>
tautomers

> <STRUCTURE_Shown>
tested chemical

> <STRUCTURE_Formula>
C17H12ClN5O2

> <STRUCTURE_MW>
353.7625

> <STRUCTURE_ChemType>
defined organic

> <STRUCTURE_DefinedOrganicForm>
parent

> <STRUCTURE_IUPAC>
5-(2-chlorophenyl)-3-methyl-7-nitro-2,10-dihydropyrazolo[3,4-b][1,4]benzodiazepine

> <STRUCTURE_SMILES>
[O-][N+](=O)c1cc2C(=Nc3c(Nc2cc1)nnc3C)c4ccccc4Cl

> <STRUCTURE_SMILES_Desalt>
[O-][N+](=O)c1cc2C(=Nc3c(Nc2cc1)nnc3C)c4ccccc4Cl

> <Substance_modify_yyyymmdd>
20130910

$$$$
