NOCAS_47387
ChemmineR-0915142007XD

 48 51  0  0  1  0  0  0  0  0  1 V2000
    4.6094   -2.6624    0.0000 C    0  0  0  0  0  0  0  0  0  0  0  0
    5.7705   -1.9939    0.0000 C    0  0  0  0  0  0  0  0  0  0  0  0
    3.4599   -2.0056    0.0000 N    0  0  0  0  0  0  0  0  0  0  0  0
    5.7470   -0.6568    0.0000 O    0  0  0  0  0  0  0  0  0  0  0  0
    3.4599   -0.6803    0.0000 C    0  0  0  0  0  0  0  0  0  0  0  0
    4.5976    0.0000    0.0000 C    0  0  0  0  0  0  0  0  0  0  0  0
    6.4390   -3.1433    0.0000 C    0  0  0  0  0  0  0  0  0  0  0  0
    7.0958   -1.9939    0.0000 C    0  0  0  0  0  0  0  0  0  0  0  0
    2.3105   -2.6859    0.0000 C    0  0  0  0  0  0  0  0  0  0  0  0
    2.3340   -3.9995    0.0000 C    0  0  0  0  0  0  0  0  0  0  0  0
    1.1611   -2.0291    0.0000 C    0  0  0  0  0  0  0  0  0  0  0  0
    1.1729   -4.6797    0.0000 C    0  0  0  0  0  0  0  0  0  0  0  0
    0.0000   -2.6859    0.0000 C    0  0  0  0  0  0  0  0  0  0  0  0
    0.0117   -4.0112    0.0000 C    0  0  0  0  0  0  0  0  0  0  0  0
    9.7582   -1.9704    0.0000 C    0  0  0  0  0  0  0  0  0  0  0  0
    9.0897   -3.1315    0.0000 C    0  0  0  0  0  0  0  0  0  0  0  0
    9.0780   -0.8210    0.0000 C    0  0  0  0  0  0  0  0  0  0  0  0
    7.7644   -3.1315    0.0000 C    0  0  0  0  0  0  0  0  0  0  0  0
    7.7644   -0.8327    0.0000 C    0  0  0  0  0  0  0  0  0  0  0  0
   11.0836   -1.9587    0.0000 Cl   0  0  0  0  0  0  0  0  0  0  0  0
    9.7700   -4.2692    0.0000 Cl   0  0  0  0  0  0  0  0  0  0  0  0
    5.7822   -4.3044    0.0000 C    0  0  0  0  0  0  0  0  0  0  0  0
    6.4625   -5.4421    0.0000 N    0  0  0  0  0  0  0  0  0  0  0  0
    5.8057   -6.6032    0.0000 C    0  0  0  0  0  0  0  0  0  0  0  0
    7.7761   -5.4421    0.0000 C    0  0  0  0  0  0  0  0  0  0  0  0
    6.4742   -7.7644    0.0000 C    0  0  0  0  0  0  0  0  0  0  0  0
    8.4681   -6.5915    0.0000 C    0  0  0  0  0  0  0  0  0  0  0  0
    7.8113   -7.7409    0.0000 C    0  0  0  0  0  0  0  0  0  0  0  0
    7.8113   -9.0780    0.0000 C    0  0  0  0  0  0  0  0  0  0  0  0
    6.6619   -9.7348    0.0000 C    0  0  0  0  0  0  0  0  0  0  0  0
    8.9607   -9.7348    0.0000 C    0  0  0  0  0  0  0  0  0  0  0  0
    6.6619  -11.0718    0.0000 C    0  0  0  0  0  0  0  0  0  0  0  0
    8.9607  -11.0484    0.0000 C    0  0  0  0  0  0  0  0  0  0  0  0
    7.8230  -11.7286    0.0000 C    0  0  0  0  0  0  0  0  0  0  0  0
    8.9607   -8.3977    0.0000 N    0  0  0  0  0  0  0  0  0  0  0  0
   10.1101   -7.7292    0.0000 C    0  0  0  0  0  0  0  0  0  0  0  0
   10.1101   -6.4156    0.0000 O    0  0  0  0  0  0  0  0  0  0  0  0
   11.2595   -8.3860    0.0000 C    0  0  0  0  0  0  0  0  0  0  0  0
   10.1218  -11.7169    0.0000 F    0  0  0  0  0  0  0  0  0  0  0  0
    2.2988   -0.0117    0.0000 O    0  0  0  0  0  0  0  0  0  0  0  0
    4.8557   -9.0780    0.0000 C    0  0  0  0  0  0  0  0  0  0  0  0
    1.3840   -8.4329    0.0000 C    0  0  0  0  0  0  0  0  0  0  0  0
    5.9933   -8.3977    0.0000 O    0  0  0  0  0  0  0  0  0  0  0  0
    0.2463   -9.0780    0.0000 O    0  0  0  0  0  0  0  0  0  0  0  0
    4.8205  -10.4268    0.0000 O    0  0  0  0  0  0  0  0  0  0  0  0
    1.3840   -7.0841    0.0000 O    0  0  0  0  0  0  0  0  0  0  0  0
    2.5334   -9.0780    0.0000 C    0  0  0  0  0  0  0  0  0  0  0  0
    3.6945   -8.3977    0.0000 C    0  0  0  0  0  0  0  0  0  0  0  0
  1  2  1  0  0  0  0
  1  3  1  0  0  0  0
  2  4  1  1  0  0  0
  2  7  1  1  0  0  0
  2  8  1  0  0  0  0
  3  5  1  0  0  0  0
  3  9  1  0  0  0  0
  4  6  1  0  0  0  0
  5  6  1  0  0  0  0
  5 40  2  0  0  0  0
  7 22  1  0  0  0  0
  8 18  1  0  0  0  0
  8 19  2  0  0  0  0
  9 10  1  0  0  0  0
  9 11  2  0  0  0  0
 10 12  2  0  0  0  0
 11 13  1  0  0  0  0
 12 14  1  0  0  0  0
 13 14  2  0  0  0  0
 15 16  1  0  0  0  0
 15 17  2  0  0  0  0
 15 20  1  0  0  0  0
 16 18  2  0  0  0  0
 16 21  1  0  0  0  0
 17 19  1  0  0  0  0
 22 23  1  0  0  0  0
 23 24  1  0  0  0  0
 23 25  1  0  0  0  0
 24 26  1  0  0  0  0
 25 27  1  0  0  0  0
 26 28  1  0  0  0  0
 27 28  1  0  0  0  0
 28 29  1  0  0  0  0
 28 35  1  0  0  0  0
 29 30  2  0  0  0  0
 29 31  1  0  0  0  0
 30 32  1  0  0  0  0
 31 33  2  0  0  0  0
 32 34  2  0  0  0  0
 33 34  1  0  0  0  0
 33 39  1  0  0  0  0
 35 36  1  0  0  0  0
 36 37  2  0  0  0  0
 36 38  1  0  0  0  0
 41 43  2  0  0  0  0
 41 45  1  0  0  0  0
 41 48  1  0  0  0  0
 42 47  1  0  0  0  0
 42 44  2  0  0  0  0
 42 46  1  0  0  0  0
 47 48  1  0  0  0  0
M  END
> <ID>
12529

> <Formula>
C35H38Cl2FN3O7

> <FW>
702.5965 (584.5085+118.0880)

> <DSSTox_CID>
27387

> <DSSTox_RID>
82313

> <DSSTox_GSID>
47387

> <DSSTox_FileID_Sort>
6994

> <TS_ChemName>
SAR102779

> <TS_ChemName_Synonyms>


> <TS_CASRN>
NOCAS_47387

> <CASRN_ChemName_Relationship>
no CAS assigned

> <TS_Description>
single chemical compound

> <ChemNote>


> <STRUCTURE_Shown>
tested chemical

> <STRUCTURE_Formula>
C35H38Cl2FN3O7

> <STRUCTURE_MW>
702.5965

> <STRUCTURE_ChemType>
defined organic

> <STRUCTURE_DefinedOrganicForm>
complex

> <STRUCTURE_IUPAC>
N-[1-{2-[(2R)-2-(3,4-dichlorophenyl)-5-oxo-4-phenylmorpholin-2-yl]ethyl}-4-(3-fluorophenyl)piperidin-4-yl]acetamide butanedioate (1:1)

> <STRUCTURE_SMILES>
O=C2CO[C@](CN2c1ccccc1)(CCN3CCC(NC(C)=O)(CC3)c4cccc(F)c4)c5ccc(Cl)c(Cl)c5.O=C(O)CCC(=O)O

> <STRUCTURE_SMILES_Desalt>
O=C2CO[C@](CN2c1ccccc1)(CCN3CCC(NC(C)=O)(CC3)c4cccc(F)c4)c5ccc(Cl)c(Cl)c5

> <Substance_modify_yyyymmdd>
20130910

$$$$
