NOCAS_47267
ChemmineR-0915142007XD

 25 27  0  0  1  0  0  0  0  0  1 V2000
    2.3077   -6.6480    0.0000 N   0  0  0  0  0  0  0  0  0  0  0  0
    2.3077   -7.9752    0.0000 C   0  0  0  0  0  0  0  0  0  0  0  0
    1.1478   -5.9903    0.0000 C   0  0  0  0  0  0  0  0  0  0  0  0
    3.4555   -5.9903    0.0000 C   0  0  0  0  0  0  0  0  0  0  0  0
    3.4555   -8.6447    0.0000 N   0  0  0  0  0  0  0  0  0  0  0  0
    1.1478   -8.6447    0.0000 C   0  0  0  0  0  0  0  0  0  0  0  0
    1.1478   -4.6631    0.0000 C   0  0  0  0  0  0  0  0  0  0  0  0
    0.0000   -6.6480    0.0000 C   0  0  0  0  0  0  0  0  0  0  0  0
    3.4555   -4.6631    0.0000 C   0  0  0  0  0  0  0  0  0  0  0  0
    4.6153   -6.6480    0.0000 C   0  0  0  0  0  0  0  0  0  0  0  0
    3.4555   -9.9719    0.0000 C   0  0  0  0  0  0  0  0  0  0  0  0
    1.1478   -9.9719    0.0000 C   0  0  0  0  0  0  0  0  0  0  0  0
    2.3077   -3.9816    0.0000 N   0  0  0  0  0  0  0  0  0  0  0  0
    2.3077  -10.6296    0.0000 N   0  0  0  0  0  0  0  0  0  0  0  0
    4.6153  -10.6296    0.0000 C   0  0  0  0  0  0  0  0  0  0  0  0
    2.3077   -2.6544    0.0000 C   0  0  0  0  0  0  0  0  0  0  0  0
    4.6153  -11.9568    0.0000 C   0  0  0  0  0  0  0  0  0  0  0  0
    5.7632   -9.9719    0.0000 O   0  0  0  0  0  0  0  0  0  0  0  0
    1.1478   -1.9968    0.0000 N   0  0  0  0  0  0  0  0  0  0  0  0
    3.4555   -1.9968    0.0000 N   0  0  0  0  0  0  0  0  0  0  0  0
    1.1478   -0.6696    0.0000 C   0  0  0  0  0  0  0  0  0  0  0  0
    3.4555   -0.6696    0.0000 C   0  0  0  0  0  0  0  0  0  0  0  0
    2.3077    0.0000    0.0000 N   0  0  0  0  0  0  0  0  0  0  0  0
    0.0000    0.0000    0.0000 C   0  0  0  0  0  0  0  0  0  0  0  0
    4.6153    0.0000    0.0000 C   0  0  0  0  0  0  0  0  0  0  0  0
  1  2  1  0  0  0  0
  1  3  1  0  0  0  0
  1  4  1  0  0  0  0
  2  5  1  0  0  0  0
  2  6  2  0  0  0  0
  3  7  1  0  0  0  0
  3  8  1  1  0  0  0
  4  9  1  0  0  0  0
  4 10  1  1  0  0  0
  5 11  2  0  0  0  0
  6 12  1  0  0  0  0
  7 13  1  0  0  0  0
  9 13  1  0  0  0  0
 11 14  1  0  0  0  0
 11 15  1  0  0  0  0
 12 14  2  0  0  0  0
 13 16  1  0  0  0  0
 15 17  1  6  0  0  0
 15 18  1  0  0  0  0
 16 19  1  0  0  0  0
 16 20  2  0  0  0  0
 19 21  2  0  0  0  0
 20 22  1  0  0  0  0
 21 23  1  0  0  0  0
 21 24  1  0  0  0  0
 22 25  1  0  0  0  0
 22 23  2  0  0  0  0
M  END
> <ID>
12409

> <Formula>
C17H25N7O

> <FW>
343.4267

> <DSSTox_CID>
27267

> <DSSTox_RID>
82224

> <DSSTox_GSID>
47267

> <DSSTox_FileID_Sort>
6905

> <TS_ChemName>
CP-642931

> <TS_ChemName_Synonyms>


> <TS_CASRN>
NOCAS_47267

> <CASRN_ChemName_Relationship>
no CAS assigned

> <TS_Description>
single chemical compound

> <ChemNote>
stereochem

> <STRUCTURE_Shown>
tested chemical

> <STRUCTURE_Formula>
C17H25N7O

> <STRUCTURE_MW>
343.4267

> <STRUCTURE_ChemType>
defined organic

> <STRUCTURE_DefinedOrganicForm>
parent

> <STRUCTURE_IUPAC>
(1R)-1-{4-[(2R,6S)-4-(4,6-dimethyl-1,3,5-triazin-2-yl)-2,6-dimethylpiperazin-1-yl]pyrimidin-2-yl}ethanol

> <STRUCTURE_SMILES>
C[C@@H](O)c1nccc(n1)N2[C@H](C)CN(C[C@@H]2C)c3nc(C)nc(C)n3

> <STRUCTURE_SMILES_Desalt>
C[C@@H](O)c1nccc(n1)N2[C@H](C)CN(C[C@@H]2C)c3nc(C)nc(C)n3

> <Substance_modify_yyyymmdd>
20130910

$$$$
