NOCAS_48509
ChemmineR-0915142007XD

 30 33  0  0  1  0  0  0  0  0  1 V2000
    8.0615   -2.6603    0.0000 C   0  0  0  0  0  0  0  0  0  0  0  0
    6.8983   -1.9923    0.0000 O   0  0  0  0  0  0  0  0  0  0  0  0
    8.0615   -3.9962    0.0000 N   0  0  0  0  0  0  0  0  0  0  0  0
    9.2131   -4.6526    0.0000 C   0  0  0  0  0  0  0  0  0  0  0  0
    6.8983   -4.6526    0.0000 C   0  0  0  0  0  0  0  0  0  0  0  0
    9.2131   -5.9770    0.0000 C   0  0  0  0  0  0  0  0  0  0  0  0
    6.8983   -5.9770    0.0000 C   0  0  0  0  0  0  0  0  0  0  0  0
    8.0615   -6.6565    0.0000 C   0  0  0  0  0  0  0  0  0  0  0  0
    8.0615   -7.9808    0.0000 N   0  0  0  0  0  0  0  0  0  0  0  0
    4.5950   -8.6373    0.0000 C   0  0  0  0  0  0  0  0  0  0  0  0
    4.5950   -9.9732    0.0000 C   0  0  0  0  0  0  0  0  0  0  0  0
    3.4434   -7.9808    0.0000 C   0  0  0  0  0  0  0  0  0  0  0  0
    3.4434  -10.6411    0.0000 C   0  0  0  0  0  0  0  0  0  0  0  0
    5.7467  -10.6411    0.0000 C   0  0  0  0  0  0  0  0  0  0  0  0
    5.7467   -7.9808    0.0000 C   0  0  0  0  0  0  0  0  0  0  0  0
    6.8983   -8.6373    0.0000 C   0  0  0  0  0  0  0  0  0  0  0  0
    6.8983   -9.9732    0.0000 C   0  0  0  0  0  0  0  0  0  0  0  0
    2.2918   -9.9732    0.0000 C   0  0  0  0  0  0  0  0  0  0  0  0
    2.2918   -8.6373    0.0000 C   0  0  0  0  0  0  0  0  0  0  0  0
    1.1516   -7.9808    0.0000 O   0  0  0  0  0  0  0  0  0  0  0  0
    0.0000   -8.6373    0.0000 C   0  0  0  0  0  0  0  0  0  0  0  0
    9.2131   -8.6373    0.0000 C   0  0  0  0  0  0  0  0  0  0  0  0
   10.3647   -7.9808    0.0000 C   0  0  0  0  0  0  0  0  0  0  0  0
   11.5164   -8.6373    0.0000 C   0  0  0  0  0  0  0  0  0  0  0  0
   11.5164   -0.6679    0.0000 N   0  0  0  0  0  0  0  0  0  0  0  0
   11.5164   -1.9923    0.0000 C   0  0  0  0  0  0  0  0  0  0  0  0
   10.3647    0.0000    0.0000 C   0  0  0  0  0  0  0  0  0  0  0  0
   10.3647   -2.6603    0.0000 C   0  0  0  0  0  0  0  0  0  0  0  0
    9.2131   -0.6679    0.0000 C   0  0  0  0  0  0  0  0  0  0  0  0
    9.2131   -1.9923    0.0000 C   0  0  0  0  0  0  0  0  0  0  0  0
  1  2  2  0  0  0  0
  1  3  1  0  0  0  0
  1 30  1  0  0  0  0
  3  4  1  0  0  0  0
  3  5  1  0  0  0  0
  4  6  1  0  0  0  0
  5  7  1  0  0  0  0
  6  8  1  0  0  0  0
  7  8  1  0  0  0  0
  8  9  1  0  0  0  0
 16  9  1  6  0  0  0
  9 22  1  0  0  0  0
 10 11  2  0  0  0  0
 10 12  1  0  0  0  0
 10 15  1  0  0  0  0
 11 13  1  0  0  0  0
 11 14  1  0  0  0  0
 12 19  2  0  0  0  0
 13 18  2  0  0  0  0
 14 17  1  0  0  0  0
 15 16  1  0  0  0  0
 16 17  1  0  0  0  0
 18 19  1  0  0  0  0
 19 20  1  0  0  0  0
 20 21  1  0  0  0  0
 22 23  1  0  0  0  0
 23 24  1  0  0  0  0
 25 26  1  0  0  0  0
 25 27  1  0  0  0  0
 26 28  1  0  0  0  0
 27 29  1  0  0  0  0
 28 30  1  0  0  0  0
 29 30  1  0  0  0  0
M  END
> <ID>
13557

> <Formula>
C25H39N3O2

> <FW>
413.5961

> <DSSTox_CID>
28483

> <DSSTox_RID>
82760

> <DSSTox_GSID>
48509

> <DSSTox_FileID_Sort>
7437

> <TS_ChemName>
PharmaGSID_48509

> <TS_ChemName_Synonyms>
(4-{[(2R)-7-Methoxy-1,2,3,4-tetrahydronaphthalen-2-yl](propyl)amino}piperidin-1-yl)(piperidin-4-yl)methanone

> <TS_CASRN>
NOCAS_48509

> <CASRN_ChemName_Relationship>
no CAS assigned

> <TS_Description>
single chemical compound

> <ChemNote>
stereochem

> <STRUCTURE_Shown>
tested chemical

> <STRUCTURE_Formula>
C25H39N3O2

> <STRUCTURE_MW>
413.5961

> <STRUCTURE_ChemType>
defined organic

> <STRUCTURE_DefinedOrganicForm>
parent

> <STRUCTURE_IUPAC>
(4-{[(2R)-7-methoxy-1,2,3,4-tetrahydronaphthalen-2-yl](propyl)amino}piperidin-1-yl)(piperidin-4-yl)methanone

> <STRUCTURE_SMILES>
O=C(C1CCNCC1)N2CCC(CC2)N(CCC)[C@H]3Cc4cc(OC)ccc4CC3

> <STRUCTURE_SMILES_Desalt>
O=C(C1CCNCC1)N2CCC(CC2)N(CCC)[C@H]3Cc4cc(OC)ccc4CC3

> <Substance_modify_yyyymmdd>
20130910

$$$$
