NOCAS_48792
ChemmineR-0915142007XD

 26 28  0  0  0  0  0  0  0  0  1 V2000
    1.2709   -1.3662    0.0000 C   0  0  0  0  0  0  0  0  0  0  0  0
    1.5409   -2.6688    0.0000 O   0  0  0  0  0  0  0  0  0  0  0  0
    0.0000   -0.9531    0.0000 C   0  0  0  0  0  0  0  0  0  0  0  0
    2.2399   -0.4766    0.0000 N   0  0  0  0  0  0  0  0  0  0  0  0
    6.0366   -1.7157    0.0000 N   0  0  0  0  0  0  0  0  0  0  0  0
    3.7808   -2.1922    0.0000 N   0  0  0  0  0  0  0  0  0  0  0  0
    5.0517   -2.5894    0.0000 C   0  0  0  0  0  0  0  0  0  0  0  0
    4.4957    0.0000    0.0000 C   0  0  0  0  0  0  0  0  0  0  0  0
    5.7666   -0.4130    0.0000 C   0  0  0  0  0  0  0  0  0  0  0  0
    3.5108   -0.8896    0.0000 C   0  0  0  0  0  0  0  0  0  0  0  0
    9.4521   -2.1287    0.0000 O   0  0  0  0  0  0  0  0  0  0  0  0
    9.0549   -3.3837    0.0000 C   0  0  0  0  0  0  0  0  0  0  0  0
    7.7205   -3.3837    0.0000 O   0  0  0  0  0  0  0  0  0  0  0  0
    7.3075   -2.1287    0.0000 C   0  0  0  0  0  0  0  0  0  0  0  0
    8.3718   -1.3344    0.0000 C   0  0  0  0  0  0  0  0  0  0  0  0
    9.8174   -4.4639    0.0000 C   0  0  0  0  0  0  0  0  0  0  0  0
   11.1518   -4.3209    0.0000 O   0  0  0  0  0  0  0  0  0  0  0  0
   11.9303   -5.3853    0.0000 C   0  0  0  0  0  0  0  0  0  0  0  0
   11.3901   -6.6085    0.0000 O   0  0  0  0  0  0  0  0  0  0  0  0
   13.2488   -5.2423    0.0000 C   0  0  0  0  0  0  0  0  0  0  0  0
   13.7889   -4.0509    0.0000 C   0  0  0  0  0  0  0  0  0  0  0  0
   14.0272   -6.3384    0.0000 C   0  0  0  0  0  0  0  0  0  0  0  0
   15.1233   -3.9079    0.0000 C   0  0  0  0  0  0  0  0  0  0  0  0
   15.3616   -6.1955    0.0000 C   0  0  0  0  0  0  0  0  0  0  0  0
   15.8858   -4.9723    0.0000 C   0  0  0  0  0  0  0  0  0  0  0  0
    5.3376   -3.9079    0.0000 O   0  0  0  0  0  0  0  0  0  0  0  0
  1  2  2  0  0  0  0
  1  4  1  0  0  0  0
  1  3  1  0  0  0  0
  4 10  1  0  0  0  0
  5  7  1  0  0  0  0
  5  9  1  0  0  0  0
  5 14  1  0  0  0  0
  6  7  1  0  0  0  0
  6 10  2  0  0  0  0
  7 26  2  0  0  0  0
  8  9  2  0  0  0  0
  8 10  1  0  0  0  0
 11 12  1  0  0  0  0
 11 15  1  0  0  0  0
 12 13  1  0  0  0  0
 12 16  1  0  0  0  0
 13 14  1  0  0  0  0
 14 15  1  0  0  0  0
 16 17  1  0  0  0  0
 17 18  1  0  0  0  0
 18 19  2  0  0  0  0
 18 20  1  0  0  0  0
 20 21  2  0  0  0  0
 20 22  1  0  0  0  0
 21 23  1  0  0  0  0
 22 24  2  0  0  0  0
 23 25  2  0  0  0  0
 24 25  1  0  0  0  0
M  END
> <ID>
13781

> <Formula>
C17H17N3O6

> <FW>
359.3334

> <DSSTox_CID>
28718

> <DSSTox_RID>
82987

> <DSSTox_GSID>
48792

> <DSSTox_FileID_Sort>
7664

> <TS_ChemName>
{4-[4-(Acetylamino)-2-oxopyrimidin-1(2H)-yl]-1,3-dioxolan-2-yl}methyl benzoate

> <TS_ChemName_Synonyms>
Acetamide, N-[1-[2-[(benzoyloxy)methyl]-1,3-dioxolan-4-yl]-1,2-dihydro-2-oxo-4-pyrimidinyl]-

> <TS_CASRN>
NOCAS_48792

> <CASRN_ChemName_Relationship>
no CAS assigned

> <TS_Description>
single chemical compound

> <ChemNote>


> <STRUCTURE_Shown>
tested chemical

> <STRUCTURE_Formula>
C17H17N3O6

> <STRUCTURE_MW>
359.3334

> <STRUCTURE_ChemType>
defined organic

> <STRUCTURE_DefinedOrganicForm>
parent

> <STRUCTURE_IUPAC>
{4-[4-(acetylamino)-2-oxopyrimidin-1(2H)-yl]-1,3-dioxolan-2-yl}methyl benzoate

> <STRUCTURE_SMILES>
O=C(OCC1OCC(O1)N2C=CC(NC(C)=O)=NC2=O)c3ccccc3

> <STRUCTURE_SMILES_Desalt>
O=C(OCC1OCC(O1)N2C=CC(NC(C)=O)=NC2=O)c3ccccc3

> <Substance_modify_yyyymmdd>
20111204

$$$$
