NOCAS_47334
ChemmineR-0915142007XD

 27 30  0  0  1  0  0  0  0  0  1 V2000
   11.5268   -1.9286    0.0000 N   0  0  0  0  0  0  0  0  0  0  0  0
   13.8411   -1.9137    0.0000 N   0  0  0  0  0  0  0  0  0  0  0  0
   12.6691   -1.2610    0.0000 C   0  0  0  0  0  0  0  0  0  0  0  0
   12.6988   -3.9313    0.0000 C   0  0  0  0  0  0  0  0  0  0  0  0
   11.5268   -3.2637    0.0000 C   0  0  0  0  0  0  0  0  0  0  0  0
   13.8411   -3.2489    0.0000 C   0  0  0  0  0  0  0  0  0  0  0  0
   14.8351   -4.1241    0.0000 N   0  0  0  0  0  0  0  0  0  0  0  0
   14.3010   -5.3555    0.0000 N   0  0  0  0  0  0  0  0  0  0  0  0
   12.9955   -5.2071    0.0000 C   0  0  0  0  0  0  0  0  0  0  0  0
   10.3845   -3.9461    0.0000 N   0  0  0  0  0  0  0  0  0  0  0  0
    9.2274   -3.2785    0.0000 C   0  0  0  0  0  0  0  0  0  0  0  0
    9.2126   -1.9582    0.0000 C   0  0  0  0  0  0  0  0  0  0  0  0
    8.0554   -1.2907    0.0000 C   0  0  0  0  0  0  0  0  0  0  0  0
    6.9131   -1.9731    0.0000 C   0  0  0  0  0  0  0  0  0  0  0  0
    6.9428   -3.2785    0.0000 C   0  0  0  0  0  0  0  0  0  0  0  0
    8.0703   -3.9610    0.0000 C   0  0  0  0  0  0  0  0  0  0  0  0
    5.7708   -1.3055    0.0000 O   0  0  0  0  0  0  0  0  0  0  0  0
    4.6137   -1.9879    0.0000 C   0  0  0  0  0  0  0  0  0  0  0  0
    3.4566   -1.3203    0.0000 C   0  0  0  0  0  0  0  0  0  0  0  0
    3.4566    0.0000    0.0000 F   0  0  0  0  0  0  0  0  0  0  0  0
    0.0000   -2.0176    0.0000 C   0  0  0  0  0  0  0  0  0  0  0  0
    0.0148   -3.3527    0.0000 C   0  0  0  0  0  0  0  0  0  0  0  0
    1.1720   -4.0055    0.0000 C   0  0  0  0  0  0  0  0  0  0  0  0
    2.3143   -3.3379    0.0000 C   0  0  0  0  0  0  0  0  0  0  0  0
    2.3143   -2.0027    0.0000 C   0  0  0  0  0  0  0  0  0  0  0  0
    1.1571   -1.3352    0.0000 C   0  0  0  0  0  0  0  0  0  0  0  0
    1.1423   -0.0148    0.0000 F   0  0  0  0  0  0  0  0  0  0  0  0
  1  3  1  0  0  0  0
  1  5  1  0  0  0  0
  2  3  2  0  0  0  0
  2  6  1  0  0  0  0
  4  5  2  0  0  0  0
  4  6  1  0  0  0  0
  4  9  1  0  0  0  0
  5 10  1  0  0  0  0
  6  7  2  0  0  0  0
  7  8  1  0  0  0  0
  8  9  2  0  0  0  0
 11 10  1  1  0  0  0
 11 12  1  0  0  0  0
 11 16  1  0  0  0  0
 12 13  1  0  0  0  0
 13 14  1  0  0  0  0
 14 15  1  0  0  0  0
 14 17  1  6  0  0  0
 15 16  1  0  0  0  0
 17 18  1  0  0  0  0
 18 19  1  0  0  0  0
 19 20  1  1  0  0  0
 19 25  1  0  0  0  0
 21 26  2  0  0  0  0
 21 22  1  0  0  0  0
 22 23  2  0  0  0  0
 23 24  1  0  0  0  0
 24 25  2  0  0  0  0
 25 26  1  0  0  0  0
 26 27  1  0  0  0  0
M  END
> <ID>
12476

> <Formula>
C19H21F2N5O

> <FW>
373.3997

> <DSSTox_CID>
27334

> <DSSTox_RID>
82277

> <DSSTox_GSID>
47334

> <DSSTox_FileID_Sort>
6958

> <TS_ChemName>
MK-968

> <TS_ChemName_Synonyms>


> <TS_CASRN>
NOCAS_47334

> <CASRN_ChemName_Relationship>
no CAS assigned

> <TS_Description>
single chemical compound

> <ChemNote>
stereochem; tautomers

> <STRUCTURE_Shown>
tested chemical

> <STRUCTURE_Formula>
C19H21F2N5O

> <STRUCTURE_MW>
373.3997

> <STRUCTURE_ChemType>
defined organic

> <STRUCTURE_DefinedOrganicForm>
parent

> <STRUCTURE_IUPAC>
N-{trans-4-[(2R)-2-fluoro-2-(2-fluorophenyl)ethoxy]cyclohexyl}-5H-pyrazolo[3,4-d]pyrimidin-4-amine

> <STRUCTURE_SMILES>
Fc1ccccc1[C@@H](F)CO[C@H]2CC[C@@H](CC2)NC=3NC=NC4=NN=CC=34

> <STRUCTURE_SMILES_Desalt>
Fc1ccccc1[C@@H](F)CO[C@H]2CC[C@@H](CC2)NC=3NC=NC4=NN=CC=34

> <Substance_modify_yyyymmdd>
20130910

$$$$
