NOCAS_47353
ChemmineR-0915142007XD

 42 45  0  0  0  0  0  0  0  0  1 V2000
    8.9069   -5.7728    0.0000 C    0  0  0  0  0  0  0  0  0  0  0  0
    9.5758   -6.9124    0.0000 C    0  0  0  0  0  0  0  0  0  0  0  0
    7.5938   -5.7728    0.0000 N    0  0  0  0  0  0  0  0  0  0  0  0
    8.9193   -8.0645    0.0000 C    0  0  0  0  0  0  0  0  0  0  0  0
    6.9124   -6.9124    0.0000 C    0  0  0  0  0  0  0  0  0  0  0  0
    7.5938   -8.0645    0.0000 C    0  0  0  0  0  0  0  0  0  0  0  0
    8.2627   -9.2166    0.0000 N    0  0  0  0  0  0  0  0  0  0  0  0
    8.9441  -10.3811    0.0000 C    0  0  0  0  0  0  0  0  0  0  0  0
    6.9372   -9.2414    0.0000 C    0  0  0  0  0  0  0  0  0  0  0  0
    8.2751  -11.5331    0.0000 C    0  0  0  0  0  0  0  0  0  0  0  0
    6.2683  -10.3934    0.0000 C    0  0  0  0  0  0  0  0  0  0  0  0
    6.9496  -11.5331    0.0000 C    0  0  0  0  0  0  0  0  0  0  0  0
   10.0714   -8.7211    0.0000 C    0  0  0  0  0  0  0  0  0  0  0  0
   10.0714  -10.0590    0.0000 O    0  0  0  0  0  0  0  0  0  0  0  0
   11.2358   -8.0645    0.0000 N    0  0  0  0  0  0  0  0  0  0  0  0
   11.2110   -6.7390    0.0000 C    0  0  0  0  0  0  0  0  0  0  0  0
   12.3879   -8.7211    0.0000 C    0  0  0  0  0  0  0  0  0  0  0  0
    6.9124   -4.6207    0.0000 C    0  0  0  0  0  0  0  0  0  0  0  0
    7.5690   -3.4562    0.0000 C    0  0  0  0  0  0  0  0  0  0  0  0
    6.9124   -0.9910    0.0000 O    0  0  0  0  0  0  0  0  0  0  0  0
    6.9124   -2.3165    0.0000 C    0  0  0  0  0  0  0  0  0  0  0  0
    5.7604   -0.3221    0.0000 C    0  0  0  0  0  0  0  0  0  0  0  0
    5.7604   -2.9855    0.0000 C    0  0  0  0  0  0  0  0  0  0  0  0
    4.6083   -0.9910    0.0000 C    0  0  0  0  0  0  0  0  0  0  0  0
    4.6083   -2.3165    0.0000 N    0  0  0  0  0  0  0  0  0  0  0  0
    3.4686   -2.9855    0.0000 C    0  0  0  0  0  0  0  0  0  0  0  0
    3.4686   -4.3110    0.0000 O    0  0  0  0  0  0  0  0  0  0  0  0
    2.3165   -2.3165    0.0000 C    0  0  0  0  0  0  0  0  0  0  0  0
    1.1521   -2.9855    0.0000 C    0  0  0  0  0  0  0  0  0  0  0  0
    2.3165   -0.9910    0.0000 C    0  0  0  0  0  0  0  0  0  0  0  0
    0.0000   -2.3165    0.0000 C    0  0  0  0  0  0  0  0  0  0  0  0
    1.1521   -0.3221    0.0000 C    0  0  0  0  0  0  0  0  0  0  0  0
    0.0000   -0.9910    0.0000 C    0  0  0  0  0  0  0  0  0  0  0  0
    8.2379   -2.3041    0.0000 C    0  0  0  0  0  0  0  0  0  0  0  0
    8.9069   -1.1521    0.0000 C    0  0  0  0  0  0  0  0  0  0  0  0
    8.9069   -3.4562    0.0000 C    0  0  0  0  0  0  0  0  0  0  0  0
   10.2324   -1.1521    0.0000 C    0  0  0  0  0  0  0  0  0  0  0  0
   10.2324   -3.4562    0.0000 C    0  0  0  0  0  0  0  0  0  0  0  0
   10.9137   -2.3041    0.0000 C    0  0  0  0  0  0  0  0  0  0  0  0
   12.2392   -2.3041    0.0000 Cl   0  0  0  0  0  0  0  0  0  0  0  0
   10.9013    0.0000    0.0000 Cl   0  0  0  0  0  0  0  0  0  0  0  0
    3.5305   -6.3054    0.0000 Cl   0  0  0  0  0  0  0  0  0  0  0  0
  1  2  1  0  0  0  0
  1  3  1  0  0  0  0
  2  4  1  0  0  0  0
  3  5  1  0  0  0  0
  3 18  1  0  0  0  0
  4  6  1  0  0  0  0
  4  7  1  0  0  0  0
  4 13  1  0  0  0  0
  5  6  1  0  0  0  0
  7  8  1  0  0  0  0
  7  9  1  0  0  0  0
  8 10  1  0  0  0  0
  9 11  1  0  0  0  0
 10 12  1  0  0  0  0
 11 12  1  0  0  0  0
 13 14  2  0  0  0  0
 13 15  1  0  0  0  0
 15 16  1  0  0  0  0
 15 17  1  0  0  0  0
 18 19  1  0  0  0  0
 19 21  1  0  0  0  0
 20 21  1  0  0  0  0
 20 22  1  0  0  0  0
 21 23  1  0  0  0  0
 21 34  1  0  0  0  0
 22 24  1  0  0  0  0
 23 25  1  0  0  0  0
 24 25  1  0  0  0  0
 25 26  1  0  0  0  0
 26 27  2  0  0  0  0
 26 28  1  0  0  0  0
 28 29  1  0  0  0  0
 28 30  2  0  0  0  0
 29 31  2  0  0  0  0
 30 32  1  0  0  0  0
 31 33  1  0  0  0  0
 32 33  2  0  0  0  0
 34 35  1  0  0  0  0
 34 36  2  0  0  0  0
 35 37  2  0  0  0  0
 36 38  1  0  0  0  0
 37 39  1  0  0  0  0
 37 41  1  0  0  0  0
 38 39  2  0  0  0  0
 39 40  1  0  0  0  0
M  END
> <ID>
12495

> <Formula>
C32H43Cl3N4O3

> <FW>
638.0678 (601.6069+36.4609)

> <DSSTox_CID>
27353

> <DSSTox_RID>
82290

> <DSSTox_GSID>
47353

> <DSSTox_FileID_Sort>
6971

> <TS_ChemName>
SSR241586

> <TS_ChemName_Synonyms>


> <TS_CASRN>
NOCAS_47353

> <CASRN_ChemName_Relationship>
no CAS assigned

> <TS_Description>
single chemical compound

> <ChemNote>


> <STRUCTURE_Shown>
tested chemical

> <STRUCTURE_Formula>
C32H43Cl3N4O3

> <STRUCTURE_MW>
638.0678

> <STRUCTURE_ChemType>
defined organic

> <STRUCTURE_DefinedOrganicForm>
complex

> <STRUCTURE_IUPAC>
1'-{2-[4-benzoyl-2-(3,4-dichlorophenyl)morpholin-2-yl]ethyl}-N,N-dimethyl-1,4'-bipiperidine-4'-carboxamide hydrochloride (1:1)

> <STRUCTURE_SMILES>
Cl.O=C(N3CC(CCN1CCC(CC1)(C(=O)N(C)C)N2CCCCC2)(OCC3)c4ccc(Cl)c(Cl)c4)c5ccccc5

> <STRUCTURE_SMILES_Desalt>
O=C(N3CC(CCN1CCC(CC1)(C(=O)N(C)C)N2CCCCC2)(OCC3)c4ccc(Cl)c(Cl)c4)c5ccccc5

> <Substance_modify_yyyymmdd>
20130910

$$$$
