NOCAS_49390
ChemmineR-0915142007XD

 17 16  0  0  0  0  0  0  0  0  2 V2000
    7.6788   -5.5035    0.0000 C   0  0  0  0  0  0  0  0  0  0  0  0
    6.6563   -2.1352    0.0000 C   0  0  0  0  0  0  0  0  0  0  0  0
    8.2201   -4.2905    0.0000 C   0  0  0  0  0  0  0  0  0  0  0  0
   10.0245   -1.3333    0.0000 C   0  0  0  0  0  0  0  0  0  0  0  0
    9.2426   -0.2606    0.0000 C   0  0  0  0  0  0  0  0  0  0  0  0
    7.4382   -3.2078    0.0000 C   0  0  0  0  0  0  0  0  0  0  0  0
    9.2426   -2.4059    0.0000 C   0  0  0  0  0  0  0  0  0  0  0  0
    7.9795   -0.6716    0.0000 C   0  0  0  0  0  0  0  0  0  0  0  0
    7.9795   -1.9949    0.0000 N   0  3  0  0  0  0  0  0  0  0  0  0
    1.3333   -1.3333    0.0000 C   0  0  0  0  0  0  0  0  0  0  0  0
    0.0000   -1.3333    0.0000 F   0  0  0  0  0  0  0  0  0  0  0  0
    1.3333   -2.6665    0.0000 F   0  0  0  0  0  0  0  0  0  0  0  0
    1.3333    0.0000    0.0000 F   0  0  0  0  0  0  0  0  0  0  0  0
    2.6565   -2.6665    0.0000 O   0  5  0  0  0  0  0  0  0  0  0  0
    2.6565    0.0000    0.0000 O   0  0  0  0  0  0  0  0  0  0  0  0
    3.9898   -1.3333    0.0000 O   0  0  0  0  0  0  0  0  0  0  0  0
    2.6565   -1.3333    0.0000 S   0  0  0  0  0  0  0  0  0  0  0  0
  1  3  1  0  0  0  0
  2  9  1  0  0  0  0
  3  6  1  0  0  0  0
  4  5  1  0  0  0  0
  4  7  1  0  0  0  0
  5  8  1  0  0  0  0
  6  9  1  0  0  0  0
  7  9  1  0  0  0  0
  8  9  1  0  0  0  0
 10 11  1  0  0  0  0
 10 12  1  0  0  0  0
 10 13  1  0  0  0  0
 10 17  1  0  0  0  0
 14 17  1  0  0  0  0
 15 17  2  0  0  0  0
 16 17  2  0  0  0  0
M  END
> <ID>
14254

> <Formula>
C9H18F3NO3S

> <FW>
277.3043 (128.2347+149.0697)

> <DSSTox_CID>
29349

> <DSSTox_RID>
83465

> <DSSTox_GSID>
49390

> <DSSTox_FileID_Sort>
8140

> <TS_ChemName>
1-Methyl-1-propylpyrrolidinium trifluoromethanesulfonate

> <TS_ChemName_Synonyms>


> <TS_CASRN>
NOCAS_49390

> <CASRN_ChemName_Relationship>
no CAS assigned

> <TS_Description>
single chemical compound

> <ChemNote>


> <STRUCTURE_Shown>
tested chemical

> <STRUCTURE_Formula>
C9H18F3NO3S

> <STRUCTURE_MW>
277.3043

> <STRUCTURE_ChemType>
defined organic

> <STRUCTURE_DefinedOrganicForm>
complex

> <STRUCTURE_IUPAC>
1-methyl-1-propylpyrrolidinium trifluoromethanesulfonate

> <STRUCTURE_SMILES>
C[N+]1(CCC)CCCC1.FC(F)(F)S([O-])(=O)=O

> <STRUCTURE_SMILES_Desalt>
C[N+]1(CCC)CCCC1

> <Substance_modify_yyyymmdd>
20111204

$$$$
