NOCAS_47325
ChemmineR-0915142007XD

 38 41  0  0  0  0  0  0  0  0  1 V2000
   24.3122    0.0000    0.0000 C    0  0  0  0  0  0  0  0  0  0  0  0
   23.2425   -0.7780    0.0000 C    0  0  0  0  0  0  0  0  0  0  0  0
   21.9782   -0.3890    0.0000 N    0  0  0  0  0  0  0  0  0  0  0  0
   21.1759   -1.4587    0.0000 C    0  0  0  0  0  0  0  0  0  0  0  0
   21.9539   -2.5285    0.0000 N    0  0  0  0  0  0  0  0  0  0  0  0
   23.2425   -2.1152    0.0000 O    0  0  0  0  0  0  0  0  0  0  0  0
   19.8631   -1.4587    0.0000 C    0  0  0  0  0  0  0  0  0  0  0  0
   19.1823   -0.2917    0.0000 C    0  0  0  0  0  0  0  0  0  0  0  0
   17.8452   -0.2917    0.0000 C    0  0  0  0  0  0  0  0  0  0  0  0
   17.1887   -1.4587    0.0000 C    0  0  0  0  0  0  0  0  0  0  0  0
   15.8759   -1.2399    0.0000 C    0  0  0  0  0  0  0  0  0  0  0  0
   14.8791   -2.1638    0.0000 C    0  0  0  0  0  0  0  0  0  0  0  0
   14.9763   -3.4766    0.0000 N    0  0  0  0  0  0  0  0  0  0  0  0
   13.8336   -4.1331    0.0000 C    0  0  0  0  0  0  0  0  0  0  0  0
   12.6667   -3.4766    0.0000 C    0  0  0  0  0  0  0  0  0  0  0  0
   11.5483   -4.1331    0.0000 C    0  0  0  0  0  0  0  0  0  0  0  0
   11.5483   -5.4702    0.0000 C    0  0  0  0  0  0  0  0  0  0  0  0
   10.3813   -6.1267    0.0000 C    0  0  0  0  0  0  0  0  0  0  0  0
    9.2386   -5.4702    0.0000 C    0  0  0  0  0  0  0  0  0  0  0  0
    9.2386   -4.1574    0.0000 C    0  0  0  0  0  0  0  0  0  0  0  0
   10.3813   -3.4766    0.0000 C    0  0  0  0  0  0  0  0  0  0  0  0
    8.0716   -6.1267    0.0000 N    0  0  0  0  0  0  0  0  0  0  0  0
    6.9290   -5.4702    0.0000 C    0  0  0  0  0  0  0  0  0  0  0  0
    6.9290   -4.1574    0.0000 O    0  0  0  0  0  0  0  0  0  0  0  0
    5.7620   -6.1267    0.0000 C    0  0  0  0  0  0  0  0  0  0  0  0
    4.6193   -5.4702    0.0000 C    0  0  0  0  0  0  0  0  0  0  0  0
    3.4523   -6.1267    0.0000 C    0  0  0  0  0  0  0  0  0  0  0  0
    2.3340   -5.4702    0.0000 C    0  0  0  0  0  0  0  0  0  0  0  0
    1.1427   -6.1267    0.0000 C    0  0  0  0  0  0  0  0  0  0  0  0
    1.1427   -7.4395    0.0000 C    0  0  0  0  0  0  0  0  0  0  0  0
    0.0000   -8.1203    0.0000 F    0  0  0  0  0  0  0  0  0  0  0  0
    2.3097   -8.1203    0.0000 C    0  0  0  0  0  0  0  0  0  0  0  0
    3.4523   -7.4638    0.0000 C    0  0  0  0  0  0  0  0  0  0  0  0
   16.0947   -4.2303    0.0000 C    0  0  0  0  0  0  0  0  0  0  0  0
   17.3832   -3.8170    0.0000 C    0  0  0  0  0  0  0  0  0  0  0  0
   17.8452   -2.6014    0.0000 C    0  0  0  0  0  0  0  0  0  0  0  0
   19.1823   -2.6014    0.0000 C    0  0  0  0  0  0  0  0  0  0  0  0
   14.9520   -6.0294    0.0000 Cl   0  0  0  0  0  0  0  0  0  0  0  0
  1  2  1  0  0  0  0
  2  3  2  0  0  0  0
  2  6  1  0  0  0  0
  3  4  1  0  0  0  0
  4  5  2  0  0  0  0
  4  7  1  0  0  0  0
  5  6  1  0  0  0  0
  7  8  1  0  0  0  0
  7 37  2  0  0  0  0
  8  9  2  0  0  0  0
  9 10  1  0  0  0  0
 10 11  1  0  0  0  0
 10 36  2  0  0  0  0
 11 12  1  0  0  0  0
 12 13  1  0  0  0  0
 13 14  1  0  0  0  0
 13 34  1  0  0  0  0
 14 15  1  0  0  0  0
 15 16  1  0  0  0  0
 16 17  1  0  0  0  0
 16 21  1  0  0  0  0
 17 18  1  0  0  0  0
 18 19  1  0  0  0  0
 19 20  1  0  0  0  0
 19 22  1  0  0  0  0
 20 21  1  0  0  0  0
 22 23  1  0  0  0  0
 23 24  2  0  0  0  0
 23 25  1  0  0  0  0
 25 26  2  0  0  0  0
 26 27  1  0  0  0  0
 27 28  1  0  0  0  0
 27 33  2  0  0  0  0
 28 29  2  0  0  0  0
 29 30  1  0  0  0  0
 30 31  1  0  0  0  0
 30 32  2  0  0  0  0
 32 33  1  0  0  0  0
 34 35  1  0  0  0  0
 35 36  1  0  0  0  0
 36 37  1  0  0  0  0
M  END
> <ID>
12467

> <Formula>
C30H36ClFN4O2

> <FW>
539.0838 (502.6229+36.4609)

> <DSSTox_CID>
27325

> <DSSTox_RID>
82271

> <DSSTox_GSID>
47325

> <DSSTox_FileID_Sort>
6952

> <TS_ChemName>
SB413217A

> <TS_ChemName_Synonyms>


> <TS_CASRN>
NOCAS_47325

> <CASRN_ChemName_Relationship>
no CAS assigned

> <TS_Description>
single chemical compound

> <ChemNote>
stereochem

> <STRUCTURE_Shown>
tested chemical

> <STRUCTURE_Formula>
C30H36ClFN4O2

> <STRUCTURE_MW>
539.0838

> <STRUCTURE_ChemType>
defined organic

> <STRUCTURE_DefinedOrganicForm>
complex

> <STRUCTURE_IUPAC>
(2E)-3-(4-fluorophenyl)-N-(4-{2-[7-(5-methyl-1,2,4-oxadiazol-3-yl)-1,2,4,5-tetrahydro-3H-3-benzazepin-3-yl]ethyl}cyclohexyl)prop-2-enamide hydrochloride (1:1)

> <STRUCTURE_SMILES>
Cl.Fc1ccc(cc1)/C=C/C(=O)NC2CCC(CC2)CCN3CCc4ccc(cc4CC3)c5nc(C)on5

> <STRUCTURE_SMILES_Desalt>
Fc1ccc(cc1)/C=C/C(=O)NC2CCC(CC2)CCN3CCc4ccc(cc4CC3)c5nc(C)on5

> <Substance_modify_yyyymmdd>
20130910

$$$$
