NOCAS_47346
ChemmineR-0915142007XD

 27 30  0  0  1  0  0  0  0  0  1 V2000
    9.1145   -4.4331    0.0000 C   0  0  0  0  0  0  0  0  0  0  0  0
    7.4009   -5.7121    0.0000 C   0  0  0  0  0  0  0  0  0  0  0  0
    8.2329   -5.0291    0.0000 C   0  0  0  0  0  0  0  0  0  0  0  0
    9.8099   -5.0291    0.0000 C   0  0  0  0  0  0  0  0  0  0  0  0
   10.0334   -3.7005    0.0000 N   0  0  0  0  0  0  0  0  0  0  0  0
    7.6244   -4.3958    0.0000 C   0  0  0  0  0  0  0  0  0  0  0  0
   10.6543   -6.1840    0.0000 C   0  0  0  0  0  0  0  0  0  0  0  0
    9.6485   -5.5755    0.0000 C   0  0  0  0  0  0  0  0  0  0  0  0
   10.7164   -2.5580    0.0000 C   0  0  0  0  0  0  0  0  0  0  0  0
    9.8099   -1.5770    0.0000 N   0  0  0  0  0  0  0  0  0  0  0  0
   12.0203   -2.2600    0.0000 N   0  0  0  0  0  0  0  0  0  0  0  0
   10.2197   -0.3104    0.0000 C   0  0  0  0  0  0  0  0  0  0  0  0
   12.4176   -0.9810    0.0000 C   0  0  0  0  0  0  0  0  0  0  0  0
   11.4987    0.0000    0.0000 C   0  0  0  0  0  0  0  0  0  0  0  0
    6.7428   -6.8669    0.0000 N   0  0  0  0  0  0  0  0  0  0  0  0
    5.4017   -6.8669    0.0000 C   0  0  0  0  0  0  0  0  0  0  0  0
    4.7311   -8.0342    0.0000 C   0  0  0  0  0  0  0  0  0  0  0  0
    5.4017   -9.1890    0.0000 O   0  0  0  0  0  0  0  0  0  0  0  0
    3.3900   -8.0342    0.0000 N   0  0  0  0  0  0  0  0  0  0  0  0
    2.6077   -9.1145    0.0000 C   0  0  0  0  0  0  0  0  0  0  0  0
    2.6077   -6.9539    0.0000 C   0  0  0  0  0  0  0  0  0  0  0  0
    1.3411   -8.7048    0.0000 C   0  0  0  0  0  0  0  0  0  0  0  0
    1.3411   -7.3761    0.0000 C   0  0  0  0  0  0  0  0  0  0  0  0
    0.0000   -8.6923    0.0000 F   0  0  0  0  0  0  0  0  0  0  0  0
    0.7202   -9.8968    0.0000 F   0  0  0  0  0  0  0  0  0  0  0  0
    3.0299   -5.6873    0.0000 C   0  0  0  0  0  0  0  0  0  0  0  0
    4.3213   -5.4141    0.0000 N   0  0  0  0  0  0  0  0  0  0  0  0
  1  5  1  0  0  0  0
  1  6  1  0  0  0  0
  1  8  1  0  0  0  0
  2  3  1  0  0  0  0
  2  6  1  0  0  0  0
  2 15  1  0  0  0  0
  3  4  1  0  0  0  0
  4  5  1  0  0  0  0
  4  7  1  0  0  0  0
  5  9  1  0  0  0  0
  7  8  1  0  0  0  0
  9 10  2  0  0  0  0
  9 11  1  0  0  0  0
 10 12  1  0  0  0  0
 11 13  2  0  0  0  0
 12 14  2  0  0  0  0
 13 14  1  0  0  0  0
 15 16  1  0  0  0  0
 16 17  1  0  0  0  0
 17 18  2  0  0  0  0
 17 19  1  0  0  0  0
 19 20  1  0  0  0  0
 19 21  1  0  0  0  0
 20 22  1  0  0  0  0
 21 23  1  0  0  0  0
 21 26  1  1  0  0  0
 22 23  1  0  0  0  0
 22 24  1  0  0  0  0
 22 25  1  0  0  0  0
 26 27  3  0  0  0  0
M  END
> <ID>
12488

> <Formula>
C18H22F2N6O

> <FW>
376.4037

> <DSSTox_CID>
27346

> <DSSTox_RID>
82285

> <DSSTox_GSID>
47346

> <DSSTox_FileID_Sort>
6966

> <TS_ChemName>
SSR162369

> <TS_ChemName_Synonyms>


> <TS_CASRN>
NOCAS_47346

> <CASRN_ChemName_Relationship>
no CAS assigned

> <TS_Description>
single chemical compound

> <ChemNote>
stereochem

> <STRUCTURE_Shown>
tested chemical

> <STRUCTURE_Formula>
C18H22F2N6O

> <STRUCTURE_MW>
376.4037

> <STRUCTURE_ChemType>
defined organic

> <STRUCTURE_DefinedOrganicForm>
parent

> <STRUCTURE_IUPAC>
(2S)-4,4-difluoro-1-{N-[8-(pyrimidin-2-yl)-8-azabicyclo[3.2.1]oct-3-yl]glycyl}pyrrolidine-2-carbonitrile

> <STRUCTURE_SMILES>
FC1(F)C[C@@H](C#N)N(C1)C(=O)CNC2CC4CCC(C2)N4c3ncccn3

> <STRUCTURE_SMILES_Desalt>
FC1(F)C[C@@H](C#N)N(C1)C(=O)CNC2CC4CCC(C2)N4c3ncccn3

> <Substance_modify_yyyymmdd>
20130910

$$$$
