NOCAS_47377
ChemmineR-0915142007XD

 45 48  0  0  1  0  0  0  0  0  1 V2000
   11.5378   -1.9841    0.0000 C    0  0  0  0  0  0  0  0  0  0  0  0
   11.5378   -3.3212    0.0000 C    0  0  0  0  0  0  0  0  0  0  0  0
   10.3948   -1.3155    0.0000 C    0  0  0  0  0  0  0  0  0  0  0  0
   10.3948   -3.9897    0.0000 C    0  0  0  0  0  0  0  0  0  0  0  0
    9.2303   -1.9841    0.0000 C    0  0  0  0  0  0  0  0  0  0  0  0
    9.2303   -3.3212    0.0000 C    0  0  0  0  0  0  0  0  0  0  0  0
   12.7887   -1.5743    0.0000 C    0  0  0  0  0  0  0  0  0  0  0  0
   13.5651   -2.6526    0.0000 C    0  0  0  0  0  0  0  0  0  0  0  0
   12.7887   -3.7309    0.0000 N    0  0  0  0  0  0  0  0  0  0  0  0
   14.9022   -2.6526    0.0000 C    0  0  0  0  0  0  0  0  0  0  0  0
   15.5707   -3.8172    0.0000 O    0  0  0  0  0  0  0  0  0  0  0  0
   15.5707   -1.5096    0.0000 N    0  0  0  0  0  0  0  0  0  0  0  0
   16.9078   -1.5096    0.0000 C    0  0  0  0  0  0  0  0  0  0  0  0
   19.5604   -1.5096    0.0000 N    0  0  0  0  0  0  0  0  0  0  0  0
   18.8919   -0.3451    0.0000 C    0  0  0  0  0  0  0  0  0  0  0  0
   18.8919   -2.6526    0.0000 C    0  0  0  0  0  0  0  0  0  0  0  0
   17.5763   -0.3451    0.0000 C    0  0  0  0  0  0  0  0  0  0  0  0
   17.5763   -2.6526    0.0000 C    0  0  0  0  0  0  0  0  0  0  0  0
   20.8975   -1.5096    0.0000 C    0  0  0  0  0  0  0  0  0  0  0  0
   21.5661   -2.6526    0.0000 C    0  0  0  0  0  0  0  0  0  0  0  0
   21.5661   -0.3451    0.0000 C    0  0  0  0  0  0  0  0  0  0  0  0
    8.0873   -1.3155    0.0000 C    0  0  0  0  0  0  0  0  0  0  0  0
    6.9227   -1.9841    0.0000 O    0  0  0  0  0  0  0  0  0  0  0  0
    8.0873    0.0000    0.0000 O    0  0  0  0  0  0  0  0  0  0  0  0
    5.7581   -1.3155    0.0000 C    0  0  0  0  0  0  0  0  0  0  0  0
    4.6151   -1.9841    0.0000 O    0  0  0  0  0  0  0  0  0  0  0  0
    5.7581    0.0000    0.0000 C    0  0  0  0  0  0  0  0  0  0  0  0
    3.4506   -1.3155    0.0000 C    0  0  0  0  0  0  0  0  0  0  0  0
    2.2860   -1.9841    0.0000 O    0  0  0  0  0  0  0  0  0  0  0  0
    3.4506    0.0000    0.0000 O    0  0  0  0  0  0  0  0  0  0  0  0
    1.1430   -1.3155    0.0000 C    0  0  0  0  0  0  0  0  0  0  0  0
    0.0000   -1.9841    0.0000 C    0  0  0  0  0  0  0  0  0  0  0  0
   13.1984   -5.0033    0.0000 C    0  0  0  0  0  0  0  0  0  0  0  0
   12.3142   -5.9738    0.0000 C    0  0  0  0  0  0  0  0  0  0  0  0
   12.5946   -7.2893    0.0000 C    0  0  0  0  0  0  0  0  0  0  0  0
   10.9771   -5.8444    0.0000 N    0  0  0  0  0  0  0  0  0  0  0  0
   11.4300   -7.9363    0.0000 C    0  0  0  0  0  0  0  0  0  0  0  0
   10.4595   -7.0521    0.0000 O    0  0  0  0  0  0  0  0  0  0  0  0
   11.2791   -9.2734    0.0000 C    0  0  0  0  0  0  0  0  0  0  0  0
   12.2927  -10.1576    0.0000 C    0  0  0  0  0  0  0  0  0  0  0  0
   10.1576   -9.9420    0.0000 S    0  0  0  0  0  0  0  0  0  0  0  0
   11.7319  -11.3869    0.0000 C    0  0  0  0  0  0  0  0  0  0  0  0
   10.4164  -11.2359    0.0000 C    0  0  0  0  0  0  0  0  0  0  0  0
    9.5322  -12.2280    0.0000 Cl   0  0  0  0  0  0  0  0  0  0  0  0
   14.2336   -6.7933    0.0000 Cl   0  0  0  0  0  0  0  0  0  0  0  0
  1  3  2  0  0  0  0
  1  7  1  0  0  0  0
  1  2  1  0  0  0  0
  2  4  2  0  0  0  0
  2  9  1  0  0  0  0
  3  5  1  0  0  0  0
  4  6  1  0  0  0  0
  5  6  2  0  0  0  0
  5 22  1  0  0  0  0
  7  8  2  0  0  0  0
  8  9  1  0  0  0  0
  8 10  1  0  0  0  0
  9 33  1  0  0  0  0
 10 11  2  0  0  0  0
 10 12  1  0  0  0  0
 12 13  1  0  0  0  0
 13 17  1  0  0  0  0
 13 18  1  0  0  0  0
 14 15  1  0  0  0  0
 14 16  1  0  0  0  0
 14 19  1  0  0  0  0
 15 17  1  0  0  0  0
 16 18  1  0  0  0  0
 19 20  1  0  0  0  0
 19 21  1  0  0  0  0
 22 23  1  0  0  0  0
 22 24  2  0  0  0  0
 23 25  1  0  0  0  0
 25 26  1  0  0  0  0
 25 27  1  6  0  0  0
 26 28  1  0  0  0  0
 28 29  1  0  0  0  0
 28 30  2  0  0  0  0
 29 31  1  0  0  0  0
 31 32  1  0  0  0  0
 33 34  1  0  0  0  0
 34 35  1  0  0  0  0
 34 36  2  0  0  0  0
 35 37  2  0  0  0  0
 36 38  1  0  0  0  0
 37 38  1  0  0  0  0
 37 39  1  0  0  0  0
 39 40  2  0  0  0  0
 39 41  1  0  0  0  0
 40 42  1  0  0  0  0
 41 43  1  0  0  0  0
 42 43  2  0  0  0  0
 43 44  1  0  0  0  0
M  END
> <ID>
12519

> <Formula>
C31H36Cl2N4O7S

> <FW>
679.6111 (643.1502+36.4609)

> <DSSTox_CID>
27377

> <DSSTox_RID>
82308

> <DSSTox_GSID>
47377

> <DSSTox_FileID_Sort>
6989

> <TS_ChemName>
AVE6324

> <TS_ChemName_Synonyms>
A003086324A

> <TS_CASRN>
NOCAS_47377

> <CASRN_ChemName_Relationship>
no CAS assigned

> <TS_Description>
single chemical compound

> <ChemNote>
stereochem

> <STRUCTURE_Shown>
tested chemical

> <STRUCTURE_Formula>
C31H36Cl2N4O7S

> <STRUCTURE_MW>
679.6111

> <STRUCTURE_ChemType>
defined organic

> <STRUCTURE_DefinedOrganicForm>
complex

> <STRUCTURE_IUPAC>
(1R)-1-[(ethoxycarbonyl)oxy]ethyl 1-{[5-(5-chlorothiophen-2-yl)-1,2-oxazol-3-yl]methyl}-2-{[1-(propan-2-yl)piperidin-4-yl]carbamoyl}-1H-indole-5-carboxylate hydrochloride (1:1)

> <STRUCTURE_SMILES>
Cl.Clc1ccc(s1)c5onc(Cn3c4ccc(cc4cc3C(=O)NC2CCN(CC2)C(C)C)C(=O)O[C@@H](C)OC(=O)OCC)c5

> <STRUCTURE_SMILES_Desalt>
Clc1ccc(s1)c5onc(Cn3c4ccc(cc4cc3C(=O)NC2CCN(CC2)C(C)C)C(=O)O[C@@H](C)OC(=O)OCC)c5

> <Substance_modify_yyyymmdd>
20130910

$$$$
