NOCAS_46224
ChemmineR-0915142007XD

 22 23  0  0  1  0  0  0  0  0  1 V2000
    1.9533   -2.2473    0.0000 C   0  0  0  0  0  0  0  0  0  0  0  0
    3.2429   -2.2473    0.0000 O   0  0  0  0  0  0  0  0  0  0  0  0
    1.2991   -3.3757    0.0000 C   0  0  0  0  0  0  0  0  0  0  0  0
    3.8877   -3.3757    0.0000 C   0  0  0  0  0  0  0  0  0  0  0  0
    1.9533   -4.4946    0.0000 C   0  0  0  0  0  0  0  0  0  0  0  0
    3.2429   -4.4946    0.0000 C   0  0  0  0  0  0  0  0  0  0  0  0
    1.2991   -1.1284    0.0000 C   0  0  0  0  0  0  0  0  0  0  0  0
    1.9533    0.0000    0.0000 O   0  0  0  0  0  0  0  0  0  0  0  0
    0.0000   -3.3757    0.0000 O   0  0  0  0  0  0  0  0  0  0  0  0
    1.2991   -5.6040    0.0000 O   0  0  0  0  0  0  0  0  0  0  0  0
    3.8877   -5.6040    0.0000 O   0  0  0  0  0  0  0  0  0  0  0  0
    5.3290   -2.5412    0.0000 O   0  0  0  0  0  0  0  0  0  0  0  0
    6.1445   -4.5894    0.0000 O   0  0  0  0  0  0  0  0  0  0  0  0
    6.3151   -3.3093    0.0000 C   0  0  0  0  0  0  0  0  0  0  0  0
    7.3108   -5.1488    0.0000 C   0  0  0  0  0  0  0  0  0  0  0  0
    7.5952   -3.0722    0.0000 C   0  0  0  0  0  0  0  0  0  0  0  0
    8.2021   -4.2101    0.0000 C   0  0  0  0  0  0  0  0  0  0  0  0
    7.5289   -6.4289    0.0000 O   0  0  0  0  0  0  0  0  0  0  0  0
    9.4822   -4.3997    0.0000 O   0  0  0  0  0  0  0  0  0  0  0  0
    8.1547   -1.9059    0.0000 O   0  0  0  0  0  0  0  0  0  0  0  0
    6.6281   -2.0482    0.0000 C   0  0  0  0  0  0  0  0  0  0  0  0
    5.3764   -0.7870    0.0000 O   0  0  0  0  0  0  0  0  0  0  0  0
  1  2  1  0  0  0  0
  1  3  1  0  0  0  0
  1  7  1  1  0  0  0
  2  4  1  0  0  0  0
  3  5  1  0  0  0  0
  3  9  1  6  0  0  0
  4  6  1  0  0  0  0
  4 12  1  6  0  0  0
  5  6  1  0  0  0  0
  5 10  1  1  0  0  0
  6 11  1  6  0  0  0
  7  8  1  0  0  0  0
 12 14  1  6  0  0  0
 13 14  1  0  0  0  0
 13 15  1  0  0  0  0
 14 16  1  0  0  0  0
 14 21  1  1  0  0  0
 15 17  1  0  0  0  0
 15 18  1  6  0  0  0
 16 17  1  0  0  0  0
 16 20  1  1  0  0  0
 17 19  1  1  0  0  0
 21 22  1  0  0  0  0
M  END
> <ID>
11518

> <Formula>
C11H20O11

> <FW>
328.2699

> <DSSTox_CID>
26224

> <DSSTox_RID>
81451

> <DSSTox_GSID>
46224

> <DSSTox_FileID_Sort>
6132

> <TS_ChemName>
alpha-L-Lyxo-hex-5-ulofuranosyl alpha-D-glucopyranoside

> <TS_ChemName_Synonyms>


> <TS_CASRN>
NOCAS_46224

> <CASRN_ChemName_Relationship>
no CAS assigned

> <TS_Description>
single chemical compound

> <ChemNote>
stereochem

> <STRUCTURE_Shown>
tested chemical

> <STRUCTURE_Formula>
C11H20O11

> <STRUCTURE_MW>
328.2699

> <STRUCTURE_ChemType>
defined organic

> <STRUCTURE_DefinedOrganicForm>
parent

> <STRUCTURE_IUPAC>
(2R,3S,4S,5R,6R)-2-(hydroxymethyl)-6-{[(2R,3S,4R,5R)-3,4,5-trihydroxy-2-(hydroxymethyl)tetrahydrofuran-2-yl]oxy}tetrahydro-2H-pyran-3,4,5-triol

> <STRUCTURE_SMILES>
O[C@H]2[C@@H](O)[C@H](O)O[C@]2(CO)O[C@H]1O[C@H](CO)[C@@H](O)[C@H](O)[C@H]1O

> <STRUCTURE_SMILES_Desalt>
O[C@H]2[C@@H](O)[C@H](O)O[C@]2(CO)O[C@H]1O[C@H](CO)[C@@H](O)[C@H](O)[C@H]1O

> <Substance_modify_yyyymmdd>
20130906

$$$$
