NOCAS_49387
ChemmineR-0915142007XD

 34 33  0  0  0  0  0  0  0  0  1 V2000
    0.0000  -10.0580    0.0000 C   0  0  0  0  0  0  0  0  0  0  0  0
   12.2772  -17.8968    0.0000 C   0  0  0  0  0  0  0  0  0  0  0  0
    1.2886  -10.0580    0.0000 C   0  0  0  0  0  0  0  0  0  0  0  0
   11.6329  -16.7693    0.0000 C   0  0  0  0  0  0  0  0  0  0  0  0
    1.9329   -8.9484    0.0000 C   0  0  0  0  0  0  0  0  0  0  0  0
   12.2772  -15.6597    0.0000 C   0  0  0  0  0  0  0  0  0  0  0  0
    3.2214   -8.9484    0.0000 C   0  0  0  0  0  0  0  0  0  0  0  0
   11.6329  -14.5322    0.0000 C   0  0  0  0  0  0  0  0  0  0  0  0
    3.8836   -7.8209    0.0000 C   0  0  0  0  0  0  0  0  0  0  0  0
   12.2772  -13.4226    0.0000 C   0  0  0  0  0  0  0  0  0  0  0  0
    5.1722   -7.8209    0.0000 C   0  0  0  0  0  0  0  0  0  0  0  0
   11.6329  -12.2951    0.0000 C   0  0  0  0  0  0  0  0  0  0  0  0
    5.8165   -6.7113    0.0000 C   0  0  0  0  0  0  0  0  0  0  0  0
   12.2772  -11.1855    0.0000 C   0  0  0  0  0  0  0  0  0  0  0  0
    7.1050   -6.7113    0.0000 C   0  0  0  0  0  0  0  0  0  0  0  0
   11.6329  -10.0580    0.0000 C   0  0  0  0  0  0  0  0  0  0  0  0
    7.7493   -5.5838    0.0000 C   0  0  0  0  0  0  0  0  0  0  0  0
   12.2772   -8.9484    0.0000 C   0  0  0  0  0  0  0  0  0  0  0  0
    9.0379   -5.5838    0.0000 C   0  0  0  0  0  0  0  0  0  0  0  0
   11.6329   -7.8209    0.0000 C   0  0  0  0  0  0  0  0  0  0  0  0
    9.6822   -4.4742    0.0000 C   0  0  0  0  0  0  0  0  0  0  0  0
   12.2772   -6.7113    0.0000 C   0  0  0  0  0  0  0  0  0  0  0  0
   10.9708   -4.4742    0.0000 C   0  0  0  0  0  0  0  0  0  0  0  0
   11.6329   -5.5838    0.0000 C   0  0  0  0  0  0  0  0  0  0  0  0
   11.6329   -3.3467    0.0000 C   0  0  0  0  0  0  0  0  0  0  0  0
   12.2772   -4.4742    0.0000 C   0  0  0  0  0  0  0  0  0  0  0  0
   12.9215   -3.3467    0.0000 C   0  0  0  0  0  0  0  0  0  0  0  0
   10.9708   -2.2371    0.0000 C   0  0  0  0  0  0  0  0  0  0  0  0
   14.8544   -2.2371    0.0000 C   0  0  0  0  0  0  0  0  0  0  0  0
   13.5658   -2.2371    0.0000 C   0  0  0  0  0  0  0  0  0  0  0  0
   11.6329   -1.1275    0.0000 C   0  0  0  0  0  0  0  0  0  0  0  0
   12.9215   -1.1275    0.0000 N   0  0  0  0  0  0  0  0  0  0  0  0
   15.4987   -1.1275    0.0000 O   0  0  0  0  0  0  0  0  0  0  0  0
   10.9708    0.0000    0.0000 O   0  0  0  0  0  0  0  0  0  0  0  0
  1  3  1  0  0  0  0
  2  4  1  0  0  0  0
  3  5  1  0  0  0  0
  4  6  1  0  0  0  0
  5  7  1  0  0  0  0
  6  8  1  0  0  0  0
  7  9  1  0  0  0  0
  8 10  1  0  0  0  0
  9 11  1  0  0  0  0
 10 12  1  0  0  0  0
 11 13  1  0  0  0  0
 12 14  1  0  0  0  0
 13 15  1  0  0  0  0
 14 16  1  0  0  0  0
 15 17  1  0  0  0  0
 16 18  1  0  0  0  0
 17 19  1  0  0  0  0
 18 20  1  0  0  0  0
 19 21  1  0  0  0  0
 20 22  1  0  0  0  0
 21 23  1  0  0  0  0
 22 24  1  0  0  0  0
 23 25  1  0  0  0  0
 24 26  1  0  0  0  0
 25 27  1  0  0  0  0
 26 28  1  0  0  0  0
 27 30  1  0  0  0  0
 28 31  1  0  0  0  0
 29 30  1  0  0  0  0
 29 33  1  0  0  0  0
 30 32  1  0  0  0  0
 31 32  2  0  0  0  0
 31 34  1  0  0  0  0
M  END
> <ID>
14251

> <Formula>
C31H63NO2

> <FW>
481.8374

> <DSSTox_CID>
29346

> <DSSTox_RID>
83462

> <DSSTox_GSID>
49387

> <DSSTox_FileID_Sort>
8137

> <TS_ChemName>
1-Methyl-1-propylpiperidinium trifluoromethanesulfonate

> <TS_ChemName_Synonyms>


> <TS_CASRN>
NOCAS_49387

> <CASRN_ChemName_Relationship>
no CAS assigned

> <TS_Description>
single chemical compound

> <ChemNote>


> <STRUCTURE_Shown>
tested chemical

> <STRUCTURE_Formula>
C31H63NO2

> <STRUCTURE_MW>
481.8374

> <STRUCTURE_ChemType>
defined organic

> <STRUCTURE_DefinedOrganicForm>
parent

> <STRUCTURE_IUPAC>
(1E)-N-(1-hydroxyhexadecan-2-yl)pentadecanimidic acid

> <STRUCTURE_SMILES>
O/C(=N/C(CCCCCCCCCCCCCC)CO)CCCCCCCCCCCCCC

> <STRUCTURE_SMILES_Desalt>
O/C(=N/C(CCCCCCCCCCCCCC)CO)CCCCCCCCCCCCCC

> <Substance_modify_yyyymmdd>
20080429

$$$$
