NOCAS_47291
ChemmineR-0915142007XD

 30 34  0  0  1  0  0  0  0  0  1 V2000
    3.4582   -2.2644    0.0000 C   0  0  0  0  0  0  0  0  0  0  0  0
    3.4582   -3.6059    0.0000 C   0  0  0  0  0  0  0  0  0  0  0  0
    4.5042   -1.4522    0.0000 N   0  0  0  0  0  0  0  0  0  0  0  0
    2.3013   -1.5999    0.0000 C   0  0  0  0  0  0  0  0  0  0  0  0
    4.4919   -4.4181    0.0000 C   0  0  0  0  0  0  0  0  0  0  0  0
    2.3013   -4.2581    0.0000 C   0  0  0  0  0  0  0  0  0  0  0  0
    5.7841   -1.7352    0.0000 C   0  0  0  0  0  0  0  0  0  0  0  0
    3.8643    0.0000    0.0000 C   0  0  0  0  0  0  0  0  0  0  0  0
    2.3013   -0.2831    0.0000 C   0  0  0  0  0  0  0  0  0  0  0  0
    1.1568   -2.2644    0.0000 C   0  0  0  0  0  0  0  0  0  0  0  0
    4.1843   -5.7226    0.0000 C   0  0  0  0  0  0  0  0  0  0  0  0
    5.7841   -4.1227    0.0000 N   0  0  0  0  0  0  0  0  0  0  0  0
    1.1568   -3.6059    0.0000 C   0  0  0  0  0  0  0  0  0  0  0  0
    6.3625   -2.9413    0.0000 C   0  0  0  0  0  0  0  0  0  0  0  0
    6.3010   -0.9353    0.0000 O   0  0  0  0  0  0  0  0  0  0  0  0
    2.9290   -6.1164    0.0000 C   0  0  0  0  0  0  0  0  0  0  0  0
    5.1565   -6.6087    0.0000 C   0  0  0  0  0  0  0  0  0  0  0  0
    0.0000   -4.2581    0.0000 N   0  0  0  0  0  0  0  0  0  0  0  0
    7.6917   -2.9536    0.0000 N   0  0  0  0  0  0  0  0  0  0  0  0
    2.6336   -7.4086    0.0000 C   0  0  0  0  0  0  0  0  0  0  0  0
    4.8857   -7.9132    0.0000 C   0  0  0  0  0  0  0  0  0  0  0  0
    8.3439   -4.0981    0.0000 C   0  0  0  0  0  0  0  0  0  0  0  0
    3.6182   -8.3070    0.0000 C   0  0  0  0  0  0  0  0  0  0  0  0
    9.6730   -4.0981    0.0000 C   0  0  0  0  0  0  0  0  0  0  0  0
    7.6547   -5.2426    0.0000 O   0  0  0  0  0  0  0  0  0  0  0  0
   10.3253   -5.2549    0.0000 C   0  0  0  0  0  0  0  0  0  0  0  0
   10.3376   -2.9659    0.0000 C   0  0  0  0  0  0  0  0  0  0  0  0
   11.6544   -5.2673    0.0000 C   0  0  0  0  0  0  0  0  0  0  0  0
   11.6544   -2.9659    0.0000 N   0  0  0  0  0  0  0  0  0  0  0  0
   12.3067   -4.1227    0.0000 C   0  0  0  0  0  0  0  0  0  0  0  0
  1  2  2  0  0  0  0
  1  3  1  0  0  0  0
  1  4  1  0  0  0  0
  2  5  1  0  0  0  0
  2  6  1  0  0  0  0
  3  7  1  0  0  0  0
  3  8  1  0  0  0  0
  4  9  1  0  0  0  0
  4 10  2  0  0  0  0
  5 11  1  0  0  0  0
  5 12  2  0  0  0  0
  6 13  2  0  0  0  0
  7 14  1  0  0  0  0
  7 15  2  0  0  0  0
  8  9  1  0  0  0  0
 10 13  1  0  0  0  0
 11 16  1  0  0  0  0
 11 17  2  0  0  0  0
 12 14  1  0  0  0  0
 13 18  1  0  0  0  0
 14 19  1  6  0  0  0
 16 20  2  0  0  0  0
 17 21  1  0  0  0  0
 19 22  1  0  0  0  0
 20 23  1  0  0  0  0
 21 23  2  0  0  0  0
 22 24  1  0  0  0  0
 22 25  2  0  0  0  0
 24 26  2  0  0  0  0
 24 27  1  0  0  0  0
 26 28  1  0  0  0  0
 27 29  2  0  0  0  0
 28 30  2  0  0  0  0
 29 30  1  0  0  0  0
M  END
> <ID>
12433

> <Formula>
C23H19N5O2

> <FW>
397.4293

> <DSSTox_CID>
27291

> <DSSTox_RID>
82245

> <DSSTox_GSID>
47291

> <DSSTox_FileID_Sort>
6926

> <TS_ChemName>
CI-1044

> <TS_ChemName_Synonyms>
PD-0189659

> <TS_CASRN>
NOCAS_47291

> <CASRN_ChemName_Relationship>
no CAS assigned

> <TS_Description>
single chemical compound

> <ChemNote>
tautomers; stereochem

> <STRUCTURE_Shown>
tested chemical

> <STRUCTURE_Formula>
C23H19N5O2

> <STRUCTURE_MW>
397.4293

> <STRUCTURE_ChemType>
defined organic

> <STRUCTURE_DefinedOrganicForm>
parent

> <STRUCTURE_IUPAC>
N-[(3R)-9-amino-4-oxo-1-phenyl-3,4,6,7-tetrahydro[1,4]diazepino[6,7,1-hi]indol-3-yl]pyridine-3-carboxamide

> <STRUCTURE_SMILES>
Nc2cc3C(=N[C@@H](NC(=O)c1cccnc1)C(=O)N4CCc(c2)c34)c5ccccc5

> <STRUCTURE_SMILES_Desalt>
Nc2cc3C(=N[C@@H](NC(=O)c1cccnc1)C(=O)N4CCc(c2)c34)c5ccccc5

> <Substance_modify_yyyymmdd>
20130910

$$$$
