NOCAS_48507
ChemmineR-0915142007XD

 28 29  0  0  0  0  0  0  0  0  1 V2000
   14.0043   -2.6608    0.0000 Cl   0  0  0  0  0  0  0  0  0  0  0  0
    1.8206   -0.1821    0.0000 C    0  0  0  0  0  0  0  0  0  0  0  0
    1.1483   -1.3304    0.0000 C    0  0  0  0  0  0  0  0  0  0  0  0
    0.4901   -2.4928    0.0000 C    0  0  0  0  0  0  0  0  0  0  0  0
    0.0000   -0.6722    0.0000 O    0  0  0  0  0  0  0  0  0  0  0  0
    2.3107   -2.0026    0.0000 C    0  0  0  0  0  0  0  0  0  0  0  0
    3.4591   -1.3304    0.0000 N    0  0  0  0  0  0  0  0  0  0  0  0
    4.6214   -2.0026    0.0000 C    0  0  0  0  0  0  0  0  0  0  0  0
    4.6214   -3.3190    0.0000 N    0  0  0  0  0  0  0  0  0  0  0  0
    5.7698   -3.9912    0.0000 C    0  0  0  0  0  0  0  0  0  0  0  0
    6.9041   -3.3190    0.0000 C    0  0  0  0  0  0  0  0  0  0  0  0
    6.9041   -2.0026    0.0000 C    0  0  0  0  0  0  0  0  0  0  0  0
    5.7698   -1.3304    0.0000 N    0  0  0  0  0  0  0  0  0  0  0  0
    8.0665   -1.3304    0.0000 N    0  0  0  0  0  0  0  0  0  0  0  0
    8.0665    0.0000    0.0000 C    0  0  0  0  0  0  0  0  0  0  0  0
    9.2148   -2.0026    0.0000 C    0  0  0  0  0  0  0  0  0  0  0  0
   10.3632   -1.3304    0.0000 O    0  0  0  0  0  0  0  0  0  0  0  0
    9.2148   -3.3190    0.0000 C    0  0  0  0  0  0  0  0  0  0  0  0
    8.0665   -3.9912    0.0000 C    0  0  0  0  0  0  0  0  0  0  0  0
    8.0665   -5.3216    0.0000 O    0  0  0  0  0  0  0  0  0  0  0  0
    9.2148   -5.9798    0.0000 C    0  0  0  0  0  0  0  0  0  0  0  0
    9.2148   -7.3102    0.0000 C    0  0  0  0  0  0  0  0  0  0  0  0
   10.3632   -7.9824    0.0000 C    0  0  0  0  0  0  0  0  0  0  0  0
   11.5255   -7.3102    0.0000 C    0  0  0  0  0  0  0  0  0  0  0  0
   12.6739   -7.9824    0.0000 F    0  0  0  0  0  0  0  0  0  0  0  0
   11.5255   -5.9798    0.0000 C    0  0  0  0  0  0  0  0  0  0  0  0
   10.3632   -5.3216    0.0000 C    0  0  0  0  0  0  0  0  0  0  0  0
   10.3632   -3.9912    0.0000 F    0  0  0  0  0  0  0  0  0  0  0  0
  2  3  1  0  0  0  0
  3  4  1  0  0  0  0
  3  5  1  0  0  0  0
  3  6  1  0  0  0  0
  6  7  1  0  0  0  0
  7  8  1  0  0  0  0
  8  9  1  0  0  0  0
  8 13  2  0  0  0  0
  9 10  2  0  0  0  0
 10 11  1  0  0  0  0
 11 12  2  0  0  0  0
 11 19  1  0  0  0  0
 12 13  1  0  0  0  0
 12 14  1  0  0  0  0
 14 15  1  0  0  0  0
 14 16  1  0  0  0  0
 16 17  2  0  0  0  0
 16 18  1  0  0  0  0
 18 19  2  0  0  0  0
 19 20  1  0  0  0  0
 20 21  1  0  0  0  0
 21 22  1  0  0  0  0
 21 27  2  0  0  0  0
 22 23  2  0  0  0  0
 23 24  1  0  0  0  0
 24 25  1  0  0  0  0
 24 26  2  0  0  0  0
 26 27  1  0  0  0  0
 27 28  1  0  0  0  0
M  END
> <ID>
13555

> <Formula>
C18H19ClF2N4O3

> <FW>
412.8183 (36.4609+376.3573)

> <DSSTox_CID>
28481

> <DSSTox_RID>
82759

> <DSSTox_GSID>
48507

> <DSSTox_FileID_Sort>
7436

> <TS_ChemName>
PharmaGSID_48507

> <TS_ChemName_Synonyms>
5-(2,4-Difluorophenoxy)-2-[(2-hydroxy-2-methylpropyl)amino]-8-methylpyrido[2,3-d]pyrimidin-7(8H)-one hydrochloride (1:1)

> <TS_CASRN>
NOCAS_48507

> <CASRN_ChemName_Relationship>
no CAS assigned

> <TS_Description>
single chemical compound

> <ChemNote>


> <STRUCTURE_Shown>
tested chemical

> <STRUCTURE_Formula>
C18H19ClF2N4O3

> <STRUCTURE_MW>
412.8183

> <STRUCTURE_ChemType>
defined organic

> <STRUCTURE_DefinedOrganicForm>
complex

> <STRUCTURE_IUPAC>
5-(2,4-difluorophenoxy)-2-[(2-hydroxy-2-methylpropyl)amino]-8-methylpyrido[2,3-d]pyrimidin-7(8H)-one hydrochloride (1:1)

> <STRUCTURE_SMILES>
Cl.CC(C)(O)CNc1ncc3c(n1)N(C)C(=O)C=C3Oc2ccc(F)cc2F

> <STRUCTURE_SMILES_Desalt>
CC(C)(O)CNc1ncc3c(n1)N(C)C(=O)C=C3Oc2ccc(F)cc2F

> <Substance_modify_yyyymmdd>
20130910

$$$$
