NOCAS_47379
ChemmineR-0915142007XD

 43 46  0  0  1  0  0  0  0  0  1 V2000
    7.1113  -11.4479    0.0000 Cl   0  0  0  0  0  0  0  0  0  0  0  0
    3.4560   -8.3907    0.0000 C    0  0  0  0  0  0  0  0  0  0  0  0
    3.4560   -9.7366    0.0000 C    0  0  0  0  0  0  0  0  0  0  0  0
    2.2929   -7.7261    0.0000 C    0  0  0  0  0  0  0  0  0  0  0  0
    2.2929  -10.3845    0.0000 C    0  0  0  0  0  0  0  0  0  0  0  0
    1.1465   -8.3907    0.0000 C    0  0  0  0  0  0  0  0  0  0  0  0
    1.1465   -9.7366    0.0000 C    0  0  0  0  0  0  0  0  0  0  0  0
    4.7187   -8.0086    0.0000 C    0  0  0  0  0  0  0  0  0  0  0  0
    5.4997   -9.0553    0.0000 C    0  0  0  0  0  0  0  0  0  0  0  0
    4.7187  -10.1353    0.0000 N    0  0  0  0  0  0  0  0  0  0  0  0
    0.0000   -7.7261    0.0000 Cl   0  0  0  0  0  0  0  0  0  0  0  0
    5.1341  -11.3981    0.0000 C    0  0  0  0  0  0  0  0  0  0  0  0
    4.2369  -12.3784    0.0000 C    0  0  0  0  0  0  0  0  0  0  0  0
    2.0437  -13.0928    0.0000 C    0  0  0  0  0  0  0  0  0  0  0  0
    2.4591  -14.3556    0.0000 C    0  0  0  0  0  0  0  0  0  0  0  0
    2.9409  -12.1125    0.0000 C    0  0  0  0  0  0  0  0  0  0  0  0
    3.7717  -14.6381    0.0000 C    0  0  0  0  0  0  0  0  0  0  0  0
    4.6523  -13.6411    0.0000 C    0  0  0  0  0  0  0  0  0  0  0  0
    5.9483  -13.9236    0.0000 O    0  0  0  0  0  0  0  0  0  0  0  0
    6.3637  -15.1864    0.0000 C    0  0  0  0  0  0  0  0  0  0  0  0
    1.5618  -15.3525    0.0000 O    0  0  0  0  0  0  0  0  0  0  0  0
    1.9772  -16.6153    0.0000 C    0  0  0  0  0  0  0  0  0  0  0  0
    6.8289   -9.0553    0.0000 O    0  0  0  0  0  0  0  0  0  0  0  0
    5.6326   -7.0449    0.0000 C    0  0  0  0  0  0  0  0  0  0  0  0
    4.3034   -6.7292    0.0000 C    0  0  0  0  0  0  0  0  0  0  0  0
    7.4935   -5.1341    0.0000 C    0  0  0  0  0  0  0  0  0  0  0  0
    6.1975   -4.8018    0.0000 C    0  0  0  0  0  0  0  0  0  0  0  0
    7.8424   -6.4135    0.0000 C    0  0  0  0  0  0  0  0  0  0  0  0
    5.2670   -5.7655    0.0000 C    0  0  0  0  0  0  0  0  0  0  0  0
    6.9120   -7.3606    0.0000 C    0  0  0  0  0  0  0  0  0  0  0  0
    7.5101   -8.5403    0.0000 Cl   0  0  0  0  0  0  0  0  0  0  0  0
    3.9711   -5.4332    0.0000 C    0  0  0  0  0  0  0  0  0  0  0  0
    3.6221   -4.1538    0.0000 N    0  0  0  0  0  0  0  0  0  0  0  0
    3.0738   -6.3969    0.0000 O    0  0  0  0  0  0  0  0  0  0  0  0
    2.3428   -3.8381    0.0000 C    0  0  0  0  0  0  0  0  0  0  0  0
    4.5526   -3.2067    0.0000 C    0  0  0  0  0  0  0  0  0  0  0  0
    4.1870   -1.9274    0.0000 C    0  0  0  0  0  0  0  0  0  0  0  0
    1.9772   -2.5588    0.0000 C    0  0  0  0  0  0  0  0  0  0  0  0
    0.3157   -0.9637    0.0000 N    0  0  0  0  0  0  0  0  0  0  0  0
    1.2461    0.0000    0.0000 C    0  0  0  0  0  0  0  0  0  0  0  0
    0.6812   -2.2431    0.0000 C    0  0  0  0  0  0  0  0  0  0  0  0
    2.5421   -0.3157    0.0000 C    0  0  0  0  0  0  0  0  0  0  0  0
    2.9077   -1.5951    0.0000 C    0  0  0  0  0  0  0  0  0  0  0  0
  2  4  2  0  0  0  0
  2  8  1  0  0  0  0
  2  3  1  0  0  0  0
  3  5  2  0  0  0  0
  3 10  1  0  0  0  0
  4  6  1  0  0  0  0
  5  7  1  0  0  0  0
  6  7  2  0  0  0  0
  6 11  1  0  0  0  0
  8  9  1  0  0  0  0
  8 24  1  0  0  0  0
  8 25  1  1  0  0  0
  9 10  1  0  0  0  0
  9 23  2  0  0  0  0
 10 12  1  0  0  0  0
 12 13  1  0  0  0  0
 13 16  1  0  0  0  0
 13 18  2  0  0  0  0
 14 15  1  0  0  0  0
 14 16  2  0  0  0  0
 15 17  2  0  0  0  0
 15 21  1  0  0  0  0
 17 18  1  0  0  0  0
 18 19  1  0  0  0  0
 19 20  1  0  0  0  0
 21 22  1  0  0  0  0
 24 29  1  0  0  0  0
 24 30  2  0  0  0  0
 26 27  1  0  0  0  0
 26 28  2  0  0  0  0
 27 29  2  0  0  0  0
 28 30  1  0  0  0  0
 29 32  1  0  0  0  0
 30 31  1  0  0  0  0
 32 33  1  0  0  0  0
 32 34  2  0  0  0  0
 33 35  1  0  0  0  0
 33 36  1  0  0  0  0
 35 38  1  0  0  0  0
 36 37  1  0  0  0  0
 38 41  1  0  0  0  0
 38 43  2  0  0  0  0
 39 40  1  0  0  0  0
 39 41  2  0  0  0  0
 40 42  2  0  0  0  0
 42 43  1  0  0  0  0
M  END
> <ID>
12521

> <Formula>
C33H32Cl3N3O4

> <FW>
640.9839 (36.4609+604.5229)

> <DSSTox_CID>
27379

> <DSSTox_RID>
82309

> <DSSTox_GSID>
47379

> <DSSTox_FileID_Sort>
6990

> <TS_ChemName>
SSR126768

> <TS_ChemName_Synonyms>
SSR126768A

> <TS_CASRN>
NOCAS_47379

> <CASRN_ChemName_Relationship>
no CAS assigned

> <TS_Description>
single chemical compound

> <ChemNote>
stereochem

> <STRUCTURE_Shown>
tested chemical

> <STRUCTURE_Formula>
C33H32Cl3N3O4

> <STRUCTURE_MW>
640.9839

> <STRUCTURE_ChemType>
defined organic

> <STRUCTURE_DefinedOrganicForm>
complex

> <STRUCTURE_IUPAC>
3-chloro-2-[(3R)-5-chloro-1-(2,4-dimethoxybenzyl)-3-methyl-2-oxo-2,3-dihydro-1H-indol-3-yl]-N-ethyl-N-(pyridin-3-ylmethyl)benzamide hydrochloride (1:1)

> <STRUCTURE_SMILES>
Cl.CCN(Cc1cccnc1)C(=O)c2cccc(Cl)c2[C@@]5(C)c3cc(Cl)ccc3N(Cc4ccc(OC)cc4OC)C5=O

> <STRUCTURE_SMILES_Desalt>
CCN(Cc1cccnc1)C(=O)c2cccc(Cl)c2[C@@]5(C)c3cc(Cl)ccc3N(Cc4ccc(OC)cc4OC)C5=O

> <Substance_modify_yyyymmdd>
20130910

$$$$
