NOCAS_48176
ChemmineR-0915142007XD

 98107  0  0  0  0  0  0  0  0  1 V2000
    9.8419  -15.1229    0.0000 C   0  0  0  0  0  0  0  0  0  0  0  0
    9.3618  -13.8747    0.0000 C   0  0  0  0  0  0  0  0  0  0  0  0
   11.1382  -15.5310    0.0000 C   0  0  0  0  0  0  0  0  0  0  0  0
   10.0339  -12.7225    0.0000 C   0  0  0  0  0  0  0  0  0  0  0  0
   12.2424  -14.7629    0.0000 N   0  0  0  0  0  0  0  0  0  0  0  0
   12.3384  -13.4426    0.0000 C   0  0  0  0  0  0  0  0  0  0  0  0
   11.3542  -12.5304    0.0000 C   0  0  0  0  0  0  0  0  0  0  0  0
    8.8577  -16.0351    0.0000 C   0  0  0  0  0  0  0  0  0  0  0  0
    9.1698  -17.3554    0.0000 C   0  0  0  0  0  0  0  0  0  0  0  0
   11.4262  -16.8273    0.0000 C   0  0  0  0  0  0  0  0  0  0  0  0
   10.4420  -17.7394    0.0000 C   0  0  0  0  0  0  0  0  0  0  0  0
   13.3946  -15.4590    0.0000 C   0  0  0  0  0  0  0  0  0  0  0  0
   13.3946  -16.7792    0.0000 O   0  0  0  0  0  0  0  0  0  0  0  0
   14.5468  -14.7629    0.0000 C   0  0  0  0  0  0  0  0  0  0  0  0
   14.5468  -13.4426    0.0000 C   0  0  0  0  0  0  0  0  0  0  0  0
   15.7230  -15.4590    0.0000 C   0  0  0  0  0  0  0  0  0  0  0  0
   15.7230  -12.7705    0.0000 C   0  0  0  0  0  0  0  0  0  0  0  0
   16.8753  -14.7629    0.0000 C   0  0  0  0  0  0  0  0  0  0  0  0
   16.8753  -13.4426    0.0000 C   0  0  0  0  0  0  0  0  0  0  0  0
   18.0275  -12.7705    0.0000 N   0  0  0  0  0  0  0  0  0  0  0  0
   19.1797  -13.4426    0.0000 C   0  0  0  0  0  0  0  0  0  0  0  0
   19.1797  -14.7629    0.0000 O   0  0  0  0  0  0  0  0  0  0  0  0
   20.3559  -12.7705    0.0000 C   0  0  0  0  0  0  0  0  0  0  0  0
   20.5000  -11.4262    0.0000 C   0  0  0  0  0  0  0  0  0  0  0  0
   21.5802  -13.2986    0.0000 C   0  0  0  0  0  0  0  0  0  0  0  0
   21.7962  -11.1622    0.0000 C   0  0  0  0  0  0  0  0  0  0  0  0
   22.4683  -12.3144    0.0000 O   0  0  0  0  0  0  0  0  0  0  0  0
   21.8442  -14.6188    0.0000 C   0  0  0  0  0  0  0  0  0  0  0  0
    9.0978  -12.1223    0.0000 F   0  0  0  0  0  0  0  0  0  0  0  0
   10.3940  -11.7143    0.0000 F   0  0  0  0  0  0  0  0  0  0  0  0
    8.0656  -13.5386    0.0000 C   0  0  0  0  0  0  0  0  0  0  0  0
    7.7295  -12.2184    0.0000 C   0  0  0  0  0  0  0  0  0  0  0  0
    8.6897  -11.2822    0.0000 O   0  0  0  0  0  0  0  0  0  0  0  0
    6.4572  -11.8823    0.0000 N   0  0  0  0  0  0  0  0  0  0  0  0
    5.4971  -12.7945    0.0000 C   0  0  0  0  0  0  0  0  0  0  0  0
    6.1212  -10.5860    0.0000 C   0  0  0  0  0  0  0  0  0  0  0  0
    4.2008  -12.4584    0.0000 C   0  0  0  0  0  0  0  0  0  0  0  0
    4.8249  -10.2260    0.0000 C   0  0  0  0  0  0  0  0  0  0  0  0
    3.8647  -11.1622    0.0000 C   0  0  0  0  0  0  0  0  0  0  0  0
    2.5685  -10.8021    0.0000 N   0  0  0  0  0  0  0  0  0  0  0  0
    1.6323  -11.7383    0.0000 C   0  0  0  0  0  0  0  0  0  0  0  0
    2.2564   -9.5058    0.0000 C   0  0  0  0  0  0  0  0  0  0  0  0
    0.3361  -11.3782    0.0000 C   0  0  0  0  0  0  0  0  0  0  0  0
    0.9602   -9.1458    0.0000 C   0  0  0  0  0  0  0  0  0  0  0  0
    0.0000  -10.0819    0.0000 C   0  0  0  0  0  0  0  0  0  0  0  0
   19.3717   -8.4256    0.0000 C   0  0  0  0  0  0  0  0  0  0  0  0
   20.5000   -9.0498    0.0000 C   0  0  0  0  0  0  0  0  0  0  0  0
   21.7482   -8.4256    0.0000 C   0  0  0  0  0  0  0  0  0  0  0  0
   22.8764   -9.0498    0.0000 C   0  0  0  0  0  0  0  0  0  0  0  0
   19.3717   -7.0094    0.0000 O   0  0  0  0  0  0  0  0  0  0  0  0
   18.1475   -9.0498    0.0000 O   0  0  0  0  0  0  0  0  0  0  0  0
   22.8764  -10.4900    0.0000 O   0  0  0  0  0  0  0  0  0  0  0  0
   24.0046   -8.4256    0.0000 O   0  0  0  0  0  0  0  0  0  0  0  0
   11.0901   -5.9772    0.0000 C   0  0  0  0  0  0  0  0  0  0  0  0
   10.6101   -4.7289    0.0000 C   0  0  0  0  0  0  0  0  0  0  0  0
   12.3864   -6.3852    0.0000 C   0  0  0  0  0  0  0  0  0  0  0  0
   11.2582   -3.5767    0.0000 C   0  0  0  0  0  0  0  0  0  0  0  0
   13.4666   -5.6171    0.0000 N   0  0  0  0  0  0  0  0  0  0  0  0
   13.5626   -4.2728    0.0000 C   0  0  0  0  0  0  0  0  0  0  0  0
   12.6024   -3.3847    0.0000 C   0  0  0  0  0  0  0  0  0  0  0  0
   10.1060   -6.8893    0.0000 C   0  0  0  0  0  0  0  0  0  0  0  0
   10.4180   -8.1856    0.0000 C   0  0  0  0  0  0  0  0  0  0  0  0
   12.6745   -7.6815    0.0000 C   0  0  0  0  0  0  0  0  0  0  0  0
   11.6903   -8.5937    0.0000 C   0  0  0  0  0  0  0  0  0  0  0  0
   14.6428   -6.2892    0.0000 C   0  0  0  0  0  0  0  0  0  0  0  0
   14.6428   -7.6335    0.0000 O   0  0  0  0  0  0  0  0  0  0  0  0
   15.7951   -5.6171    0.0000 C   0  0  0  0  0  0  0  0  0  0  0  0
   15.7951   -4.2728    0.0000 C   0  0  0  0  0  0  0  0  0  0  0  0
   16.9713   -6.2892    0.0000 C   0  0  0  0  0  0  0  0  0  0  0  0
   16.9713   -3.6247    0.0000 C   0  0  0  0  0  0  0  0  0  0  0  0
   18.1235   -5.6171    0.0000 C   0  0  0  0  0  0  0  0  0  0  0  0
   18.1235   -4.2728    0.0000 C   0  0  0  0  0  0  0  0  0  0  0  0
   19.2757   -3.6247    0.0000 N   0  0  0  0  0  0  0  0  0  0  0  0
   20.4279   -4.2728    0.0000 C   0  0  0  0  0  0  0  0  0  0  0  0
   20.4279   -5.6171    0.0000 O   0  0  0  0  0  0  0  0  0  0  0  0
   21.5802   -3.6247    0.0000 C   0  0  0  0  0  0  0  0  0  0  0  0
   21.7242   -2.2804    0.0000 C   0  0  0  0  0  0  0  0  0  0  0  0
   22.8044   -4.1528    0.0000 C   0  0  0  0  0  0  0  0  0  0  0  0
   23.0445   -2.0164    0.0000 C   0  0  0  0  0  0  0  0  0  0  0  0
   23.7166   -3.1686    0.0000 O   0  0  0  0  0  0  0  0  0  0  0  0
   23.0925   -5.4491    0.0000 C   0  0  0  0  0  0  0  0  0  0  0  0
   10.3220   -2.9526    0.0000 F   0  0  0  0  0  0  0  0  0  0  0  0
   11.6423   -2.5685    0.0000 F   0  0  0  0  0  0  0  0  0  0  0  0
    9.3138   -4.3688    0.0000 C   0  0  0  0  0  0  0  0  0  0  0  0
    8.9777   -3.0726    0.0000 C   0  0  0  0  0  0  0  0  0  0  0  0
    9.9379   -2.1364    0.0000 O   0  0  0  0  0  0  0  0  0  0  0  0
    7.6815   -2.7125    0.0000 N   0  0  0  0  0  0  0  0  0  0  0  0
    6.7453   -3.6487    0.0000 C   0  0  0  0  0  0  0  0  0  0  0  0
    7.3454   -1.4163    0.0000 C   0  0  0  0  0  0  0  0  0  0  0  0
    5.4491   -3.2886    0.0000 C   0  0  0  0  0  0  0  0  0  0  0  0
    6.0732   -1.0802    0.0000 C   0  0  0  0  0  0  0  0  0  0  0  0
    5.1130   -2.0164    0.0000 C   0  0  0  0  0  0  0  0  0  0  0  0
    3.8167   -1.6563    0.0000 N   0  0  0  0  0  0  0  0  0  0  0  0
    2.8806   -2.5925    0.0000 C   0  0  0  0  0  0  0  0  0  0  0  0
    3.5047   -0.3361    0.0000 C   0  0  0  0  0  0  0  0  0  0  0  0
    1.5843   -2.2084    0.0000 C   0  0  0  0  0  0  0  0  0  0  0  0
    2.2084    0.0000    0.0000 C   0  0  0  0  0  0  0  0  0  0  0  0
    1.2482   -0.9362    0.0000 C   0  0  0  0  0  0  0  0  0  0  0  0
  1  2  1  0  0  0  0
  1  8  1  0  0  0  0
  1  3  2  0  0  0  0
  2  4  1  0  0  0  0
  2 31  2  0  0  0  0
  3  5  1  0  0  0  0
  3 10  1  0  0  0  0
  4  7  1  0  0  0  0
  4 29  1  0  0  0  0
  4 30  1  0  0  0  0
  5  6  1  0  0  0  0
  5 12  1  0  0  0  0
  6  7  1  0  0  0  0
  8  9  2  0  0  0  0
  9 11  1  0  0  0  0
 10 11  2  0  0  0  0
 12 13  2  0  0  0  0
 12 14  1  0  0  0  0
 14 15  1  0  0  0  0
 14 16  2  0  0  0  0
 15 17  2  0  0  0  0
 16 18  1  0  0  0  0
 17 19  1  0  0  0  0
 18 19  2  0  0  0  0
 19 20  1  0  0  0  0
 20 21  1  0  0  0  0
 21 22  2  0  0  0  0
 21 23  1  0  0  0  0
 23 24  1  0  0  0  0
 23 25  2  0  0  0  0
 24 26  2  0  0  0  0
 25 27  1  0  0  0  0
 25 28  1  0  0  0  0
 26 27  1  0  0  0  0
 31 32  1  0  0  0  0
 32 33  2  0  0  0  0
 32 34  1  0  0  0  0
 34 35  1  0  0  0  0
 34 36  1  0  0  0  0
 35 37  1  0  0  0  0
 36 38  1  0  0  0  0
 37 39  1  0  0  0  0
 38 39  1  0  0  0  0
 39 40  1  0  0  0  0
 40 41  1  0  0  0  0
 40 42  1  0  0  0  0
 41 43  1  0  0  0  0
 42 44  1  0  0  0  0
 43 45  1  0  0  0  0
 44 45  1  0  0  0  0
 46 47  1  0  0  0  0
 46 51  1  0  0  0  0
 46 50  2  0  0  0  0
 47 48  2  0  0  0  0
 48 49  1  0  0  0  0
 49 53  1  0  0  0  0
 49 52  2  0  0  0  0
 54 55  1  0  0  0  0
 54 61  1  0  0  0  0
 54 56  2  0  0  0  0
 55 57  1  0  0  0  0
 55 84  2  0  0  0  0
 56 58  1  0  0  0  0
 56 63  1  0  0  0  0
 57 60  1  0  0  0  0
 57 82  1  0  0  0  0
 57 83  1  0  0  0  0
 58 59  1  0  0  0  0
 58 65  1  0  0  0  0
 59 60  1  0  0  0  0
 61 62  2  0  0  0  0
 62 64  1  0  0  0  0
 63 64  2  0  0  0  0
 65 66  2  0  0  0  0
 65 67  1  0  0  0  0
 67 68  1  0  0  0  0
 67 69  2  0  0  0  0
 68 70  2  0  0  0  0
 69 71  1  0  0  0  0
 70 72  1  0  0  0  0
 71 72  2  0  0  0  0
 72 73  1  0  0  0  0
 73 74  1  0  0  0  0
 74 75  2  0  0  0  0
 74 76  1  0  0  0  0
 76 77  1  0  0  0  0
 76 78  2  0  0  0  0
 77 79  2  0  0  0  0
 78 80  1  0  0  0  0
 78 81  1  0  0  0  0
 79 80  1  0  0  0  0
 84 85  1  0  0  0  0
 85 86  2  0  0  0  0
 85 87  1  0  0  0  0
 87 88  1  0  0  0  0
 87 89  1  0  0  0  0
 88 90  1  0  0  0  0
 89 91  1  0  0  0  0
 90 92  1  0  0  0  0
 91 92  1  0  0  0  0
 92 93  1  0  0  0  0
 93 94  1  0  0  0  0
 93 95  1  0  0  0  0
 94 96  1  0  0  0  0
 95 97  1  0  0  0  0
 96 98  1  0  0  0  0
 97 98  1  0  0  0  0
M  END
> <ID>
13237

> <Formula>
C74H80F4N8O12

> <FW>
1349.4670 (616.6974+116.0722+616.6974)

> <DSSTox_CID>
28150

> <DSSTox_RID>
82714

> <DSSTox_GSID>
48176

> <DSSTox_FileID_Sort>
7391

> <TS_ChemName>
YM218

> <TS_ChemName_Synonyms>


> <TS_CASRN>
NOCAS_48176

> <CASRN_ChemName_Relationship>
no CAS assigned

> <TS_Description>
single chemical compound

> <ChemNote>
stereochem

> <STRUCTURE_Shown>
tested chemical

> <STRUCTURE_Formula>
C74H80F4N8O12

> <STRUCTURE_MW>
1349.467

> <STRUCTURE_ChemType>
defined organic

> <STRUCTURE_DefinedOrganicForm>
complex

> <STRUCTURE_IUPAC>
N-[4-({(5Z)-5-[2-(1,4'-bipiperidin-1'-yl)-2-oxoethylidene]-4,4-difluoro-2,3,4,5-tetrahydro-1H-1-benzazepin-1-yl}carbonyl)phenyl]-2-methylfuran-3-carboxamide (2E)-but-2-enedioate (2:1)

> <STRUCTURE_SMILES>
O=C(O)/C=C/C(=O)O.Cc6occc6C(=O)Nc1ccc(cc1)C(=O)N5CCC(F)(F)C(=C\C(=O)N2CCC(CC2)N3CCCCC3)/c4ccccc45.O=C(\C=C2\c1ccccc1N(CCC2(F)F)C(=O)c3ccc(cc3)NC(=O)c4ccoc4C)N5CCC(CC5)N6CCCCC6

> <STRUCTURE_SMILES_Desalt>
Cc6occc6C(=O)Nc1ccc(cc1)C(=O)N5CCC(F)(F)C(=C\C(=O)N2CCC(CC2)N3CCCCC3)/c4ccccc45

> <Substance_modify_yyyymmdd>
20130910

$$$$
